@<TRIPOS>MOLECULE
2wjm_HEM_C_1.pdb
 43 50 0 0 0
SMALL
GASTEIGER

@<TRIPOS>ATOM
      1 FE         56.5910   43.1230   97.0990 Fe    1333  HEM1333     0.0000
      2  CHA       54.7270   44.6530   99.5400 C.2   1333  HEM1333     0.0000
      3  CHB       58.4270   41.5440   99.5140 C.2   1333  HEM1333     0.0000
      4  CHC       58.4390   41.4950   94.6520 C.2   1333  HEM1333     0.0000
      5  CHD       54.9450   44.8340   94.6740 C.2   1333  HEM1333     0.0000
      6  NA        56.5560   43.0840   99.1830 N.2   1333  HEM1333     0.0000
      7  C1A       55.7710   43.8760   99.9780 C.2   1333  HEM1333     0.0000
      8  C2A       56.2190   43.6950  101.3490 C.2   1333  HEM1333     0.0000
      9  C3A       57.2520   42.8430  101.3480 C.2   1333  HEM1333     0.0000
     10  C4A       57.4850   42.4450   99.9730 C.2   1333  HEM1333     0.0000
     11  CMA       58.0480   42.3400  102.5930 C.3   1333  HEM1333     0.0000
     12  CAA       55.5940   44.4180  102.5570 C.3   1333  HEM1333     0.0000
     13  CBA       56.5470   45.4970  103.0200 C.3   1333  HEM1333     0.0000
     14  CGA       55.8900   46.3380  104.0750 C.2   1333  HEM1333     0.0000
     15  O1A       54.9640   47.0850  103.7140 O.co2 1333  HEM1333     0.0000
     16  O2A       56.2920   46.2870  105.2780 O.co2 1333  HEM1333     0.0000
     17  NB        58.1430   41.7890   97.0870 N.ar  1333  HEM1333     0.0000
     18  C1B       58.7250   41.2310   98.2190 C.ar  1333  HEM1333     0.0000
     19  C2B       59.6970   40.2550   97.7890 C.ar  1333  HEM1333     0.0000
     20  C3B       59.7060   40.2410   96.4390 C.ar  1333  HEM1333     0.0000
     21  C4B       58.7310   41.2110   95.9770 C.ar  1333  HEM1333     0.0000
     22  CMB       60.5710   39.3940   98.7450 C.3   1333  HEM1333     0.0000
     23  CAB       60.5720   39.3730   95.4840 C.2   1333  HEM1333     0.0000
     24  CBB       60.5610   38.0400   95.6430 C.2   1333  HEM1333     0.0000
     25  NC        56.6760   43.1100   95.0520 N.2   1333  HEM1333     0.0000
     26  C1C       57.5550   42.4650   94.2350 C.2   1333  HEM1333     0.0000
     27  C2C       57.3570   42.9270   92.8710 C.2   1333  HEM1333     0.0000
     28  C3C       56.3920   43.8430   92.8920 C.2   1333  HEM1333     0.0000
     29  C4C       55.9430   43.9740   94.2630 C.2   1333  HEM1333     0.0000
     30  CMC       58.1840   42.4440   91.6600 C.3   1333  HEM1333     0.0000
     31  CAC       55.8170   44.6460   91.6900 C.2   1333  HEM1333     0.0000
     32  CBC       55.3440   43.9340   90.6430 C.2   1333  HEM1333     0.0000
     33  ND        55.0890   44.5810   97.1020 N.ar  1333  HEM1333     0.0000
     34  C1D       54.4560   45.0090   95.9420 C.ar  1333  HEM1333     0.0000
     35  C2D       53.2200   45.6470   96.2800 C.ar  1333  HEM1333     0.0000
     36  C3D       53.1670   45.5930   97.7880 C.ar  1333  HEM1333     0.0000
     37  C4D       54.3560   44.8950   98.2280 C.ar  1333  HEM1333     0.0000
     38  CMD       52.1510   46.3020   95.3810 C.3   1333  HEM1333     0.0000
     39  CAD       52.0100   46.1200   98.6410 C.3   1333  HEM1333     0.0000
     40  CBD       50.9340   45.0390   98.5330 C.3   1333  HEM1333     0.0000
     41  CGD       49.6640   45.4930   99.2160 C.2   1333  HEM1333     0.0000
     42  O1D       49.4330   46.7080   99.4900 O.co2 1333  HEM1333     0.0000
     43  O2D       48.8240   44.6430   99.5040 O.co2 1333  HEM1333     0.0000
@<TRIPOS>BOND
     1    32    31    2
     2    30    27    1
     3    31    28    1
     4    27    28    2
     5    27    26    1
     6    28    29    1
     7    26     4    2
     8    26    25    1
     9    29     5    1
    10    29    25    2
    11     4    21    1
    12     5    34    2
    13    25     1    1
    14    38    35    1
    15    23    24    2
    16    23    20    1
    17    34    35   ar
    18    34    33   ar
    19    21    20   ar
    20    21    17   ar
    21    35    36   ar
    22    20    19   ar
    23    17     1    1
    24    17    18   ar
    25     1    33    1
    26     1     6    1
    27    33    37   ar
    28    36    37   ar
    29    36    39    1
    30    19    18   ar
    31    19    22    1
    32    18     3    1
    33    37     2    2
    34    40    39    1
    35    40    41    1
    36     6    10    1
    37     6     7    2
    38    41    42   ar
    39    41    43   ar
    40     3    10    2
    41     2     7    1
    42    10     9    1
    43     7     8    1
    44     9     8    2
    45     9    11    1
    46     8    12    1
    47    12    13    1
    48    13    14    1
    49    15    14   ar
    50    14    16   ar
