@<TRIPOS>MOLECULE
2wjm_MPG_L_1.pdb
 25 24 0 0 0
SMALL
GASTEIGER

@<TRIPOS>ATOM
      1  C2        34.2630   18.4870   18.7840 C.3   1278  MPG1278     0.0474
      2  C3        34.5750   19.8300   19.4210 C.3   1278  MPG1278     0.0038
      3  C4        36.0560   20.1800   19.3240 C.3   1278  MPG1278     0.0001
      4  C5        36.6480   20.4920   20.6910 C.3   1278  MPG1278     0.0000
      5  C6        36.2180   21.8750   21.1350 C.3   1278  MPG1278     0.0003
      6  C7        36.6980   22.2340   22.5350 C.3   1278  MPG1278     0.0047
      7  C8        37.6970   23.3840   22.4950 C.3   1278  MPG1278     0.0257
      8  C9        37.0010   24.7320   22.4970 C.2   1278  MPG1278    -0.0307
      9  C10       37.7490   25.8110   22.7050 C.2   1278  MPG1278    -0.0307
     10  C11       37.1480   27.2010   22.7460 C.3   1278  MPG1278     0.0257
     11  C12       38.0000   28.0800   23.6830 C.3   1278  MPG1278     0.0047
     12  C13       37.2690   28.4760   24.9720 C.3   1278  MPG1278     0.0003
     13  C14       36.8830   27.2630   25.8140 C.3   1278  MPG1278     0.0000
     14  C15       37.3410   27.3230   27.2670 C.3   1278  MPG1278     0.0000
     15  C16       36.3660   26.5600   28.1570 C.3   1278  MPG1278     0.0000
     16  C17       36.2690   25.0490   27.8760 C.3   1278  MPG1278     0.0000
     17  C18       34.8400   24.5460   27.7930 C.3   1278  MPG1278     0.0000
     18  O1        34.6670   16.1760   19.2270 O.3   1278  MPG1278    -0.4467
     19  C1        34.4170   17.4330   19.8530 C.3   1278  MPG1278     0.2085
     20  O11       36.5760   15.2710   18.3530 O.2   1278  MPG1278    -0.2472
     21  CXD       36.5840   15.2690   20.7570 C.3   1278  MPG1278     0.2822
     22  O2        36.9630   13.8770   20.8510 O.3   1278  MPG1278    -0.2082
     23  C21       35.6760   15.6200   21.9590 C.3   1278  MPG1278     0.2264
     24  O3        35.9390   16.9350   22.4980 O.3   1278  MPG1278    -0.2169
     25  CX3       35.9740   15.5530   19.3870 C.2   1278  MPG1278     0.3505
@<TRIPOS>BOND
     1    20    25    2
     2     1     2    1
     3     1    19    1
     4    18    25    1
     5    18    19    1
     6     3     2    1
     7     3     4    1
     8    25    21    1
     9     4     5    1
    10    21    22    1
    11    21    23    1
    12     5     6    1
    13    23    24    1
    14     7     8    1
    15     7     6    1
    16     8     9    2
    17     9    10    1
    18    10    11    1
    19    11    12    1
    20    12    13    1
    21    13    14    1
    22    14    15    1
    23    17    16    1
    24    16    15    1
