@<TRIPOS>MOLECULE
2wjm_NS5_M_1.pdb
 40 39 0 0 0
SMALL
GASTEIGER

@<TRIPOS>ATOM
      1  C1        24.9310   66.7240   44.2900 C.3   1329  NS51329     0.0000
      2  CM1       24.6360   67.4730   45.5960 C.3   1329  NS51329     0.0000
      3  CM2       26.3610   67.0020   43.8200 C.3   1329  NS51329     0.0000
      4  C2        24.6390   65.2250   44.4670 C.3   1329  NS51329     0.0003
      5  C3        24.6080   64.4110   43.1610 C.3   1329  NS51329     0.0043
      6  C4        25.9770   63.8300   42.7780 C.3   1329  NS51329     0.0220
      7  C5        25.8760   62.3610   42.4210 C.2   1329  NS51329    -0.0439
      8  C6        24.8290   61.9800   41.4200 C.3   1329  NS51329     0.0264
      9  C7        26.6990   61.4730   43.0330 C.2   1329  NS51329    -0.0085
     10  C8        26.7250   60.0380   42.7290 C.2   1329  NS51329    -0.0010
     11  C9        27.7210   59.2600   43.1970 C.2   1329  NS51329    -0.0043
     12  C10       27.8080   57.8170   42.8550 C.2   1329  NS51329    -0.0218
     13  C11       26.7540   57.2200   41.9650 C.3   1329  NS51329     0.0310
     14  C12       28.8210   57.0720   43.3570 C.2   1329  NS51329    -0.0043
     15  C13       29.0310   55.6390   43.0560 C.2   1329  NS51329    -0.0006
     16  C14       30.1900   55.0880   43.4590 C.2   1329  NS51329    -0.0043
     17  C15       30.5990   53.6890   43.1520 C.2   1329  NS51329    -0.0218
     18  C16       29.4860   52.7650   42.7470 C.3   1329  NS51329     0.0310
     19  C17       31.8940   53.2830   43.2350 C.2   1329  NS51329    -0.0043
     20  C18       32.2780   51.9190   42.8700 C.2   1329  NS51329    -0.0003
     21  C19       33.4850   51.3360   42.7010 C.2   1329  NS51329    -0.0003
     22  C20       34.7700   51.9210   42.8140 C.2   1329  NS51329    -0.0043
     23  C21       35.9450   51.3260   42.4980 C.2   1329  NS51329    -0.0218
     24  C22       36.1500   49.9300   42.0160 C.3   1329  NS51329     0.0310
     25  C23       37.1250   52.1860   42.5890 C.2   1329  NS51329    -0.0043
     26  C24       38.2970   51.8510   42.0670 C.2   1329  NS51329    -0.0010
     27  C25       39.3690   52.8340   42.1610 C.2   1329  NS51329    -0.0085
     28  C26       40.5930   52.5980   41.6810 C.2   1329  NS51329    -0.0436
     29  C27       40.9930   51.3290   40.9890 C.3   1329  NS51329     0.0264
     30  C28       41.6360   53.6680   41.7780 C.3   1329  NS51329     0.0267
     31  C29       41.3150   54.8080   40.8170 C.3   1329  NS51329     0.0297
     32  C30       41.1950   54.4170   39.3550 C.2   1329  NS51329    -0.0343
     33  C31       42.1750   53.8190   38.6150 C.2   1329  NS51329    -0.0482
     34  C32       43.5190   53.4250   39.1740 C.3   1329  NS51329     0.0260
     35  C33       41.9100   53.5390   37.1470 C.3   1329  NS51329     0.0217
     36  C34       43.2040   53.7100   36.3390 C.3   1329  NS51329     0.0043
     37  C35       42.9500   53.9350   34.8400 C.3   1329  NS51329     0.0003
     38  C36       43.8050   53.0670   33.8960 C.3   1329  NS51329     0.0000
     39  CM3       43.9470   53.7280   32.5230 C.3   1329  NS51329     0.0000
     40  CM4       45.2000   52.7540   34.4410 C.3   1329  NS51329     0.0000
@<TRIPOS>BOND
     1    39    38    1
     2    38    40    1
     3    38    37    1
     4    37    36    1
     5    36    35    1
     6    35    33    1
     7    33    34    1
     8    33    32    2
     9    32    31    1
    10    31    30    1
    11    29    28    1
    12     8     7    1
    13    28    30    1
    14    28    27    2
    15    13    12    1
    16    24    23    1
    17    26    27    1
    18    26    25    2
    19     7     6    1
    20     7     9    2
    21    23    25    1
    22    23    22    2
    23    21    22    1
    24    21    20    2
    25    10     9    1
    26    10    11    2
    27    18    17    1
    28     6     5    1
    29    12    11    1
    30    12    14    2
    31    20    19    1
    32    15    14    1
    33    15    16    2
    34    17    19    2
    35    17    16    1
    36     5     4    1
    37     3     1    1
    38     1     4    1
    39     1     2    1
