@<TRIPOS>MOLECULE
2wjm_MQ7_M_1.pdb
 48 49 0 0 0
SMALL
GASTEIGER

@<TRIPOS>ATOM
      1  C1        21.2520   28.6440   21.0160 C.2   1328  MQ71328     0.1915
      2  O1        22.3850   29.1660   21.0000 O.2   1328  MQ71328    -0.2869
      3  C2        20.6920   28.1650   22.2960 C.2   1328  MQ71328     0.0165
      4  C2M       21.5080   28.2950   23.5480 C.3   1328  MQ71328     0.0342
      5  C3        19.3250   27.5890   22.3230 C.2   1328  MQ71328     0.0202
      6  C4        18.5130   27.4610   21.0770 C.2   1328  MQ71328     0.1918
      7  O4        17.3630   26.9400   21.1060 O.2   1328  MQ71328    -0.2869
      8  C5        19.0880   27.9350   19.7930 C.ar  1328  MQ71328     0.0417
      9  C6        18.3720   27.8470   18.6060 C.ar  1328  MQ71328     0.0033
     10  C7        18.9220   28.3310   17.4230 C.ar  1328  MQ71328     0.0001
     11  C8        20.1930   28.8720   17.3890 C.ar  1328  MQ71328     0.0001
     12  C9        20.9460   28.9900   18.5550 C.ar  1328  MQ71328     0.0033
     13  C10       20.4480   28.5250   19.7630 C.ar  1328  MQ71328     0.0417
     14  C11       18.7480   27.1120   23.6320 C.3   1328  MQ71328     0.0547
     15  C12       18.2190   28.3060   24.4230 C.2   1328  MQ71328    -0.0298
     16  C13       16.9440   28.5190   24.7560 C.2   1328  MQ71328    -0.0475
     17  C14       15.8430   27.5920   24.3590 C.3   1328  MQ71328     0.0260
     18  C15       16.5670   29.7490   25.5560 C.3   1328  MQ71328     0.0264
     19  C16       16.0540   29.3610   26.9500 C.3   1328  MQ71328     0.0297
     20  C17       17.0740   28.5630   27.7360 C.2   1328  MQ71328    -0.0342
     21  C18       17.4780   28.9020   28.9780 C.2   1328  MQ71328    -0.0478
     22  C19       16.9520   30.1240   29.6880 C.3   1328  MQ71328     0.0260
     23  C20       18.5150   28.0570   29.6670 C.3   1328  MQ71328     0.0263
     24  C21       17.9360   27.2830   30.8520 C.3   1328  MQ71328     0.0297
     25  C22       17.0760   26.1300   30.3760 C.2   1328  MQ71328    -0.0342
     26  C23       16.1360   25.5600   31.1600 C.2   1328  MQ71328    -0.0478
     27  C24       15.8940   26.0980   32.5540 C.3   1328  MQ71328     0.0260
     28  C25       15.3050   24.3900   30.6400 C.3   1328  MQ71328     0.0263
     29  C26       15.5310   23.1460   31.5050 C.3   1328  MQ71328     0.0297
     30  C27       14.8150   21.8880   31.0100 C.2   1328  MQ71328    -0.0342
     31  C28       15.3060   20.6550   31.2010 C.2   1328  MQ71328    -0.0478
     32  C29       16.6090   20.4130   31.8990 C.3   1328  MQ71328     0.0260
     33  C30       14.5530   19.4400   30.6480 C.3   1328  MQ71328     0.0263
     34  C31       13.8330   18.6030   31.7020 C.3   1328  MQ71328     0.0297
     35  C32       13.2880   17.3900   30.9520 C.2   1328  MQ71328    -0.0342
     36  C33       13.5960   16.1310   31.2700 C.2   1328  MQ71328    -0.0478
     37  C34       14.4780   15.8130   32.4270 C.3   1328  MQ71328     0.0260
     38  C35       13.0020   15.0020   30.4380 C.3   1328  MQ71328     0.0263
     39  C36       13.9930   14.4660   29.4090 C.3   1328  MQ71328     0.0297
     40  C37       13.3470   13.3250   28.6250 C.2   1328  MQ71328    -0.0342
     41  C38       13.9870   12.1700   28.3250 C.2   1328  MQ71328    -0.0478
     42  C39       15.4050   11.9270   28.7200 C.3   1328  MQ71328     0.0260
     43  C40       13.2540   11.0930   27.5520 C.3   1328  MQ71328     0.0263
     44  C41       12.0540   10.5590   28.3510 C.3   1328  MQ71328     0.0297
     45  C42       10.8270   11.4440   28.1330 C.2   1328  MQ71328    -0.0342
     46  C43        9.9290   11.7300   29.1100 C.2   1328  MQ71328    -0.0478
     47  C44        8.7640   12.6280   28.7650 C.3   1328  MQ71328     0.0260
     48  C45       10.0560   11.1980   30.5150 C.3   1328  MQ71328     0.0260
@<TRIPOS>BOND
     1    11    10   ar
     2    11    12   ar
     3    10     9   ar
     4    12    13   ar
     5     9     8   ar
     6    13     8   ar
     7    13     1    1
     8     8     6    1
     9     2     1    2
    10     1     3    1
    11     6     7    2
    12     6     5    1
    13     3     5    2
    14     3     4    1
    15     5    14    1
    16    14    15    1
    17    17    16    1
    18    15    16    2
    19    16    18    1
    20    18    19    1
    21    19    20    1
    22    43    41    1
    23    43    44    1
    24    20    21    2
    25    45    44    1
    26    45    46    2
    27    41    40    2
    28    41    42    1
    29    40    39    1
    30    47    46    1
    31    21    23    1
    32    21    22    1
    33    46    48    1
    34    39    38    1
    35    23    24    1
    36    25    24    1
    37    25    26    2
    38    38    36    1
    39    28    26    1
    40    28    29    1
    41    33    31    1
    42    33    34    1
    43    35    36    2
    44    35    34    1
    45    30    31    2
    46    30    29    1
    47    26    27    1
    48    31    32    1
    49    36    37    1
