@<TRIPOS>MOLECULE
2wjn_NS5_M_1.pdb
 40 39 0 0 0
SMALL
GASTEIGER

@<TRIPOS>ATOM
      1  C1        17.3360    2.8080   44.5120 C.3   1329  NS51329     0.0000
      2  CM1       17.7340    2.1520   45.8380 C.3   1329  NS51329     0.0000
      3  CM2       15.8360    2.6310   44.2450 C.3   1329  NS51329     0.0000
      4  C2        17.7760    4.2780   44.4840 C.3   1329  NS51329     0.0003
      5  C3        17.6320    4.9780   43.1150 C.3   1329  NS51329     0.0043
      6  C4        16.2150    5.5130   42.8420 C.3   1329  NS51329     0.0220
      7  C5        16.2220    6.9900   42.5150 C.2   1329  NS51329    -0.0439
      8  C6        17.1430    7.5030   41.4410 C.3   1329  NS51329     0.0264
      9  C7        15.4260    7.8090   43.2350 C.2   1329  NS51329    -0.0085
     10  C8        15.3420    9.2280   42.9320 C.2   1329  NS51329    -0.0010
     11  C9        14.3640    9.9680   43.4540 C.2   1329  NS51329    -0.0043
     12  C10       14.2530   11.3860   43.0680 C.2   1329  NS51329    -0.0218
     13  C11       15.2540   11.9870   42.1230 C.3   1329  NS51329     0.0310
     14  C12       13.2390   12.1200   43.5640 C.2   1329  NS51329    -0.0043
     15  C13       13.0320   13.5290   43.2010 C.2   1329  NS51329    -0.0006
     16  C14       11.8970   14.1110   43.6160 C.2   1329  NS51329    -0.0043
     17  C15       11.5350   15.4980   43.2370 C.2   1329  NS51329    -0.0218
     18  C16       12.7280   16.3110   42.8020 C.3   1329  NS51329     0.0310
     19  C17       10.2340   15.9100   43.3060 C.2   1329  NS51329    -0.0043
     20  C18        9.8300   17.2320   42.8920 C.2   1329  NS51329    -0.0003
     21  C19        8.6440   17.8400   42.7080 C.2   1329  NS51329    -0.0003
     22  C20        7.3240   17.3770   42.8600 C.2   1329  NS51329    -0.0043
     23  C21        6.1610   18.0400   42.6370 C.2   1329  NS51329    -0.0218
     24  C22        5.8980   19.4350   42.2080 C.3   1329  NS51329     0.0310
     25  C23        4.9650   17.2230   42.7890 C.2   1329  NS51329    -0.0043
     26  C24        3.8310   17.5800   42.1720 C.2   1329  NS51329    -0.0010
     27  C25        2.6910   16.6650   42.2420 C.2   1329  NS51329    -0.0085
     28  C26        1.5530   16.8920   41.5630 C.2   1329  NS51329    -0.0436
     29  C27        1.2970   18.0960   40.6930 C.3   1329  NS51329     0.0264
     30  C28        0.4410   15.8820   41.6320 C.3   1329  NS51329     0.0267
     31  C29        0.7080   14.7500   40.6510 C.3   1329  NS51329     0.0297
     32  C30        0.5630   15.1120   39.1790 C.2   1329  NS51329    -0.0343
     33  C31       -0.5700   15.5620   38.5760 C.2   1329  NS51329    -0.0482
     34  C32       -1.8590   15.8100   39.3120 C.3   1329  NS51329     0.0260
     35  C33       -0.5490   15.8300   37.0830 C.3   1329  NS51329     0.0217
     36  C34       -1.6500   14.9980   36.4280 C.3   1329  NS51329     0.0043
     37  C35       -1.5550   15.0110   34.9010 C.3   1329  NS51329     0.0003
     38  C36       -2.9520   14.8730   34.2780 C.3   1329  NS51329     0.0000
     39  CM3       -2.9090   14.9570   32.7440 C.3   1329  NS51329     0.0000
     40  CM4       -3.6530   13.6020   34.7810 C.3   1329  NS51329     0.0000
@<TRIPOS>BOND
     1    39    38    1
     2    38    40    1
     3    38    37    1
     4    37    36    1
     5    36    35    1
     6    35    33    1
     7    33    32    2
     8    33    34    1
     9    32    31    1
    10    31    30    1
    11    29    28    1
    12     8     7    1
    13    28    30    1
    14    28    27    2
    15    13    12    1
    16    26    27    1
    17    26    25    2
    18    24    23    1
    19     7     6    1
    20     7     9    2
    21    23    25    1
    22    23    22    2
    23    21    22    1
    24    21    20    2
    25    18    17    1
    26     6     5    1
    27    20    19    1
    28    10     9    1
    29    10    11    2
    30    12    11    1
    31    12    14    2
    32     5     4    1
    33    15    14    1
    34    15    16    2
    35    17    19    2
    36    17    16    1
    37     3     1    1
    38     4     1    1
    39     1     2    1
