@<TRIPOS>MOLECULE
2wjn_HEM_C_1.pdb
 43 50 0 0 0
SMALL
GASTEIGER

@<TRIPOS>ATOM
      1 FE        -14.7850   26.3700   97.2860 Fe    1333  HEM1333     0.0000
      2  CHA      -12.8720   24.8500   99.7490 C.2   1333  HEM1333     0.0000
      3  CHB      -16.5890   27.9500   99.6980 C.2   1333  HEM1333     0.0000
      4  CHC      -16.6580   28.0390   94.8050 C.2   1333  HEM1333     0.0000
      5  CHD      -13.1930   24.6650   94.9000 C.2   1333  HEM1333     0.0000
      6  NA       -14.6810   26.4080   99.3830 N.2   1333  HEM1333     0.0000
      7  C1A      -13.9280   25.6050  100.1730 C.2   1333  HEM1333     0.0000
      8  C2A      -14.4240   25.7600  101.5580 C.2   1333  HEM1333     0.0000
      9  C3A      -15.4490   26.6310  101.5340 C.2   1333  HEM1333     0.0000
     10  C4A      -15.6350   27.0720  100.1560 C.2   1333  HEM1333     0.0000
     11  CMA      -16.2940   27.1060  102.7960 C.3   1333  HEM1333     0.0000
     12  CAA      -13.8270   25.0540  102.7780 C.3   1333  HEM1333     0.0000
     13  CBA      -14.7830   23.9810  103.2660 C.3   1333  HEM1333     0.0000
     14  CGA      -14.1700   23.1170  104.2950 C.2   1333  HEM1333     0.0000
     15  O1A      -13.1280   22.4680  103.9990 O.co2 1333  HEM1333     0.0000
     16  O2A      -14.7340   23.0560  105.4550 O.co2 1333  HEM1333     0.0000
     17  NB       -16.3400   27.7320   97.2390 N.ar  1333  HEM1333     0.0000
     18  C1B      -16.9070   28.2660   98.4020 C.ar  1333  HEM1333     0.0000
     19  C2B      -17.8730   29.2530   97.9730 C.ar  1333  HEM1333     0.0000
     20  C3B      -17.8960   29.2690   96.6160 C.ar  1333  HEM1333     0.0000
     21  C4B      -16.9360   28.3180   96.1390 C.ar  1333  HEM1333     0.0000
     22  CMB      -18.7670   30.1210   98.9120 C.3   1333  HEM1333     0.0000
     23  CAB      -18.7150   30.1260   95.6370 C.3   1333  HEM1333     0.0000
     24  CBB      -18.6410   31.4510   95.8480 C.3   1333  HEM1333     0.0000
     25  NC       -14.9190   26.4100   95.2100 N.2   1333  HEM1333     0.0000
     26  C1C      -15.7850   27.0660   94.4040 C.2   1333  HEM1333     0.0000
     27  C2C      -15.5390   26.6220   93.0230 C.2   1333  HEM1333     0.0000
     28  C3C      -14.5690   25.6910   93.0630 C.2   1333  HEM1333     0.0000
     29  C4C      -14.1570   25.5290   94.4600 C.2   1333  HEM1333     0.0000
     30  CMC      -16.3640   27.1340   91.8550 C.3   1333  HEM1333     0.0000
     31  CAC      -13.9580   24.8620   91.8540 C.3   1333  HEM1333     0.0000
     32  CBC      -13.5000   25.6440   90.8420 C.3   1333  HEM1333     0.0000
     33  ND       -13.2970   24.9440   97.3520 N.ar  1333  HEM1333     0.0000
     34  C1D      -12.6740   24.4970   96.1590 C.ar  1333  HEM1333     0.0000
     35  C2D      -11.4450   23.8180   96.4830 C.ar  1333  HEM1333     0.0000
     36  C3D      -11.3390   23.8720   98.0000 C.ar  1333  HEM1333     0.0000
     37  C4D      -12.5260   24.5890   98.4470 C.ar  1333  HEM1333     0.0000
     38  CMD      -10.4300   23.1370   95.5400 C.3   1333  HEM1333     0.0000
     39  CAD      -10.1980   23.3330   98.8790 C.3   1333  HEM1333     0.0000
     40  CBD       -9.1310   24.4310   98.7910 C.3   1333  HEM1333     0.0000
     41  CGD       -7.8480   23.9940   99.4530 C.2   1333  HEM1333     0.0000
     42  O1D       -7.6500   22.8060   99.6600 O.co2 1333  HEM1333     0.0000
     43  O2D       -7.0250   24.8610   99.7280 O.co2 1333  HEM1333     0.0000
@<TRIPOS>BOND
     1    32    31    1
     2    31    28    1
     3    30    27    1
     4    27    28    2
     5    27    26    1
     6    28    29    1
     7    26     4    2
     8    26    25    1
     9    29     5    1
    10    29    25    2
    11     4    21    1
    12     5    34    2
    13    25     1    1
    14    38    35    1
    15    23    24    1
    16    23    20    1
    17    21    20   ar
    18    21    17   ar
    19    34    35   ar
    20    34    33   ar
    21    35    36   ar
    22    20    19   ar
    23    17     1    1
    24    17    18   ar
    25     1    33    1
    26     1     6    1
    27    33    37   ar
    28    19    18   ar
    29    19    22    1
    30    36    37   ar
    31    36    39    1
    32    18     3    1
    33    37     2    2
    34    40    39    1
    35    40    41    1
    36     6    10    1
    37     6     7    2
    38    41    42   ar
    39    41    43   ar
    40     3    10    2
    41     2     7    1
    42    10     9    1
    43     7     8    1
    44     9     8    2
    45     9    11    1
    46     8    12    1
    47    12    13    1
    48    13    14    1
    49    15    14   ar
    50    14    16   ar
