@<TRIPOS>MOLECULE
2wjn_MPG_L_1.pdb
 21 20 0 0 0
SMALL
GASTEIGER

@<TRIPOS>ATOM
      1  C2         5.4320   48.4110   20.7020 C.3   1277  MPG1277     0.0474
      2  C3         5.9180   47.2910   21.6500 C.3   1277  MPG1277     0.0038
      3  C4         4.8830   46.2980   22.2340 C.3   1277  MPG1277     0.0001
      4  C5         5.3720   44.8220   22.1390 C.3   1277  MPG1277     0.0000
      5  C6         4.5080   43.8060   22.9060 C.3   1277  MPG1277     0.0003
      6  C7         5.1200   42.3920   22.9690 C.3   1277  MPG1277     0.0047
      7  C8         4.5930   41.4830   24.1100 C.3   1277  MPG1277     0.0257
      8  C9         5.4020   41.6690   25.3920 C.2   1277  MPG1277    -0.0307
      9  C10        4.8470   42.0630   26.5550 C.2   1277  MPG1277    -0.0307
     10  C11        5.7010   42.2770   27.8020 C.3   1277  MPG1277     0.0257
     11  C12        5.7450   43.7640   28.2170 C.3   1277  MPG1277     0.0047
     12  C13        7.0250   44.5250   27.8580 C.3   1277  MPG1277     0.0003
     13  C14        6.9660   45.8910   28.5170 C.3   1277  MPG1277     0.0000
     14  O1         6.8960   50.3770   20.0550 O.3   1277  MPG1277    -0.4467
     15  C1         6.5490   48.9940   19.8030 C.3   1277  MPG1277     0.2085
     16  O11        8.6880   50.9040   18.5600 O.2   1277  MPG1277    -0.2472
     17  CXD        7.2730   52.7400   18.9150 C.3   1277  MPG1277     0.2822
     18  O2         7.8710   53.4750   17.8290 O.3   1277  MPG1277    -0.2082
     19  C21        6.4410   53.5250   19.9200 C.3   1277  MPG1277     0.2264
     20  O3         5.6750   54.4540   19.1370 O.3   1277  MPG1277    -0.2169
     21  CX3        7.6750   51.2650   19.1540 C.2   1277  MPG1277     0.3505
@<TRIPOS>BOND
     1    18    17    1
     2    16    21    2
     3    17    21    1
     4    17    19    1
     5    20    19    1
     6    21    14    1
     7    15    14    1
     8    15     1    1
     9     1     2    1
    10     2     3    1
    11     4     3    1
    12     4     5    1
    13     5     6    1
    14     6     7    1
    15     7     8    1
    16     8     9    2
    17     9    10    1
    18    10    11    1
    19    12    11    1
    20    12    13    1
