@<TRIPOS>MOLECULE
2wjn_MQ7_M_1.pdb
 48 49 0 0 0
SMALL
GASTEIGER

@<TRIPOS>ATOM
      1  C1        20.8690   40.7660   21.0000 C.2   1328  MQ71328     0.1915
      2  O1        19.7130   40.2400   20.9610 O.2   1328  MQ71328    -0.2869
      3  C2        21.4290   41.2490   22.2990 C.2   1328  MQ71328     0.0165
      4  C2M       20.5680   41.1190   23.5410 C.3   1328  MQ71328     0.0342
      5  C3        22.8130   41.8060   22.3410 C.2   1328  MQ71328     0.0202
      6  C4        23.6280   41.9540   21.1020 C.2   1328  MQ71328     0.1918
      7  O4        24.7860   42.4970   21.1250 O.2   1328  MQ71328    -0.2869
      8  C5        23.0540   41.4900   19.8170 C.ar  1328  MQ71328     0.0417
      9  C6        23.8110   41.5730   18.6180 C.ar  1328  MQ71328     0.0033
     10  C7        23.2600   41.1390   17.4260 C.ar  1328  MQ71328     0.0001
     11  C8        21.9840   40.5470   17.3720 C.ar  1328  MQ71328     0.0001
     12  C9        21.2120   40.4330   18.5250 C.ar  1328  MQ71328     0.0033
     13  C10       21.6950   40.8830   19.7620 C.ar  1328  MQ71328     0.0417
     14  C11       23.4160   42.2710   23.6500 C.3   1328  MQ71328     0.0547
     15  C12       24.0010   41.0780   24.3930 C.2   1328  MQ71328    -0.0298
     16  C13       25.2670   40.9300   24.8310 C.2   1328  MQ71328    -0.0475
     17  C14       26.3350   41.9590   24.5820 C.3   1328  MQ71328     0.0260
     18  C15       25.6650   39.7050   25.5890 C.3   1328  MQ71328     0.0264
     19  C16       26.1450   40.0790   26.9960 C.3   1328  MQ71328     0.0297
     20  C17       25.1430   40.8580   27.8010 C.2   1328  MQ71328    -0.0342
     21  C18       24.7370   40.5200   29.0470 C.2   1328  MQ71328    -0.0478
     22  C19       25.2260   39.2970   29.7720 C.3   1328  MQ71328     0.0260
     23  C20       23.6870   41.3770   29.6970 C.3   1328  MQ71328     0.0263
     24  C21       24.1760   42.1750   30.8990 C.3   1328  MQ71328     0.0297
     25  C22       25.1120   43.2960   30.5150 C.2   1328  MQ71328    -0.0342
     26  C23       26.0300   43.8710   31.3410 C.2   1328  MQ71328    -0.0478
     27  C24       26.2480   43.4380   32.7720 C.3   1328  MQ71328     0.0260
     28  C25       26.8800   45.0270   30.8120 C.3   1328  MQ71328     0.0263
     29  C26       26.4900   46.3080   31.5280 C.3   1328  MQ71328     0.0297
     30  C27       27.2590   47.5230   31.0280 C.2   1328  MQ71328    -0.0342
     31  C28       26.7890   48.7690   31.2670 C.2   1328  MQ71328    -0.0478
     32  C29       25.5540   49.0210   32.0570 C.3   1328  MQ71328     0.0260
     33  C30       27.5550   49.9680   30.7170 C.3   1328  MQ71328     0.0263
     34  C31       28.2200   50.8330   31.7860 C.3   1328  MQ71328     0.0297
     35  C32       28.8590   52.0020   31.0490 C.2   1328  MQ71328    -0.0342
     36  C33       28.5800   53.2980   31.3180 C.2   1328  MQ71328    -0.0478
     37  C34       27.6250   53.7390   32.3930 C.3   1328  MQ71328     0.0260
     38  C35       29.2640   54.3550   30.4670 C.3   1328  MQ71328     0.0263
     39  C36       28.2620   55.0180   29.5010 C.3   1328  MQ71328     0.0297
     40  C37       28.9380   56.1720   28.7600 C.2   1328  MQ71328    -0.0342
     41  C38       28.3020   57.3270   28.4270 C.2   1328  MQ71328    -0.0478
     42  C39       26.8780   57.5790   28.7650 C.3   1328  MQ71328     0.0260
     43  C40       29.0910   58.4110   27.7190 C.3   1328  MQ71328     0.0263
     44  C41       30.1300   58.9370   28.7200 C.3   1328  MQ71328     0.0297
     45  C42       31.4150   58.1380   28.6260 C.2   1328  MQ71328    -0.0342
     46  C43       32.2780   57.9050   29.6400 C.2   1328  MQ71328    -0.0478
     47  C44       33.4880   57.0630   29.3010 C.3   1328  MQ71328     0.0260
     48  C45       32.0950   58.4170   31.0390 C.3   1328  MQ71328     0.0260
@<TRIPOS>BOND
     1    11    10   ar
     2    11    12   ar
     3    10     9   ar
     4    12    13   ar
     5     9     8   ar
     6    13     8   ar
     7    13     1    1
     8     8     6    1
     9     2     1    2
    10     1     3    1
    11     6     7    2
    12     6     5    1
    13     3     5    2
    14     3     4    1
    15     5    14    1
    16    14    15    1
    17    15    16    2
    18    17    16    1
    19    16    18    1
    20    18    19    1
    21    19    20    1
    22    43    41    1
    23    43    44    1
    24    20    21    2
    25    41    40    2
    26    41    42    1
    27    45    44    1
    28    45    46    2
    29    40    39    1
    30    21    23    1
    31    21    22    1
    32    47    46    1
    33    39    38    1
    34    46    48    1
    35    23    24    1
    36    38    36    1
    37    25    24    1
    38    25    26    2
    39    33    31    1
    40    33    34    1
    41    28    26    1
    42    28    29    1
    43    30    31    2
    44    30    29    1
    45    35    36    2
    46    35    34    1
    47    31    32    1
    48    36    37    1
    49    26    27    1
