@<TRIPOS>MOLECULE
2wjo_QUD_A_1.pdb
 35 39 0 0 0
SMALL
GASTEIGER

@<TRIPOS>ATOM
      1  C1        31.4560   39.3630   44.7980 C.ar  1389  QUD1389     0.0002
      2  C2        32.3460   39.7550   43.9990 C.ar  1389  QUD1389     0.0031
      3  C3        29.8270   39.4670   44.6570 C.ar  1389  QUD1389     0.0031
      4  C4        26.7600   40.7170   39.8710 C.ar  1389  QUD1389     0.0353
      5  C5        31.9700   40.3760   42.8250 C.ar  1389  QUD1389     0.0375
      6  C6        29.4610   40.1150   43.4950 C.ar  1389  QUD1389     0.0375
      7  C7        28.0410   40.6860   40.1910 C.ar  1389  QUD1389     0.0401
      8  C8        27.7710   42.2260   41.9310 C.ar  1389  QUD1389     0.0413
      9  C9        26.2870   42.3060   41.6280 C.ar  1389  QUD1389     0.0477
     10  C10       25.8710   41.5100   40.5980 C.ar  1389  QUD1389     0.1359
     11  C11       30.4430   40.5590   42.5770 C.ar  1389  QUD1389     0.1453
     12  C12       28.6650   41.3850   41.1300 C.ar  1389  QUD1389     0.1455
     13  C13       23.4600   42.1000   40.9190 C.cat 1389  QUD1389     0.2817
     14  C14       24.8410   40.7230   44.3220 C.2   1389  QUD1389     0.2409
     15  C15       25.3280   43.1110   42.3530 C.2   1389  QUD1389     0.0711
     16  C16       26.1910   36.6200   43.0130 C.3   1389  QUD1389     0.0000
     17  C17       22.0560   47.4490   43.1060 C.3   1389  QUD1389     0.0000
     18  C18       24.9430   37.2510   42.3050 C.3   1389  QUD1389     0.0005
     19  C19       26.1990   36.9080   44.4980 C.3   1389  QUD1389     0.0005
     20  C20       22.7270   47.0370   41.8360 C.3   1389  QUD1389     0.0001
     21  C21       22.7310   46.9570   44.3680 C.3   1389  QUD1389     0.0001
     22  C22       24.6330   38.7640   42.7180 C.3   1389  QUD1389     0.0091
     23  C23       26.0520   38.4700   44.6500 C.3   1389  QUD1389     0.0091
     24  C24       22.5840   45.5790   41.7010 C.3   1389  QUD1389     0.0017
     25  C25       22.5380   45.4380   44.4560 C.3   1389  QUD1389     0.0017
     26  C26       24.6530   39.1010   44.1410 C.3   1389  QUD1389     0.0782
     27  C27       22.9490   44.8980   43.0590 C.3   1389  QUD1389     0.0204
     28  C28       23.3710   42.8100   44.3320 C.3   1389  QUD1389     0.1352
     29  C29       22.8600   43.2970   42.9710 C.3   1389  QUD1389     0.1024
     30  N30       23.8530   42.9050   41.9250 N.pl3 1389  QUD1389    -0.2468
     31  N31       24.5580   41.4160   40.2750 N.2   1389  QUD1389    -0.3703
     32  N32       22.1100   41.9370   40.5460 N.pl3 1389  QUD1389    -0.0777
     33  N33       23.6690   41.4180   44.2450 N.am  1389  QUD1389    -0.2037
     34  O34       25.9880   41.2500   44.5190 O.2   1389  QUD1389    -0.2734
     35  O35       30.1620   41.2460   41.2910 O.3   1389  QUD1389    -0.4535
@<TRIPOS>BOND
     1     4     7   ar
     2     4    10   ar
     3     7    12   ar
     4    31    10    2
     5    31    13    2
     6    32    13    1
     7    10     9   ar
     8    13    30    1
     9    12    35    1
    10    12     8   ar
    11    35    11    1
    12     9     8   ar
    13     9    15    2
    14    24    20    1
    15    24    27    1
    16    20    17    1
    17    30    15    1
    18    30    29    1
    19    18    22    1
    20    18    16    1
    21    11     5   ar
    22    11     6   ar
    23    22    26    1
    24     5     2   ar
    25    29    27    1
    26    29    28    1
    27    16    19    1
    28    27    25    1
    29    17    21    1
    30     6     3   ar
    31     2     1   ar
    32    26    14    1
    33    26    23    1
    34    33    14   am
    35    33    28    1
    36    14    34    2
    37    21    25    1
    38    19    23    1
    39     3     1   ar
