@<TRIPOS>MOLECULE
2wjp_D17_A_1.pdb
 34 36 0 0 0
SMALL
GASTEIGER

@<TRIPOS>ATOM
      1  OE1        0.3660   38.2380  116.8750 O.co2 1441  D171441    -0.2457
      2  CD         1.1810   38.3080  115.9500 C.2   1441  D171441     0.3649
      3  OE2        1.3870   37.4920  114.9960 O.co2 1441  D171441    -0.2457
      4  CG         1.8200   39.7090  115.9090 C.3   1441  D171441     0.1164
      5  CB         3.2450   39.7140  115.4540 C.3   1441  D171441     0.0451
      6  CA         4.1180   40.4510  116.4640 C.3   1441  D171441     0.1986
      7  C          5.5490   40.2530  116.0860 C.2   1441  D171441     0.3842
      8  OXT        5.7350   39.7860  114.9350 O.co2 1441  D171441    -0.2437
      9  O          6.2810   40.1270  117.0820 O.co2 1441  D171441    -0.2437
     10  N          3.7930   41.8490  116.8240 N.am  1441  D171441    -0.1918
     11  CAU        4.4710   42.9510  116.5140 C.2   1441  D171441     0.2652
     12  OBC        5.2750   43.0770  115.5950 O.2   1441  D171441    -0.2684
     13  CAT        4.0290   44.1760  117.3050 C.ar  1441  D171441     0.0548
     14  CAQ        2.8050   44.1640  117.9710 C.ar  1441  D171441     0.0020
     15  CAS        4.8620   45.2910  117.3230 C.ar  1441  D171441     0.0045
     16  CAR        4.4500   46.3960  118.0550 C.ar  1441  D171441    -0.0001
     17  CAP        3.2480   46.3690  118.7510 C.ar  1441  D171441    -0.0026
     18  CAO        2.4020   45.2690  118.7100 C.ar  1441  D171441    -0.0005
     19  CAN        1.1160   45.2040  119.5430 C.3   1441  D171441     0.1385
     20  NAY        0.4190   46.5110  119.5530 N.pl3 1441  D171441    -0.2328
     21  CAA       -0.0290   47.1100  118.4380 C.ar  1441  D171441     0.0657
     22  CAC        0.0060   46.4720  117.1930 C.ar  1441  D171441     0.0161
     23  CAE       -0.4150   47.1430  116.0410 C.ar  1441  D171441     0.0014
     24  CAB       -0.5630   48.4010  118.5280 C.ar  1441  D171441     0.0161
     25  CAG       -1.0410   49.0380  117.3780 C.ar  1441  D171441     0.0014
     26  CAF       -0.9000   48.4530  116.1190 C.ar  1441  D171441     0.0014
     27  CAH       -1.2810   49.1120  114.9400 C.2   1441  D171441     0.0199
     28  CAI       -1.3770   50.4740  114.7180 C.2   1441  D171441     0.1340
     29  SBG       -1.2300   51.7530  115.8670 S.3   1441  D171441    -0.0013
     30  CAL       -1.5270   53.0250  114.7180 C.1   1441  D171441     0.0848
     31  SBH       -1.5870   54.6210  115.0660 S.2   1441  D171441     0.0320
     32  NAX       -1.7100   52.4990  113.4920 N.2   1441  D171441    -0.2824
     33  CAK       -1.6170   51.0910  113.4580 C.1   1441  D171441     0.2198
     34  OBE       -1.7410   50.5020  112.3910 O.2   1441  D171441    -0.2081
@<TRIPOS>BOND
     1    34    33    2
     2    33    32    2
     3    33    28    1
     4    32    30    2
     5    30    31    2
     6    30    29    1
     7    28    27    2
     8    28    29    1
     9     8     7   ar
    10    27    26    1
    11     3     2   ar
    12     5     4    1
    13     5     6    1
    14    12    11    2
    15     4     2    1
    16     2     1   ar
    17    23    26   ar
    18    23    22   ar
    19     7     6    1
    20     7     9   ar
    21    26    25   ar
    22     6    10    1
    23    11    10   am
    24    11    13    1
    25    22    21   ar
    26    13    15   ar
    27    13    14   ar
    28    15    16   ar
    29    25    24   ar
    30    14    18   ar
    31    16    17   ar
    32    21    24   ar
    33    21    20    1
    34    18    17   ar
    35    18    19    1
    36    19    20    1
