@<TRIPOS>MOLECULE
2wju_GSH_A_1.pdb
 20 19 0 0 0
SMALL
GASTEIGER

@<TRIPOS>ATOM
      1  N1        -8.6070    1.0200    0.3900 N.3   230  GSH230     -0.1208
      2  CA1       -9.1310    1.4140   -0.9080 C.3   230  GSH230      0.1948
      3  C1        -8.8140    0.3630   -1.9430 C.2   230  GSH230      0.3819
      4  O11       -7.6810    0.3270   -2.4770 O.co2 230  GSH230     -0.2441
      5  O12       -9.6600   -0.4850   -2.2940 O.co2 230  GSH230     -0.2441
      6  CB1      -10.6340    1.6700   -0.7940 C.3   230  GSH230      0.0402
      7  CG1      -11.1030    2.6020   -1.9010 C.3   230  GSH230      0.0889
      8  CD1      -12.1940    3.5300   -1.4280 C.2   230  GSH230      0.2418
      9  OE1      -11.8870    4.6700   -0.6560 O.2   230  GSH230     -0.2733
     10  N2       -13.4230    3.1950   -1.8140 N.am  230  GSH230     -0.1968
     11  CA2      -14.4910    4.1520   -2.0560 C.3   230  GSH230      0.1843
     12  C2       -15.8230    3.5760   -1.6540 C.2   230  GSH230      0.2627
     13  O2       -16.2180    2.3030   -2.1210 O.2   230  GSH230     -0.2714
     14  CB2      -14.5630    4.6240   -3.5140 C.3   230  GSH230      0.0997
     15  SG2      -13.1490    4.2390   -4.5870 S.3   230  GSH230     -0.0797
     16  N3       -16.5770    4.3300   -0.8520 N.am  230  GSH230     -0.1917
     17  CA3      -17.5970    3.7770    0.0250 C.3   230  GSH230      0.2285
     18  C3       -17.1400    3.7630    1.4650 C.2   230  GSH230      0.3865
     19  O31      -15.9360    3.5910    1.7570 O.co2 230  GSH230     -0.2437
     20  O32      -17.9600    3.9280    2.3910 O.co2 230  GSH230     -0.2437
@<TRIPOS>BOND
     1    15    14    1
     2    14    11    1
     3     4     3   ar
     4     5     3   ar
     5    13    12    2
     6    11    10    1
     7    11    12    1
     8     3     2    1
     9     7     8    1
    10     7     6    1
    11    10     8   am
    12    12    16   am
    13     8     9    2
    14     2     6    1
    15     2     1    1
    16    16    17    1
    17    17    18    1
    18    18    19   ar
    19    18    20   ar
