@<TRIPOS>MOLECULE
2wk0_BIY_A_1.pdb
 13 13 0 0 0
SMALL
GASTEIGER

@<TRIPOS>ATOM
      1  O14       26.2620  -11.0240  -17.6330 O.2   300  BIY300     -0.2826
      2  C12       25.4480  -11.6960  -18.2440 C.2   300  BIY300      0.2416
      3  C3        25.9270  -12.6080  -19.2850 C.2   300  BIY300      0.0836
      4  C2        25.2800  -13.4030  -19.9880 C.2   300  BIY300      0.0901
      5  N1        25.1510  -14.2930  -20.8080 N.pl3 300  BIY300     -0.2251
      6  S4        27.5630  -12.7090  -19.6170 S.3   300  BIY300     -0.1086
      7  C5        27.5800  -14.3860  -20.2330 C.3   300  BIY300      0.0723
      8  C11       27.3550  -15.4160  -19.1150 C.3   300  BIY300      0.0135
      9  C10       29.0090  -14.5890  -20.7250 C.3   300  BIY300      0.0135
     10  C6        26.5050  -14.5940  -21.3260 C.3   300  BIY300      0.2042
     11  C7        26.8090  -13.7820  -22.5770 C.2   300  BIY300      0.3849
     12  O9        27.5990  -14.2430  -23.4280 O.co2 300  BIY300     -0.2437
     13  O8        26.2470  -12.6790  -22.7390 O.co2 300  BIY300     -0.2437
@<TRIPOS>BOND
     1    12    11   ar
     2    13    11   ar
     3    11    10    1
     4    10     5    1
     5    10     7    1
     6     5     4    1
     7     9     7    1
     8     7     6    1
     9     7     8    1
    10     4     3    2
    11     6     3    1
    12     3     2    1
    13     2     1    2
