@<TRIPOS>MOLECULE
2wk1_SAH_A_1.pdb
 26 28 0 0 0
SMALL
GASTEIGER

@<TRIPOS>ATOM
      1  N          5.3920   40.7990   17.4880 N.3   301  SAH301     -0.1208
      2  CA         4.9190   41.9860   18.2790 C.3   301  SAH301      0.1952
      3  CB         5.1030   43.2670   17.4630 C.3   301  SAH301      0.0422
      4  CG         6.5580   43.6040   17.1680 C.3   301  SAH301      0.0597
      5  SD         6.7930   45.3720   16.9410 S.3   301  SAH301     -0.1375
      6  C          3.5230   41.7600   18.7890 C.2   301  SAH301      0.3819
      7  O          2.8120   42.7240   19.0970 O.co2 301  SAH301     -0.2441
      8  OXT        3.1410   40.6140   18.9840 O.co2 301  SAH301     -0.2441
      9  C5'        8.4670   45.4230   16.2740 C.3   301  SAH301      0.0899
     10  C4'        9.5320   45.0230   17.3190 C.3   301  SAH301      0.1630
     11  O4'       10.7740   44.7620   16.6200 O.3   301  SAH301     -0.3153
     12  C3'        9.8120   46.0740   18.3930 C.3   301  SAH301      0.2168
     13  O3'        9.6500   45.5440   19.7210 O.3   301  SAH301     -0.2175
     14  C2'       11.2710   46.4860   18.0990 C.3   301  SAH301      0.2569
     15  O2'       12.0390   46.8540   19.2460 O.3   301  SAH301     -0.2130
     16  C1'       11.8560   45.2390   17.4270 C.3   301  SAH301      0.3185
     17  N9        12.9660   45.4370   16.4920 N.pl3 301  SAH301     -0.1439
     18  C8        12.8370   45.8280   15.1980 C.3   301  SAH301      0.3377
     19  N7        14.0350   45.7860   14.5650 N.2   301  SAH301     -0.2095
     20  C5        14.9350   45.3340   15.4730 C.2   301  SAH301      0.2526
     21  C6        16.3390   45.0080   15.4480 C.2   301  SAH301      0.4393
     22  N6        17.0430   45.1860   14.3430 N.pl3 301  SAH301      0.2180
     23  N1        16.8960   44.5290   16.5660 N.2   301  SAH301      0.0021
     24  C2        16.1790   44.3050   17.6820 C.3   301  SAH301      0.5254
     25  N3        14.8750   44.5780   17.8000 N.2   301  SAH301     -0.0055
     26  C4        14.2350   45.0620   16.7150 C.2   301  SAH301      0.3518
@<TRIPOS>BOND
     1    22    21    1
     2    19    18    1
     3    19    20    2
     4    18    17    1
     5    21    20    1
     6    21    23    2
     7    20    26    1
     8     9     5    1
     9     9    10    1
    10    17    26    1
    11    17    16    1
    12    23    24    1
    13    11    10    1
    14    11    16    1
    15    26    25    2
    16     5     4    1
    17     4     3    1
    18    10    12    1
    19    16    14    1
    20     3     2    1
    21     1     2    1
    22    24    25    1
    23    14    12    1
    24    14    15    1
    25     2     6    1
    26    12    13    1
    27     6     8   ar
    28     6     7   ar
