@<TRIPOS>MOLECULE
2wk2_NGT_A_1.pdb
 14 15 0 0 0
SMALL
GASTEIGER

@<TRIPOS>ATOM
      1  C1        28.2890   74.3190    1.0010 C.3   1565  NGT1565     0.1925
      2  C2        28.4460   72.8370    0.6480 C.3   1565  NGT1565     0.1740
      3  C3        28.9850   72.7700   -0.7920 C.3   1565  NGT1565     0.2101
      4  C4        28.2870   73.7220   -1.7880 C.3   1565  NGT1565     0.2137
      5  C5        28.3990   75.1170   -1.2050 C.3   1565  NGT1565     0.1820
      6  C6        27.7450   76.2120   -2.0320 C.3   1565  NGT1565     0.2142
      7  C7        30.2080   73.3120    2.0510 C.2   1565  NGT1565     0.0815
      8  C8        31.4220   72.9230    2.8430 C.3   1565  NGT1565     0.0587
      9  N2        29.5650   72.4250    1.4440 N.2   1565  NGT1565    -0.2643
     10  S1        29.6760   74.8640    1.9240 S.3   1565  NGT1565    -0.0689
     11  O3        29.0960   71.4670   -1.3190 O.3   1565  NGT1565    -0.2181
     12  O4        28.8710   73.7140   -3.0960 O.3   1565  NGT1565    -0.2176
     13  O5        27.7560   75.1610    0.0260 O.3   1565  NGT1565    -0.3400
     14  O6        26.3750   76.2360   -1.7990 O.3   1565  NGT1565    -0.2176
@<TRIPOS>BOND
     1    12     4    1
     2     6    14    1
     3     6     5    1
     4     4     5    1
     5     4     3    1
     6    11     3    1
     7     5    13    1
     8     3     2    1
     9    13     1    1
    10     2     1    1
    11     2     9    1
    12     1    10    1
    13     9     7    2
    14    10     7    1
    15     7     8    1
