@<TRIPOS>MOLECULE
2wk2_SN5_A_1.pdb
 14 14 0 0 0
SMALL
GASTEIGER

@<TRIPOS>ATOM
      1  C1        31.0410   70.9600   -8.3340 C.3   1563  SN51563     0.1664
      2  S7        31.0550   67.0220   -7.9370 S.2   1563  SN51563    -0.0379
      3  C2        31.7290   69.7200   -8.8990 C.3   1563  SN51563     0.1550
      4  C3        32.7480   70.0580   -9.9580 C.3   1563  SN51563     0.2068
      5  C4        32.1040   70.9180  -11.0170 C.3   1563  SN51563     0.2134
      6  C5        31.4970   72.1640  -10.4140 C.3   1563  SN51563     0.1809
      7  C6        30.8210   72.9410  -11.5340 C.3   1563  SN51563     0.2141
      8  C7        32.1710   67.8890   -7.3400 C.2   1563  SN51563     0.0788
      9  C8        32.9790   67.3350   -6.1920 C.3   1563  SN51563     0.0566
     10  N2        32.4630   69.1100   -7.7970 N.am  1563  SN51563    -0.2315
     11  O3        33.2780   68.9070  -10.5590 O.3   1563  SN51563    -0.2184
     12  O4        32.9970   71.2470  -12.0700 O.3   1563  SN51563    -0.2176
     13  O5        30.5900   71.7970   -9.3870 O.3   1563  SN51563    -0.3489
     14  O6        30.3420   74.2460  -11.1680 O.3   1563  SN51563    -0.2176
@<TRIPOS>BOND
     1    12     5    1
     2     7    14    1
     3     7     6    1
     4     5     6    1
     5     5     4    1
     6    11     4    1
     7     6    13    1
     8     4     3    1
     9    13     1    1
    10     3     1    1
    11     3    10    1
    12     2     8    2
    13    10     8    1
    14     8     9    1
