@<TRIPOS>MOLECULE
2wk3_III_C_1.pdb
 22 21 0 0 0
SMALL
GASTEIGER

@<TRIPOS>ATOM
      1  N       -108.1950   64.5600   -9.7520 N.3     1  ASP1       -0.1225
      2  CA      -108.3390   65.8870   -9.0660 C.3     1  ASP1        0.1805
      3  C       -107.6930   67.1950   -9.6740 C.2     1  ASP1        0.2598
      4  O       -106.8910   67.1340  -10.6380 O.2     1  ASP1       -0.2718
      5  CB      -108.0580   65.7910   -7.5330 C.3     1  ASP1        0.1424
      6  CG      -106.7350   65.0310   -7.1810 C.2     1  ASP1        0.3668
      7  OD1     -105.7330   65.0790   -7.9440 O.co2   1  ASP1       -0.2456
      8  OD2     -106.7130   64.3780   -6.0990 O.co2   1  ASP1       -0.2456
      9  N       -108.1220   68.3410   -9.0860 N.am    2  ALA2       -0.1966
     10  CA      -107.5290   69.6820   -9.2700 C.3     2  ALA2        0.1728
     11  C       -106.0660   69.7560   -8.7430 C.2     2  ALA2        0.2616
     12  O       -105.7540   69.2400   -7.6730 O.2     2  ALA2       -0.2715
     13  CB      -108.4470   70.8230   -8.6400 C.3     2  ALA2        0.0334
     14  N       -105.1720   70.3750   -9.5200 N.am    3  GLU3       -0.1977
     15  CA      -103.7260   70.4510   -9.1800 C.3     3  GLU3        0.1602
     16  C       -103.4320   71.0510   -7.7800 C.2     3  GLU3        0.2287
     17  O       -103.8830   72.1680   -7.4800 O.2     3  GLU3       -0.2864
     18  CB      -102.9810   71.2580  -10.2580 C.3     3  GLU3        0.0415
     19  CG      -101.6260   70.6530  -10.7060 C.3     3  GLU3        0.1163
     20  CD      -100.6180   70.2840   -9.5590 C.2     3  GLU3        0.3649
     21  OE1     -100.5390   70.9740   -8.5120 O.co2   3  GLU3       -0.2457
     22  OE2      -99.8720   69.2880   -9.7310 O.co2   3  GLU3       -0.2457
@<TRIPOS>BOND
     1    19    18    1
     2    19    20    1
     3     4     3    2
     4    18    15    1
     5     1     2    1
     6    22    20   ar
     7     3     9   am
     8     3     2    1
     9    20    21   ar
    10    14    15    1
    11    14    11   am
    12    10     9    1
    13    10    11    1
    14    10    13    1
    15    15    16    1
    16     2     5    1
    17    11    12    2
    18     7     6   ar
    19    16    17    2
    20     5     6    1
    21     6     8   ar
