@<TRIPOS>MOLECULE
2wk8_PLP_A_1.pdb
 16 16 0 0 0
SMALL
GASTEIGER

@<TRIPOS>ATOM
      1  N1        61.4220   59.7200   -4.9710 N.ar  600  PLP600     -0.2452
      2  C2        61.9580   58.8890   -5.9320 C.ar  600  PLP600      0.0982
      3  C2A       61.4500   58.9440   -7.3460 C.3   600  PLP600      0.0555
      4  C3        62.9510   57.9850   -5.5720 C.ar  600  PLP600      0.2120
      5  O3        63.5000   57.1480   -6.4870 O.3   600  PLP600     -0.2852
      6  C4        63.4290   57.9240   -4.2710 C.ar  600  PLP600      0.0822
      7  C4A       64.4230   56.8340   -3.9880 C.2   600  PLP600      0.2372
      8  O4A       65.2770   56.9380   -3.1160 O.2   600  PLP600     -0.2830
      9  C5        62.8800   58.7720   -3.2970 C.ar  600  PLP600      0.0333
     10  C6        61.8840   59.6720   -3.6730 C.ar  600  PLP600      0.0969
     11  C5A       63.3300   58.7730   -1.8560 C.3   600  PLP600      0.1819
     12  O4P       64.4860   59.5740   -1.6840 O.3   600  PLP600     -0.2653
     13  P         65.3140   59.5520   -0.2910 P.3   600  PLP600      0.5329
     14  O1P       66.2570   58.4000   -0.2860 O.2   600  PLP600     -0.2224
     15  O2P       64.3350   59.3910    0.8500 O.3   600  PLP600     -0.1145
     16  O3P       66.0560   60.8510   -0.1760 O.3   600  PLP600     -0.1145
@<TRIPOS>BOND
     1     3     2    1
     2     5     4    1
     3     2     4   ar
     4     2     1   ar
     5     4     6   ar
     6     1    10   ar
     7     6     7    1
     8     6     9   ar
     9     7     8    2
    10    10     9   ar
    11     9    11    1
    12    11    12    1
    13    12    13    1
    14    13    14    2
    15    13    16    1
    16    13    15    1
