@<TRIPOS>MOLECULE
2wk9_PLP_A_1.pdb
 16 16 0 0 0
SMALL
GASTEIGER

@<TRIPOS>ATOM
      1  N1        61.4510   59.5440   -5.0470 N.ar  600  PLP600     -0.2452
      2  C2        62.0290   58.6840   -5.9600 C.ar  600  PLP600      0.0982
      3  C2A       61.5930   58.7060   -7.4030 C.3   600  PLP600      0.0555
      4  C3        63.0060   57.7980   -5.5230 C.ar  600  PLP600      0.2120
      5  O3        63.5860   56.9410   -6.4150 O.3   600  PLP600     -0.2852
      6  C4        63.4110   57.7820   -4.1870 C.ar  600  PLP600      0.0822
      7  C4A       64.6500   57.0110   -3.8230 C.2   600  PLP600      0.2372
      8  O4A       64.6200   55.7850   -3.7030 O.2   600  PLP600     -0.2830
      9  C5        62.8110   58.6380   -3.2670 C.ar  600  PLP600      0.0333
     10  C6        61.8360   59.5260   -3.7140 C.ar  600  PLP600      0.0969
     11  C5A       63.2210   58.6470   -1.8050 C.3   600  PLP600      0.1819
     12  O4P       64.4030   59.4030   -1.6220 O.3   600  PLP600     -0.2653
     13  P         65.2780   59.3170   -0.2670 P.3   600  PLP600      0.5329
     14  O1P       66.2160   58.1460   -0.3780 O.2   600  PLP600     -0.2224
     15  O2P       64.3060   59.0970    0.8790 O.3   600  PLP600     -0.1145
     16  O3P       66.0360   60.6040   -0.1030 O.3   600  PLP600     -0.1145
@<TRIPOS>BOND
     1     3     2    1
     2     5     4    1
     3     2     4   ar
     4     2     1   ar
     5     4     6   ar
     6     1    10   ar
     7     6     7    1
     8     6     9   ar
     9     7     8    2
    10    10     9   ar
    11     9    11    1
    12    11    12    1
    13    12    13    1
    14    14    13    2
    15    13    16    1
    16    13    15    1
