@<TRIPOS>MOLECULE
2wk9_PLG_B_1.pdb
 20 20 0 0 0
SMALL
GASTEIGER

@<TRIPOS>ATOM
      1  N1        61.1870   58.7830   19.9780 N.ar  600  PLG600     -0.2452
      2  C2        61.0130   59.7640   20.8790 C.ar  600  PLG600      0.0978
      3  C2A       60.6230   59.4190   22.3190 C.3   600  PLG600      0.0555
      4  C3        61.1770   61.0980   20.5100 C.ar  600  PLG600      0.2062
      5  O3        60.9900   62.0840   21.4260 O.3   600  PLG600     -0.2856
      6  C4        61.5310   61.4190   19.2070 C.ar  600  PLG600      0.0353
      7  C4A       61.7180   62.8600   18.7030 C.3   600  PLG600      0.1186
      8  C5        61.6990   60.3730   18.3150 C.ar  600  PLG600      0.0275
      9  C6        61.5300   59.0570   18.7290 C.ar  600  PLG600      0.0965
     10  C5A       62.0850   60.6880   16.8700 C.3   600  PLG600      0.1816
     11  OP4       63.4970   60.8680   16.8140 O.3   600  PLG600     -0.2653
     12  P         64.2290   61.4510   15.4800 P.3   600  PLG600      0.5329
     13  OP1       64.0810   63.0460   15.6640 O.3   600  PLG600     -0.1145
     14  OP2       63.3840   61.0160   14.1950 O.2   600  PLG600     -0.2224
     15  OP3       65.6520   61.0410   15.4160 O.3   600  PLG600     -0.1145
     16  C         61.7430   66.0970   20.5870 C.2   600  PLG600      0.3823
     17  O         61.5960   65.5260   21.6900 O.co2 600  PLG600     -0.2440
     18  OXT       61.8780   67.3240   20.4090 O.co2 600  PLG600     -0.2440
     19  CA        61.7570   65.1990   19.3460 C.3   600  PLG600      0.2032
     20  N         61.6810   63.8080   19.8170 N.3   600  PLG600     -0.2017
@<TRIPOS>BOND
     1    14    12    2
     2    15    12    1
     3    12    13    1
     4    12    11    1
     5    11    10    1
     6    10     8    1
     7     8     9   ar
     8     8     6   ar
     9     7     6    1
    10     7    20    1
    11     9     1   ar
    12     6     4   ar
    13    19    20    1
    14    19    16    1
    15     1     2   ar
    16    18    16   ar
    17     4     2   ar
    18     4     5    1
    19    16    17   ar
    20     2     3    1
