@<TRIPOS>MOLECULE
2wka_P89_A_1.pdb
 28 28 0 0 0
SMALL
GASTEIGER

@<TRIPOS>ATOM
      1  CAA       64.3340   44.8500    0.0170 C.3   605  P89605      0.0000
      2  CAD       64.9680   45.5390   -1.2030 C.3   605  P89605      0.0000
      3  CAE       63.8890   46.1140   -2.1270 C.3   605  P89605      0.0000
      4  CAF       64.4610   46.5050   -3.5050 C.3   605  P89605      0.0000
      5  CAG       65.4340   47.6950   -3.4460 C.3   605  P89605      0.0000
      6  CAH       64.6910   49.0430   -3.3880 C.3   605  P89605      0.0000
      7  CAI       65.6580   50.2370   -3.3540 C.3   605  P89605      0.0004
      8  CAJ       64.8970   51.5760   -3.3560 C.3   605  P89605      0.0078
      9  CAK       65.8420   52.7780   -3.2100 C.3   605  P89605      0.0666
     10  CAL       65.0410   54.0670   -3.4330 C.2   605  P89605      0.1751
     11  OAC       63.8340   54.0080   -3.6530 O.2   605  P89605     -0.2940
     12  CA        65.6540   55.4520   -3.4120 C.3   605  P89605      0.1894
     13  N4A       64.6790   56.3220   -3.6700 N.2   605  P89605     -0.2608
     14  C4A       64.8010   57.6210   -3.6500 C.2   605  P89605      0.0966
     15  C4        63.7250   58.4280   -4.0180 C.ar  605  P89605      0.0587
     16  C3        63.3520   58.4340   -5.3560 C.ar  605  P89605      0.2103
     17  O3        64.0110   57.6390   -6.2310 O.3   605  P89605     -0.2853
     18  C2        62.3220   59.2580   -5.7890 C.ar  605  P89605      0.0981
     19  C2A       61.8830   59.2550   -7.2550 C.3   605  P89605      0.0555
     20  N1        61.6860   60.0420   -4.9040 N.ar  605  P89605     -0.2452
     21  C6        62.0270   60.0450   -3.6260 C.ar  605  P89605      0.0968
     22  C5        63.0570   59.2500   -3.1310 C.ar  605  P89605      0.0316
     23  C5A       63.3790   59.3330   -1.6500 C.3   605  P89605      0.1819
     24  OP4       64.4830   60.1690   -1.4520 O.3   605  P89605     -0.2653
     25  P         65.4560   59.9610   -0.1780 P.3   605  P89605      0.5329
     26  OP2       64.5260   59.8000    1.1110 O.3   605  P89605     -0.1145
     27  OP3       66.2030   61.3720   -0.0510 O.3   605  P89605     -0.1145
     28  OP1       66.3170   58.7650   -0.3530 O.2   605  P89605     -0.2224
@<TRIPOS>BOND
     1    19    18    1
     2    17    16    1
     3    18    16   ar
     4    18    20   ar
     5    16    15   ar
     6    20    21   ar
     7    15    14    1
     8    15    22   ar
     9    13    14    2
    10    13    12    1
    11    11    10    2
    12    21    22   ar
    13     4     5    1
    14     4     3    1
    15     5     6    1
    16    10    12    1
    17    10     9    1
    18     6     7    1
    19     8     7    1
    20     8     9    1
    21    22    23    1
    22     3     2    1
    23    23    24    1
    24    24    25    1
    25     2     1    1
    26    28    25    2
    27    25    27    1
    28    25    26    1
