@<TRIPOS>MOLECULE
2wke_BIY_A_1.pdb
 13 13 0 0 0
SMALL
GASTEIGER

@<TRIPOS>ATOM
      1  O14       -2.1040   -2.6450   35.9420 O.2   500  BIY500     -0.2873
      2  C12       -1.1050   -2.2690   36.5220 C.2   500  BIY500      0.2192
      3  C3        -1.2040   -0.9400   37.1420 C.3   500  BIY500      0.1296
      4  C2        -0.1800   -0.2060   37.5370 C.3   500  BIY500      0.1079
      5  N1         0.0320    0.6710   38.6640 N.3   500  BIY500     -0.2063
      6  S4        -2.7000   -0.1990   37.2890 S.3   500  BIY500     -0.1315
      7  C5        -2.4230    0.6750   38.8240 C.3   500  BIY500      0.0649
      8  C11       -2.2890   -0.3100   39.9830 C.3   500  BIY500      0.0128
      9  C10       -3.6400    1.5320   39.1320 C.3   500  BIY500      0.0128
     10  C6        -1.1760    1.5530   38.6580 C.3   500  BIY500      0.1849
     11  C7        -1.4020    2.3980   37.4180 C.2   500  BIY500      0.3811
     12  O9        -2.2250    3.3470   37.5130 O.co2 500  BIY500     -0.2441
     13  O8        -0.8110    2.1450   36.3350 O.co2 500  BIY500     -0.2441
@<TRIPOS>BOND
     1     1     2    2
     2    13    11   ar
     3     2     3    1
     4     3     6    1
     5     3     4    1
     6     6     7    1
     7    11    12   ar
     8    11    10    1
     9     4     5    1
    10    10     5    1
    11    10     7    1
    12     7     9    1
    13     7     8    1
