@<TRIPOS>MOLECULE
2wkh_ZZ7_A_1.pdb
 24 25 0 0 0
SMALL
GASTEIGER

@<TRIPOS>ATOM
      1  O1         1.5430   11.8280   64.1600 O.co2 1265  ZZ71265    -0.2441
      2  C2         0.6400   12.7050   64.0790 C.2   1265  ZZ71265     0.3811
      3  O2        -0.5690   12.4140   63.9140 O.co2 1265  ZZ71265    -0.2441
      4  C12        1.0410   14.1620   64.1380 C.3   1265  ZZ71265     0.1857
      5  C6         0.6170   14.9390   65.3920 C.3   1265  ZZ71265     0.0658
      6  C1         0.8070   14.1290   66.6710 C.3   1265  ZZ71265     0.0129
      7  C16       -0.8250   15.4050   65.3510 C.3   1265  ZZ71265     0.0129
      8  S1         1.6990   16.3370   65.4160 S.3   1265  ZZ71265    -0.1212
      9  N3         2.4860   14.3000   64.0750 N.3   1265  ZZ71265    -0.1957
     10  C13        3.0570   15.4100   64.8130 C.3   1265  ZZ71265     0.1479
     11  C14        3.9600   16.2100   63.8880 C.3   1265  ZZ71265     0.1856
     12  C15        4.8750   15.1500   63.3220 C.2   1265  ZZ71265     0.2311
     13  O4         4.5310   14.4640   62.3450 O.2   1265  ZZ71265    -0.2863
     14  N1         3.1250   16.7820   62.8440 N.am  1265  ZZ71265    -0.1953
     15  C3         3.1420   18.0810   62.6020 C.2   1265  ZZ71265     0.2635
     16  O3         3.9130   18.7970   63.2080 O.2   1265  ZZ71265    -0.2714
     17  C4         2.1920   18.6770   61.6160 C.3   1265  ZZ71265     0.1915
     18  N2         2.5990   20.0610   61.4210 N.3   1265  ZZ71265    -0.1182
     19  C5         0.8460   18.5260   62.2260 C.ar  1265  ZZ71265     0.0038
     20  C7        -0.1370   17.7840   61.5850 C.ar  1265  ZZ71265    -0.0024
     21  C8        -1.3850   17.6270   62.1820 C.ar  1265  ZZ71265    -0.0003
     22  C9        -1.6660   18.2000   63.4220 C.ar  1265  ZZ71265    -0.0000
     23  C10       -0.6810   18.9320   64.0730 C.ar  1265  ZZ71265    -0.0003
     24  C11        0.5720   19.0840   63.4740 C.ar  1265  ZZ71265    -0.0024
@<TRIPOS>BOND
     1    18    17    1
     2    20    21   ar
     3    20    19   ar
     4    17    19    1
     5    17    15    1
     6    21    22   ar
     7    19    24   ar
     8    13    12    2
     9    15    14   am
    10    15    16    2
    11    14    11    1
    12    12    11    1
    13    22    23   ar
    14    24    23   ar
    15    11    10    1
    16     3     2   ar
    17     9     4    1
    18     9    10    1
    19     2     4    1
    20     2     1   ar
    21     4     5    1
    22    10     8    1
    23     7     5    1
    24     5     8    1
    25     5     6    1
