@<TRIPOS>MOLECULE
2wkk_FUC_A_1.pdb
 10 10 0 0 0
SMALL
GASTEIGER

@<TRIPOS>ATOM
      1  C1       -18.6790   -2.3050   10.4100 C.3   1151  FUC1151     0.3021
      2  C2       -17.5020   -2.3990   11.3700 C.3   1151  FUC1151     0.2409
      3  C3       -17.8210   -3.4120   12.4600 C.3   1151  FUC1151     0.1898
      4  C4       -18.0820   -4.7990   11.8950 C.3   1151  FUC1151     0.0653
      5  C5       -19.2290   -4.6230   10.8810 C.3   1151  FUC1151     0.1206
      6  C6       -19.6210   -5.9160   10.1570 C.3   1151  FUC1151     0.0322
      7  O1       -19.8560   -1.8870   11.1100 O.3   1151  FUC1151    -0.1869
      8  O2       -17.2450   -1.1230   11.9690 O.3   1151  FUC1151    -0.2149
      9  O3       -16.7300   -3.5210   13.3980 O.3   1151  FUC1151    -0.2201
     10  O5       -18.9220   -3.6150    9.8710 O.3   1151  FUC1151    -0.3290
@<TRIPOS>BOND
     1    10     1    1
     2    10     5    1
     3     6     5    1
     4     1     7    1
     5     1     2    1
     6     5     4    1
     7     2     8    1
     8     2     3    1
     9     4     3    1
    10     3     9    1
