@<TRIPOS>MOLECULE
2wkk_GAL_A_1.pdb
 12 12 0 0 0
SMALL
GASTEIGER

@<TRIPOS>ATOM
      1  C1       -16.6600   -6.6080   11.3070 C.3   1152  GAL1152     0.3024
      2  C2       -15.5070   -7.0840   10.4050 C.3   1152  GAL1152     0.2434
      3  C3       -15.2320   -8.5480   10.6600 C.3   1152  GAL1152     0.2199
      4  C4       -14.8840   -8.6940   12.1350 C.3   1152  GAL1152     0.2144
      5  C5       -16.0560   -8.1940   12.9850 C.3   1152  GAL1152     0.1836
      6  C6       -15.7930   -8.3450   14.4600 C.3   1152  GAL1152     0.2142
      7  O1       -16.8920   -5.2050   11.1970 O.3   1152  GAL1152    -0.1869
      8  O2       -15.8490   -6.7940    9.0390 O.3   1152  GAL1152    -0.2148
      9  O3       -14.0760   -8.9200    9.8970 O.3   1152  GAL1152    -0.2174
     10  O4       -13.6720   -7.9870   12.4800 O.3   1152  GAL1152    -0.2176
     11  O5       -16.3220   -6.8010   12.6940 O.3   1152  GAL1152    -0.3236
     12  O6       -16.9070   -7.8460   15.2190 O.3   1152  GAL1152    -0.2176
@<TRIPOS>BOND
     1     8     2    1
     2     9     3    1
     3     2     3    1
     4     2     1    1
     5     3     4    1
     6     7     1    1
     7     1    11    1
     8     4    10    1
     9     4     5    1
    10    11     5    1
    11     5     6    1
    12     6    12    1
