@<TRIPOS>MOLECULE
2wkm_PFY_A_1.pdb
 43 48 0 0 0
SMALL
GASTEIGER

@<TRIPOS>ATOM
      1  O31       15.3360   11.0650   -1.1070 O.2   2345  PFY2345    -0.2698
      2  C30       14.5460   11.4520   -0.2550 C.2   2345  PFY2345     0.2509
      3  N38       13.4930   12.2610   -0.6220 N.am  2345  PFY2345    -0.2763
      4  C39       13.1810   12.6990   -1.9900 C.3   2345  PFY2345     0.0916
      5  C43       14.3140   13.3220   -2.8210 C.3   2345  PFY2345     0.0921
      6  N33       15.1850   12.2710   -3.4170 N.3   2345  PFY2345    -0.2713
      7  C34       16.1460   12.7750   -4.4060 C.3   2345  PFY2345     0.0722
      8  C35       16.7160   11.5340   -5.1140 C.3   2345  PFY2345     0.0188
      9  C36       15.6120   10.4740   -4.9560 C.3   2345  PFY2345     0.0188
     10  C37       14.5100   11.2000   -4.1790 C.3   2345  PFY2345     0.0722
     11  C40       11.9630   13.6210   -1.8830 C.3   2345  PFY2345     0.0230
     12  C41       12.0090   14.1120   -0.4370 C.3   2345  PFY2345     0.0233
     13  C42       12.5040   12.8690    0.2860 C.3   2345  PFY2345     0.0938
     14  C23       14.8120   10.9760    1.1320 C.2   2345  PFY2345     0.0774
     15  C24       15.9450   11.2580    1.9720 C.2   2345  PFY2345     0.0143
     16  C29       17.1500   12.1330    1.6380 C.3   2345  PFY2345     0.0339
     17  C22       13.9780   10.1320    1.8660 C.2   2345  PFY2345     0.1135
     18  C28       12.6590    9.5440    1.4190 C.3   2345  PFY2345     0.0665
     19  N26       14.5320    9.8990    3.0830 N.2   2345  PFY2345    -0.4064
     20  C25       15.7250   10.5710    3.1720 C.2   2345  PFY2345     0.1280
     21  C         16.6390   10.5670    4.3490 C.2   2345  PFY2345     0.0444
     22  C21       16.4510    9.8950    5.5930 C.2   2345  PFY2345     0.0995
     23  C20       15.3350    9.0280    6.0800 C.1   2345  PFY2345     0.2048
     24  O32       14.3120    8.7160    5.4620 O.2   2345  PFY2345    -0.2093
     25  N19       15.6290    8.6170    7.3690 N.2   2345  PFY2345    -0.3329
     26  C18       16.8530    9.1320    7.7780 C.2   2345  PFY2345     0.1446
     27  C9        17.5470    8.9580    9.0160 C.2   2345  PFY2345     0.0305
     28  C8        18.8190    9.5930    9.1760 C.2   2345  PFY2345     0.0040
     29  C17       17.3980    9.9160    6.7390 C.2   2345  PFY2345     0.0402
     30  C10       18.6580   10.5590    6.8940 C.2   2345  PFY2345     0.0047
     31  C7        19.3960   10.3960    8.1270 C.3   2345  PFY2345     0.1736
     32  S11       20.9930   11.1410    8.3430 S.O2  2345  PFY2345     0.0003
     33  O12       21.4290   10.9010    9.7100 O.2   2345  PFY2345    -0.1721
     34  O13       20.8780   12.5490    8.0130 O.2   2345  PFY2345    -0.1721
     35  C14       22.2000   10.3250    7.2310 C.3   2345  PFY2345     0.1795
     36  C1        21.8100   10.3850    5.7280 C.ar  2345  PFY2345     0.0225
     37  C6        21.1460    9.2610    5.1060 C.ar  2345  PFY2345     0.0562
     38 CL6        20.7680    7.8350    6.0130 Cl    2345  PFY2345    -0.0825
     39  C2        22.0970   11.5490    4.9180 C.ar  2345  PFY2345     0.0562
     40 CL5        22.8940   12.9480    5.5620 Cl    2345  PFY2345    -0.0825
     41  C3        21.7170   11.5730    3.5330 C.ar  2345  PFY2345     0.0112
     42  C4        21.0590   10.4610    2.9330 C.ar  2345  PFY2345     0.0017
     43  C5        20.7760    9.3100    3.7220 C.ar  2345  PFY2345     0.0112
@<TRIPOS>BOND
     1     8     9    1
     2     8     7    1
     3     9    10    1
     4     7     6    1
     5    10     6    1
     6     6     5    1
     7     5     4    1
     8     4    11    1
     9     4     3    1
    10    11    12    1
    11     1     2    2
    12     3     2   am
    13     3    13    1
    14    12    13    1
    15     2    14    1
    16    14    17    1
    17    14    15    2
    18    18    17    1
    19    16    15    1
    20    17    19    2
    21    15    20    1
    22    42    41   ar
    23    42    43   ar
    24    19    20    2
    25    20    21    1
    26    41    39   ar
    27    43    37   ar
    28    21    22    2
    29    39    40    1
    30    39    36   ar
    31    37    36   ar
    32    37    38    1
    33    24    23    2
    34    22    23    1
    35    22    29    1
    36    36    35    1
    37    23    25    2
    38    29    30    2
    39    29    26    1
    40    30    31    1
    41    35    32    1
    42    25    26    2
    43    26    27    1
    44    34    32    2
    45    31    32    1
    46    31    28    1
    47    32    33    2
    48    27    28    2
