@<TRIPOS>MOLECULE
2wkp_FMN_A_1.pdb
 31 33 0 0 0
SMALL
GASTEIGER

@<TRIPOS>ATOM
      1  N1        18.6720  -53.6750   -9.7010 N.2   1725  FMN1725    -0.2887
      2  C2        18.9430  -55.0170   -9.9200 C.1   1725  FMN1725     0.3669
      3  O2        20.0670  -55.3770  -10.2810 O.2   1725  FMN1725    -0.1744
      4  N3        17.9480  -55.9500   -9.7540 N.2   1725  FMN1725    -0.2300
      5  C4        16.6930  -55.5400   -9.3400 C.1   1725  FMN1725     0.2513
      6  O4        15.7740  -56.3570   -9.3790 O.2   1725  FMN1725    -0.2057
      7  C4A       16.4270  -54.1880   -9.1120 C.2   1725  FMN1725     0.2703
      8  N5        15.1820  -53.7670   -8.6880 N.2   1725  FMN1725    -0.3882
      9  C5A       14.9310  -52.4290   -8.4960 C.2   1725  FMN1725     0.1277
     10  C6        13.6570  -52.0160   -8.1010 C.3   1725  FMN1725     0.0820
     11  C7        13.3890  -50.6610   -7.9130 C.2   1725  FMN1725    -0.0408
     12  C7M       11.9550  -50.2140   -7.7950 C.3   1725  FMN1725     0.0265
     13  C8        14.4030  -49.7170   -8.1110 C.2   1725  FMN1725    -0.0280
     14  C8M       14.1200  -48.2410   -7.9910 C.3   1725  FMN1725     0.0304
     15  C9        15.6720  -50.1360   -8.5050 C.2   1725  FMN1725     0.0123
     16  C9A       15.9420  -51.4910   -8.6980 C.2   1725  FMN1725     0.0793
     17  N10       17.2110  -51.9010   -9.0780 N.pl3 1725  FMN1725    -0.2545
     18  C10       17.4290  -53.2470   -9.3110 C.2   1725  FMN1725     0.2449
     19  C1'       18.2500  -50.8990   -9.5280 C.3   1725  FMN1725     0.1336
     20  C2'       19.1680  -50.3990   -8.3980 C.3   1725  FMN1725     0.2048
     21  O2'       18.4440  -50.1380   -7.1950 O.3   1725  FMN1725    -0.2185
     22  C3'       19.9070  -49.1260   -8.8370 C.3   1725  FMN1725     0.2165
     23  O3'       18.9420  -48.1640   -9.2080 O.3   1725  FMN1725    -0.2175
     24  C4'       20.8910  -49.3870   -9.9830 C.3   1725  FMN1725     0.2147
     25  O4'       21.9090  -50.2550   -9.5220 O.3   1725  FMN1725    -0.2176
     26  C5'       21.5190  -48.1150  -10.5830 C.3   1725  FMN1725     0.1892
     27  O5'       21.8870  -47.2170   -9.5540 O.3   1725  FMN1725    -0.2674
     28  P         23.3880  -47.2430   -8.9440 P.3   1725  FMN1725     0.5327
     29  O1P       23.4790  -46.1180   -7.9430 O.3   1725  FMN1725    -0.1145
     30  O2P       24.3860  -47.0150  -10.0580 O.2   1725  FMN1725    -0.2224
     31  O3P       23.6540  -48.5890   -8.3250 O.3   1725  FMN1725    -0.1145
@<TRIPOS>BOND
     1    26    24    1
     2    26    27    1
     3     3     2    2
     4    30    28    2
     5    24    25    1
     6    24    22    1
     7     2     4    2
     8     2     1    2
     9     4     5    2
    10     1    18    2
    11    27    28    1
    12    19    17    1
    13    19    20    1
    14     6     5    2
    15     5     7    1
    16    18     7    1
    17    18    17    1
    18    23    22    1
    19     7     8    2
    20    17    16    1
    21    28    31    1
    22    28    29    1
    23    22    20    1
    24    16    15    2
    25    16     9    1
    26     8     9    2
    27    15    13    1
    28     9    10    1
    29    20    21    1
    30    13    14    1
    31    13    11    2
    32    10    11    1
    33    11    12    1
