@<TRIPOS>MOLECULE
2wkp_GTP_A_1.pdb
 32 34 0 0 0
SMALL
GASTEIGER

@<TRIPOS>ATOM
      1  PG        17.5050  -43.9090   17.4930 P.3   1724  GTP1724     0.5373
      2  O1G       17.6810  -44.8980   16.3880 O.2   1724  GTP1724    -0.2221
      3  O2G       18.8940  -43.3770   17.8180 O.3   1724  GTP1724    -0.1143
      4  O3G       16.6070  -42.7540   17.0820 O.3   1724  GTP1724    -0.1143
      5  O3B       16.9920  -44.6520   18.8700 O.3   1724  GTP1724    -0.2258
      6  PB        15.7460  -45.6720   19.0420 P.3   1724  GTP1724     0.2277
      7  O1B       15.4140  -46.4530   17.8060 O.2   1724  GTP1724    -0.5168
      8  O2B       14.5250  -44.9460   19.5370 O.3   1724  GTP1724    -0.4368
      9  O3A       16.1920  -46.6700   20.2110 O.3   1724  GTP1724    -0.2700
     10  PA        16.2510  -48.2680   20.1620 P.3   1724  GTP1724     0.2189
     11  O1A       17.4780  -48.7010   19.4100 O.2   1724  GTP1724    -0.5170
     12  O2A       14.9720  -48.8920   19.6730 O.3   1724  GTP1724    -0.4371
     13  O5'       16.4260  -48.6550   21.7230 O.3   1724  GTP1724    -0.3112
     14  C5'       17.3870  -48.0490   22.5570 C.3   1724  GTP1724     0.1813
     15  C4'       17.7150  -49.0510   23.6620 C.3   1724  GTP1724     0.1799
     16  O4'       16.6140  -49.0870   24.5390 O.3   1724  GTP1724    -0.3326
     17  C3'       17.8370  -50.4680   23.1130 C.3   1724  GTP1724     0.2158
     18  O3'       19.1870  -50.8500   23.0360 O.3   1724  GTP1724    -0.2175
     19  C2'       17.0520  -51.3730   24.0510 C.3   1724  GTP1724     0.2310
     20  O2'       17.8800  -52.1910   24.8310 O.3   1724  GTP1724    -0.2158
     21  C1'       16.3250  -50.4090   24.9610 C.3   1724  GTP1724     0.2293
     22  N9        14.8950  -50.6590   24.7860 N.pl3 1724  GTP1724    -0.2354
     23  C8        14.1280  -50.3320   23.6880 C.3   1724  GTP1724     0.2246
     24  N7        12.8590  -50.7030   23.9610 N.2   1724  GTP1724    -0.2322
     25  C5        12.8190  -51.2500   25.2100 C.2   1724  GTP1724     0.2182
     26  C6        11.7950  -51.7780   25.9860 C.1   1724  GTP1724     0.2372
     27  O6        10.6510  -51.8200   25.5480 O.2   1724  GTP1724    -0.2069
     28  N1        12.0640  -52.2470   27.2680 N.2   1724  GTP1724    -0.2485
     29  C2        13.3510  -52.2100   27.7620 C.1   1724  GTP1724     0.2531
     30  N2        13.6040  -52.6670   28.9930 N.pl3 1724  GTP1724    -0.0226
     31  N3        14.3670  -51.6800   26.9940 N.2   1724  GTP1724    -0.3074
     32  C4        14.0980  -51.2070   25.7410 C.2   1724  GTP1724     0.2300
@<TRIPOS>BOND
     1     2     1    2
     2     4     1    1
     3     1     3    1
     4     1     5    1
     5     7     6    2
     6     5     6    1
     7     6     8    1
     8     6     9    1
     9    11    10    2
    10    12    10    1
    11    10     9    1
    12    10    13    1
    13    13    14    1
    14    14    15    1
    15    18    17    1
    16    17    15    1
    17    17    19    1
    18    15    16    1
    19    23    24    1
    20    23    22    1
    21    24    25    2
    22    19    20    1
    23    19    21    1
    24    16    21    1
    25    22    21    1
    26    22    32    1
    27    25    32    1
    28    25    26    1
    29    27    26    2
    30    32    31    2
    31    26    28    2
    32    31    29    2
    33    28    29    2
    34    29    30    1
