@<TRIPOS>MOLECULE
2wkq_FMN_A_1.pdb
 31 33 0 0 0
SMALL
GASTEIGER

@<TRIPOS>ATOM
      1  N1        18.0430  -52.5270   -9.6510 N.2   1723  FMN1723    -0.2890
      2  C2        18.3440  -53.8510   -9.8680 C.1   1723  FMN1723     0.3669
      3  O2        19.4690  -54.2040  -10.2500 O.2   1723  FMN1723    -0.1744
      4  N3        17.3590  -54.7970   -9.6500 N.2   1723  FMN1723    -0.2300
      5  C4        16.1050  -54.4600   -9.2060 C.1   1723  FMN1723     0.2513
      6  O4        15.2340  -55.3320   -9.2670 O.2   1723  FMN1723    -0.2057
      7  C4A       15.8000  -53.1240   -8.9720 C.2   1723  FMN1723     0.2700
      8  N5        14.5500  -52.7460   -8.5030 N.2   1723  FMN1723    -0.3878
      9  C5A       14.2670  -51.4060   -8.3380 C.2   1723  FMN1723     0.1320
     10  C6        13.0070  -51.0170   -7.9270 C.2   1723  FMN1723     0.0250
     11  C7        12.6750  -49.6760   -7.7700 C.2   1723  FMN1723    -0.0238
     12  C7M       11.2190  -49.2870   -7.5860 C.3   1723  FMN1723     0.0308
     13  C8        13.6570  -48.7020   -7.9970 C.2   1723  FMN1723    -0.0280
     14  C8M       13.2870  -47.2460   -7.9870 C.3   1723  FMN1723     0.0304
     15  C9        14.9210  -49.0970   -8.4120 C.2   1723  FMN1723    -0.0041
     16  C9A       15.2490  -50.4380   -8.5890 C.3   1723  FMN1723     0.1497
     17  N10       16.5270  -50.8280   -8.9920 N.pl3 1723  FMN1723    -0.2691
     18  C10       16.7860  -52.1580   -9.2090 C.2   1723  FMN1723     0.2416
     19  C1'       17.5160  -49.8130   -9.5050 C.3   1723  FMN1723     0.1294
     20  C2'       18.4540  -49.2670   -8.4110 C.3   1723  FMN1723     0.2044
     21  O2'       17.7500  -48.9440   -7.2170 O.3   1723  FMN1723    -0.2185
     22  C3'       19.1270  -47.9670   -8.8840 C.3   1723  FMN1723     0.2164
     23  O3'       18.1510  -47.0600   -9.3560 O.3   1723  FMN1723    -0.2175
     24  C4'       20.0940  -48.2380  -10.0320 C.3   1723  FMN1723     0.2147
     25  O4'       21.1340  -49.0760   -9.5460 O.3   1723  FMN1723    -0.2176
     26  C5'       20.6760  -46.9580  -10.6790 C.3   1723  FMN1723     0.1892
     27  O5'       21.0710  -46.0090   -9.7150 O.3   1723  FMN1723    -0.2674
     28  P         22.5920  -46.0000   -9.1760 P.3   1723  FMN1723     0.5327
     29  O1P       22.6570  -44.8480   -8.2200 O.3   1723  FMN1723    -0.1145
     30  O2P       23.4820  -45.7650  -10.3880 O.2   1723  FMN1723    -0.2224
     31  O3P       22.9060  -47.3370   -8.5470 O.3   1723  FMN1723    -0.1145
@<TRIPOS>BOND
     1    26    24    1
     2    26    27    1
     3    30    28    2
     4     3     2    2
     5    24    25    1
     6    24    22    1
     7     2     1    2
     8     2     4    2
     9    27    28    1
    10     1    18    2
    11     4     5    2
    12    19    17    1
    13    19    20    1
    14    23    22    1
    15     6     5    2
    16    18    17    1
    17    18     7    1
    18     5     7    1
    19    28    31    1
    20    28    29    1
    21    17    16    1
    22     7     8    2
    23    22    20    1
    24    16    15    1
    25    16     9    1
    26     8     9    2
    27    15    13    2
    28    20    21    1
    29     9    10    1
    30    13    14    1
    31    13    11    1
    32    10    11    2
    33    11    12    1
