@<TRIPOS>MOLECULE
2wkq_GTP_A_1.pdb
 32 34 0 0 0
SMALL
GASTEIGER

@<TRIPOS>ATOM
      1  PG        16.7920  -42.5370   17.5940 P.3   1722  GTP1722     0.5373
      2  O1G       16.9000  -43.5060   16.4870 O.2   1722  GTP1722    -0.2221
      3  O2G       18.1930  -42.0740   18.0160 O.3   1722  GTP1722    -0.1143
      4  O3G       15.9100  -41.3670   17.3450 O.3   1722  GTP1722    -0.1143
      5  O3B       16.2610  -43.3050   18.9310 O.3   1722  GTP1722    -0.2258
      6  PB        14.9720  -44.2880   19.1150 P.3   1722  GTP1722     0.2277
      7  O1B       14.7600  -45.1280   17.8990 O.2   1722  GTP1722    -0.5168
      8  O2B       13.8350  -43.4840   19.6210 O.3   1722  GTP1722    -0.4368
      9  O3A       15.4850  -45.2360   20.3160 O.3   1722  GTP1722    -0.2700
     10  PA        15.5730  -46.8330   20.3040 P.3   1722  GTP1722     0.2189
     11  O1A       16.7710  -47.2300   19.5160 O.2   1722  GTP1722    -0.5170
     12  O2A       14.2800  -47.4610   19.8470 O.3   1722  GTP1722    -0.4371
     13  O5'       15.7580  -47.1900   21.8610 O.3   1722  GTP1722    -0.3112
     14  C5'       16.6970  -46.5180   22.6750 C.3   1722  GTP1722     0.1813
     15  C4'       17.0150  -47.4860   23.8160 C.3   1722  GTP1722     0.1799
     16  O4'       15.8960  -47.4900   24.6910 O.3   1722  GTP1722    -0.3326
     17  C3'       17.1370  -48.9330   23.3690 C.3   1722  GTP1722     0.2158
     18  O3'       18.4480  -49.3070   23.0190 O.3   1722  GTP1722    -0.2175
     19  C2'       16.6600  -49.7430   24.5450 C.3   1722  GTP1722     0.2310
     20  O2'       17.7670  -49.8880   25.4210 O.3   1722  GTP1722    -0.2158
     21  C1'       15.6890  -48.7940   25.2190 C.3   1722  GTP1722     0.2293
     22  N9        14.2700  -49.1330   25.0020 N.pl3 1722  GTP1722    -0.2354
     23  C8        13.4780  -48.8830   23.8900 C.3   1722  GTP1722     0.2246
     24  N7        12.2220  -49.3190   24.1650 N.2   1722  GTP1722    -0.2322
     25  C5        12.1960  -49.8080   25.4400 C.2   1722  GTP1722     0.2182
     26  C6        11.1940  -50.3560   26.2350 C.1   1722  GTP1722     0.2372
     27  O6        10.0220  -50.4820   25.8650 O.2   1722  GTP1722    -0.2069
     28  N1        11.5160  -50.7320   27.5150 N.2   1722  GTP1722    -0.2485
     29  C2        12.7980  -50.6120   27.9940 C.1   1722  GTP1722     0.2531
     30  N2        13.0570  -51.0010   29.2480 N.pl3 1722  GTP1722    -0.0226
     31  N3        13.7860  -50.0670   27.2280 N.2   1722  GTP1722    -0.3074
     32  C4        13.4780  -49.6770   25.9600 C.2   1722  GTP1722     0.2300
@<TRIPOS>BOND
     1     2     1    2
     2     4     1    1
     3     1     3    1
     4     1     5    1
     5     7     6    2
     6     5     6    1
     7     6     8    1
     8     6     9    1
     9    11    10    2
    10    12    10    1
    11    10     9    1
    12    10    13    1
    13    13    14    1
    14    14    15    1
    15    18    17    1
    16    17    15    1
    17    17    19    1
    18    15    16    1
    19    23    24    1
    20    23    22    1
    21    24    25    2
    22    19    21    1
    23    19    20    1
    24    16    21    1
    25    22    21    1
    26    22    32    1
    27    25    32    1
    28    25    26    1
    29    27    26    2
    30    32    31    2
    31    26    28    2
    32    31    29    2
    33    28    29    2
    34    29    30    1
