@<TRIPOS>MOLECULE
2wkr_FMN_A_1.pdb
 31 33 0 0 0
SMALL
GASTEIGER

@<TRIPOS>ATOM
      1  N1        18.2850  -52.7210   -9.5750 N.2   1723  FMN1723    -0.2887
      2  C2        18.5510  -54.0400   -9.8730 C.1   1723  FMN1723     0.3669
      3  O2        19.6790  -54.3650  -10.2450 O.2   1723  FMN1723    -0.1744
      4  N3        17.5610  -54.9960   -9.7440 N.2   1723  FMN1723    -0.2300
      5  C4        16.2960  -54.6330   -9.3310 C.1   1723  FMN1723     0.2513
      6  O4        15.3780  -55.4510   -9.4370 O.2   1723  FMN1723    -0.2057
      7  C4A       16.0320  -53.2930   -9.0280 C.2   1723  FMN1723     0.2706
      8  N5        14.7790  -52.9110   -8.6100 N.2   1723  FMN1723    -0.3841
      9  C5A       14.5220  -51.5930   -8.3280 C.2   1723  FMN1723     0.1452
     10  C6        13.2390  -51.2500   -7.9290 C.2   1723  FMN1723     0.0252
     11  C7        12.9260  -49.9310   -7.6410 C.2   1723  FMN1723    -0.0375
     12  C7M       11.4760  -49.5350   -7.6410 C.3   1723  FMN1723     0.0268
     13  C8        13.9150  -48.9490   -7.7600 C.3   1723  FMN1723     0.0417
     14  C8M       13.4740  -47.5210   -7.9590 C.3   1723  FMN1723     0.0091
     15  C9        15.2080  -49.3080   -8.1580 C.2   1723  FMN1723    -0.0049
     16  C9A       15.5260  -50.6320   -8.4560 C.2   1723  FMN1723     0.0795
     17  N10       16.8080  -51.0070   -8.8580 N.pl3 1723  FMN1723    -0.2545
     18  C10       17.0300  -52.3350   -9.1570 C.2   1723  FMN1723     0.2449
     19  C1'       17.8030  -50.0080   -9.4190 C.3   1723  FMN1723     0.1336
     20  C2'       18.7720  -49.4990   -8.3470 C.3   1723  FMN1723     0.2048
     21  O2'       18.0980  -49.1850   -7.1520 O.3   1723  FMN1723    -0.2185
     22  C3'       19.5390  -48.2410   -8.7550 C.3   1723  FMN1723     0.2165
     23  O3'       18.6720  -47.1570   -9.0150 O.3   1723  FMN1723    -0.2175
     24  C4'       20.4450  -48.4570   -9.9580 C.3   1723  FMN1723     0.2147
     25  O4'       21.5660  -49.1840   -9.5070 O.3   1723  FMN1723    -0.2176
     26  C5'       20.9400  -47.1040  -10.4310 C.3   1723  FMN1723     0.1892
     27  O5'       21.3530  -46.4840   -9.2350 O.3   1723  FMN1723    -0.2674
     28  P         22.9120  -46.2670   -8.9150 P.3   1723  FMN1723     0.5327
     29  O1P       23.0090  -45.0380   -8.0370 O.3   1723  FMN1723    -0.1145
     30  O2P       23.6450  -46.0380  -10.2180 O.2   1723  FMN1723    -0.2224
     31  O3P       23.4840  -47.4910   -8.2370 O.3   1723  FMN1723    -0.1145
@<TRIPOS>BOND
     1    26    24    1
     2    26    27    1
     3     3     2    2
     4    30    28    2
     5    24    25    1
     6    24    22    1
     7     2     4    2
     8     2     1    2
     9     4     5    2
    10     1    18    2
    11     6     5    2
    12    19    17    1
    13    19    20    1
    14     5     7    1
    15    27    28    1
    16    18     7    1
    17    18    17    1
    18     7     8    2
    19    23    22    1
    20    28    31    1
    21    28    29    1
    22    17    16    1
    23    22    20    1
    24     8     9    2
    25    16     9    1
    26    16    15    2
    27    20    21    1
    28     9    10    1
    29    15    13    1
    30    14    13    1
    31    10    11    2
    32    13    11    1
    33    12    11    1
