@<TRIPOS>MOLECULE
2wkr_GTP_A_1.pdb
 32 34 0 0 0
SMALL
GASTEIGER

@<TRIPOS>ATOM
      1  PG        16.8580  -42.3450   17.7260 P.3   1722  GTP1722     0.5373
      2  O1G       16.9460  -43.2860   16.5740 O.2   1722  GTP1722    -0.2221
      3  O2G       18.2580  -41.8250   17.9840 O.3   1722  GTP1722    -0.1143
      4  O3G       15.9760  -41.1620   17.3810 O.3   1722  GTP1722    -0.1143
      5  O3B       16.3110  -43.0880   19.0550 O.3   1722  GTP1722    -0.2258
      6  PB        15.0240  -44.0620   19.1800 P.3   1722  GTP1722     0.2277
      7  O1B       14.7020  -44.9320   18.0020 O.2   1722  GTP1722    -0.5168
      8  O2B       13.8490  -43.1830   19.5240 O.3   1722  GTP1722    -0.4368
      9  O3A       15.4430  -45.0090   20.4140 O.3   1722  GTP1722    -0.2700
     10  PA        15.5740  -46.6120   20.3590 P.3   1722  GTP1722     0.2189
     11  O1A       16.7770  -46.9640   19.5200 O.2   1722  GTP1722    -0.5170
     12  O2A       14.3120  -47.2960   19.8970 O.3   1722  GTP1722    -0.4371
     13  O5'       15.8570  -47.0130   21.8900 O.3   1722  GTP1722    -0.3112
     14  C5'       16.6790  -46.2470   22.7510 C.3   1722  GTP1722     0.1813
     15  C4'       17.0510  -47.1760   23.9030 C.3   1722  GTP1722     0.1799
     16  O4'       15.9940  -47.1650   24.8500 O.3   1722  GTP1722    -0.3326
     17  C3'       17.1540  -48.6170   23.4300 C.3   1722  GTP1722     0.2158
     18  O3'       18.4870  -48.9900   23.1910 O.3   1722  GTP1722    -0.2175
     19  C2'       16.6200  -49.4280   24.5790 C.3   1722  GTP1722     0.2310
     20  O2'       17.7190  -49.7500   25.3910 O.3   1722  GTP1722    -0.2158
     21  C1'       15.7270  -48.4660   25.3400 C.3   1722  GTP1722     0.2293
     22  N9        14.3150  -48.8150   25.1050 N.pl3 1722  GTP1722    -0.2354
     23  C8        13.5710  -48.5830   23.9730 C.3   1722  GTP1722     0.2246
     24  N7        12.3120  -49.0330   24.2010 N.2   1722  GTP1722    -0.2322
     25  C5        12.2370  -49.5280   25.4660 C.2   1722  GTP1722     0.2182
     26  C6        11.2040  -50.1030   26.2180 C.1   1722  GTP1722     0.2372
     27  O6        10.0740  -50.2390   25.7380 O.2   1722  GTP1722    -0.2069
     28  N1        11.4510  -50.5200   27.5170 N.2   1722  GTP1722    -0.2485
     29  C2        12.7170  -50.3640   28.0640 C.1   1722  GTP1722     0.2531
     30  N2        12.9660  -50.7580   29.3090 N.pl3 1722  GTP1722    -0.0226
     31  N3        13.7300  -49.7900   27.3190 N.2   1722  GTP1722    -0.3074
     32  C4        13.4940  -49.3840   26.0430 C.2   1722  GTP1722     0.2300
@<TRIPOS>BOND
     1     2     1    2
     2     4     1    1
     3     1     3    1
     4     1     5    1
     5     7     6    2
     6     5     6    1
     7     6     8    1
     8     6     9    1
     9    11    10    2
    10    12    10    1
    11    10     9    1
    12    10    13    1
    13    13    14    1
    14    14    15    1
    15    18    17    1
    16    17    15    1
    17    17    19    1
    18    15    16    1
    19    23    24    1
    20    23    22    1
    21    24    25    2
    22    19    21    1
    23    19    20    1
    24    16    21    1
    25    22    21    1
    26    22    32    1
    27    25    32    1
    28    25    26    1
    29    27    26    2
    30    32    31    2
    31    26    28    2
    32    31    29    2
    33    28    29    2
    34    29    30    1
