@<TRIPOS>MOLECULE
2wks_CB6_A_1.pdb
 24 26 0 0 0
SMALL
GASTEIGER

@<TRIPOS>ATOM
      1  CAK        4.4270   16.6490  -22.2010 C.ar  1154  CB61154     0.0063
      2  CAT        5.5080   17.4540  -22.3560 C.ar  1154  CB61154     0.0060
      3  CAI        6.3960   17.8980  -21.3630 C.ar  1154  CB61154    -0.0038
      4  CAH        7.4810   18.7230  -21.6680 C.ar  1154  CB61154    -0.0218
      5  CAR        7.6940   19.1210  -23.0030 C.ar  1154  CB61154    -0.0037
      6  CAJ        6.8260   18.6940  -24.0240 C.ar  1154  CB61154     0.0061
      7  CAU        5.7410   17.8600  -23.6970 C.ar  1154  CB61154     0.0292
      8  SAO        4.4930   17.1500  -24.6080 S.2   1154  CB61154    -0.0876
      9  CAS        3.7560   16.3770  -23.3240 C.ar  1154  CB61154     0.0507
     10  CAL        2.6380   15.5770  -23.3920 C.3   1154  CB61154     0.2380
     11  OAN        2.1990   14.9690  -22.1750 O.2   1154  CB61154    -0.4720
     12  CAQ        2.2160   13.6070  -22.0680 C.2   1154  CB61154     0.1480
     13  CAG        1.9630   12.7360  -23.1440 C.2   1154  CB61154     0.0494
     14  CAX        1.9390   11.3320  -23.0720 C.3   1154  CB61154     0.2425
     15  CAP        2.7450   10.8030  -24.2630 C.2   1154  CB61154     0.3957
     16  OAC        2.2780   11.1000  -25.4020 O.co2 1154  CB61154    -0.2426
     17  OAB        3.7770   10.1190  -24.0370 O.co2 1154  CB61154    -0.2426
     18  OAF        0.5990   10.8530  -23.2140 O.3   1154  CB61154    -0.2094
     19  CAM        2.4760   10.8050  -21.7300 C.3   1154  CB61154     0.0820
     20  CAV        1.8910   11.6280  -20.5700 C.3   1154  CB61154     0.1929
     21  OAD        2.2870   11.0580  -19.3390 O.3   1154  CB61154    -0.2198
     22  CAW        2.4150   13.0650  -20.6540 C.3   1154  CB61154     0.2377
     23  OAE        1.7410   13.9390  -19.7390 O.3   1154  CB61154    -0.2122
     24  CAA        8.4010   19.1550  -20.5190 C.3   1154  CB61154     0.0310
@<TRIPOS>BOND
     1    16    15   ar
     2     8     7   ar
     3     8     9   ar
     4    15    17   ar
     5    15    14    1
     6     6     7   ar
     7     6     5   ar
     8     7     2   ar
     9    10     9    1
    10    10    11    1
    11     9     1   ar
    12    18    14    1
    13    13    14    1
    14    13    12    2
    15    14    19    1
    16     5     4   ar
    17     2     1   ar
    18     2     3   ar
    19    11    12    1
    20    12    22    1
    21    19    20    1
    22     4     3   ar
    23     4    24    1
    24    22    20    1
    25    22    23    1
    26    20    21    1
