@<TRIPOS>MOLECULE
2wkt_COA_A_1.pdb
 48 50 0 0 0
SMALL
GASTEIGER

@<TRIPOS>ATOM
      1  N1A       36.6620  -28.1840   21.3630 N.2   1397  COA1397     0.0021
      2  C2A       36.7010  -28.2060   22.7140 C.3   1397  COA1397     0.5254
      3  N3A       36.0110  -27.2560   23.4400 N.2   1397  COA1397    -0.0055
      4  C4A       35.3060  -26.3080   22.7840 C.2   1397  COA1397     0.3518
      5  C5A       35.2690  -26.2840   21.4620 C.2   1397  COA1397     0.2526
      6  C6A       35.9580  -27.2440   20.7370 C.2   1397  COA1397     0.4393
      7  N6A       35.8950  -27.1990   19.2950 N.pl3 1397  COA1397     0.2180
      8  N7A       34.4800  -25.2160   21.0580 N.2   1397  COA1397    -0.2095
      9  C8A       34.0080  -24.5550   22.2130 C.3   1397  COA1397     0.3377
     10  N9A       34.5020  -25.2000   23.2410 N.pl3 1397  COA1397    -0.1439
     11  C1B       34.2770  -24.8600   24.6250 C.3   1397  COA1397     0.3185
     12  C2B       35.1480  -24.5020   25.7760 C.3   1397  COA1397     0.2543
     13  O2B       36.2870  -23.6940   25.5830 O.3   1397  COA1397    -0.2131
     14  C3B       34.2100  -24.1680   26.8690 C.3   1397  COA1397     0.1928
     15  O3B       34.4260  -24.7280   28.1170 O.3   1397  COA1397    -0.2673
     16  P3B       34.6890  -23.7270   29.3840 P.3   1397  COA1397     0.5327
     17  O7A       36.1990  -24.0060   29.9930 O.3   1397  COA1397    -0.1145
     18  O8A       33.5390  -24.0290   30.5180 O.3   1397  COA1397    -0.1145
     19  O9A       34.6070  -22.3000   28.9060 O.2   1397  COA1397    -0.2224
     20  C4B       32.8050  -24.2060   26.2650 C.3   1397  COA1397     0.1795
     21  O4B       32.9370  -25.1460   25.1240 O.3   1397  COA1397    -0.3136
     22  C5B       32.1900  -22.8630   25.8740 C.3   1397  COA1397     0.1812
     23  O5B       33.0300  -22.1880   24.9590 O.3   1397  COA1397    -0.3112
     24  P1A       32.6060  -20.6470   24.5700 P.3   1397  COA1397     0.2189
     25  O1A       32.9500  -19.6720   25.8480 O.3   1397  COA1397    -0.4371
     26  O2A       33.3310  -20.1970   23.3260 O.2   1397  COA1397    -0.5170
     27  O3A       30.9880  -20.7710   24.2960 O.3   1397  COA1397    -0.2703
     28  P2A       29.9660  -19.5000   24.5620 P.3   1397  COA1397     0.2188
     29  O4A       30.6780  -18.2470   25.0270 O.2   1397  COA1397    -0.5170
     30  O5A       28.8420  -20.0380   25.6150 O.3   1397  COA1397    -0.4371
     31  O6A       29.2030  -19.2560   23.1180 O.3   1397  COA1397    -0.3138
     32  CBP       27.2650  -19.9530   21.7730 C.3   1397  COA1397     0.0645
     33  CCP       28.3970  -20.3300   22.7260 C.3   1397  COA1397     0.1519
     34  CDP       26.0680  -19.5250   22.6140 C.3   1397  COA1397     0.0056
     35  CEP       26.9320  -21.1420   20.8730 C.3   1397  COA1397     0.0056
     36  CAP       27.7580  -18.7570   20.9610 C.3   1397  COA1397     0.2312
     37  OAP       29.0500  -18.8990   20.4170 O.3   1397  COA1397    -0.2131
     38  C9P       26.7170  -18.3970   19.9020 C.2   1397  COA1397     0.2719
     39  O9P       25.6520  -17.9540   20.2150 O.2   1397  COA1397    -0.2706
     40  N8P       27.0350  -18.7960   18.5320 N.am  1397  COA1397    -0.2028
     41  C7P       26.0390  -18.6160   17.4920 C.3   1397  COA1397     0.1248
     42  C6P       25.9330  -17.1850   16.9540 C.3   1397  COA1397     0.1102
     43  C5P       25.0150  -16.9900   15.7530 C.2   1397  COA1397     0.2432
     44  O5P       23.9030  -17.3820   15.8050 O.2   1397  COA1397    -0.2733
     45  N4P       25.4490  -16.0740   14.7160 N.am  1397  COA1397    -0.2044
     46  C3P       24.6880  -15.8740   13.4970 C.3   1397  COA1397     0.1276
     47  C2P       23.8860  -17.0480   12.9250 C.3   1397  COA1397     0.0920
     48  S1P       22.7490  -16.5490   11.5930 S.3   1397  COA1397    -0.0802
@<TRIPOS>BOND
     1    48    47    1
     2    47    46    1
     3    46    45    1
     4    45    43   am
     5    43    44    2
     6    43    42    1
     7    42    41    1
     8    41    40    1
     9    40    38   am
    10     7     6    1
    11    38    39    2
    12    38    36    1
    13    37    36    1
    14     6     1    2
    15     6     5    1
    16    35    32    1
    17    36    32    1
    18     8     5    2
    19     8     9    1
    20     1     2    1
    21     5     4    1
    22    32    34    1
    23    32    33    1
    24     9    10    1
    25     2     3    1
    26    33    31    1
    27     4    10    1
    28     4     3    2
    29    31    28    1
    30    10    11    1
    31    26    24    2
    32    27    28    1
    33    27    24    1
    34    28    29    2
    35    28    30    1
    36    24    23    1
    37    24    25    1
    38    11    21    1
    39    11    12    1
    40    23    22    1
    41    21    20    1
    42    13    12    1
    43    12    14    1
    44    22    20    1
    45    20    14    1
    46    14    15    1
    47    15    16    1
    48    19    16    2
    49    16    17    1
    50    16    18    1
