@<TRIPOS>MOLECULE
2wku_DNO_A_1.pdb
 12 11 0 0 0
SMALL
GASTEIGER

@<TRIPOS>ATOM
      1  C1        48.6350   -6.6440   -0.0700 C.3   1396  DNO1396     0.2175
      2  C2        47.3960   -7.4530   -0.5600 C.3   1396  DNO1396     0.2175
      3  C3        47.1290   -7.3850   -2.0710 C.3   1396  DNO1396     0.2175
      4  C4        45.7780   -7.9790   -2.5370 C.3   1396  DNO1396     0.2175
      5  C5        44.8090   -6.9800   -3.2180 C.3   1396  DNO1396     0.2175
      6  C6        44.9760   -6.8860   -4.7540 C.3   1396  DNO1396     0.2175
      7  O1        49.2920   -7.0880    1.0990 O.3   1396  DNO1396    -0.2175
      8  O2        47.3170   -8.7260    0.0000 O.3   1396  DNO1396    -0.2175
      9  O3        47.5180   -6.2060   -2.7130 O.3   1396  DNO1396    -0.2175
     10  O4        45.9380   -9.1760   -3.2730 O.3   1396  DNO1396    -0.2175
     11  O5        43.4590   -7.1100   -2.8410 O.3   1396  DNO1396    -0.2175
     12  O6        43.8520   -6.4600   -5.4910 O.3   1396  DNO1396    -0.2175
@<TRIPOS>BOND
     1    12     6    1
     2     6     5    1
     3    10     4    1
     4     5    11    1
     5     5     4    1
     6     9     3    1
     7     4     3    1
     8     3     2    1
     9     2     1    1
    10     2     8    1
    11     1     7    1
