@<TRIPOS>MOLECULE
2wkv_COA_A_1.pdb
 48 50 0 0 0
SMALL
GASTEIGER

@<TRIPOS>ATOM
      1  N1A       36.5220  -27.7090   20.5690 N.2   1397  COA1397     0.0021
      2  C2A       36.6980  -27.9640   21.9300 C.3   1397  COA1397     0.5254
      3  N3A       36.0650  -27.1640   22.9030 N.2   1397  COA1397    -0.0055
      4  C4A       35.2830  -26.1350   22.4990 C.2   1397  COA1397     0.3518
      5  C5A       35.1120  -25.8760   21.1540 C.2   1397  COA1397     0.2526
      6  C6A       35.7400  -26.6800   20.1800 C.2   1397  COA1397     0.4393
      7  N6A       35.5280  -26.3590   18.7750 N.pl3 1397  COA1397     0.2180
      8  N7A       34.2680  -24.7790   21.0070 N.2   1397  COA1397    -0.2095
      9  C8A       33.9090  -24.3320   22.3230 C.3   1397  COA1397     0.3377
     10  N9A       34.5110  -25.1440   23.2190 N.pl3 1397  COA1397    -0.1439
     11  C1B       34.3880  -24.9450   24.6710 C.3   1397  COA1397     0.3185
     12  C2B       35.1280  -23.8410   25.3810 C.3   1397  COA1397     0.2543
     13  O2B       36.4920  -23.5700   25.1890 O.3   1397  COA1397    -0.2131
     14  C3B       34.4450  -23.6660   26.6850 C.3   1397  COA1397     0.1928
     15  O3B       35.0130  -24.3150   27.7950 O.3   1397  COA1397    -0.2673
     16  P3B       34.6830  -23.7960   29.3290 P.3   1397  COA1397     0.5327
     17  O7A       34.8310  -25.0810   30.3570 O.3   1397  COA1397    -0.1145
     18  O8A       33.1490  -23.1810   29.4070 O.2   1397  COA1397    -0.2224
     19  O9A       35.6730  -22.7190   29.7030 O.3   1397  COA1397    -0.1145
     20  C4B       32.9650  -23.8950   26.3070 C.3   1397  COA1397     0.1795
     21  O4B       33.0090  -24.8700   25.1630 O.3   1397  COA1397    -0.3136
     22  C5B       32.0110  -22.6750   26.1880 C.3   1397  COA1397     0.1812
     23  O5B       31.7540  -22.1730   24.8860 O.3   1397  COA1397    -0.3112
     24  P1A       32.2950  -20.6550   24.4360 P.3   1397  COA1397     0.2189
     25  O1A       33.1410  -20.0110   25.7010 O.3   1397  COA1397    -0.4371
     26  O2A       33.1960  -20.7560   23.2210 O.2   1397  COA1397    -0.5170
     27  O3A       30.9790  -19.6880   24.0340 O.3   1397  COA1397    -0.2703
     28  P2A       29.5960  -19.7800   24.9680 P.3   1397  COA1397     0.2188
     29  O4A       29.5870  -21.2170   25.7760 O.2   1397  COA1397    -0.5170
     30  O5A       29.5530  -18.6200   25.9290 O.3   1397  COA1397    -0.4371
     31  O6A       28.2420  -19.7530   24.0020 O.3   1397  COA1397    -0.3138
     32  CBP       27.2480  -19.9500   21.7180 C.3   1397  COA1397     0.0646
     33  CCP       28.3350  -20.3540   22.7240 C.3   1397  COA1397     0.1519
     34  CDP       27.1340  -21.0200   20.6410 C.3   1397  COA1397     0.0056
     35  CEP       25.9080  -19.7960   22.4380 C.3   1397  COA1397     0.0056
     36  CAP       27.6810  -18.5970   21.1130 C.3   1397  COA1397     0.2315
     37  OAP       29.0140  -18.5870   20.7280 O.3   1397  COA1397    -0.2131
     38  C9P       26.8060  -18.2270   19.9100 C.2   1397  COA1397     0.2761
     39  O9P       25.8010  -17.6250   20.0590 O.2   1397  COA1397    -0.2702
     40  N8P       27.3320  -18.5470   18.5680 N.am  1397  COA1397    -0.1756
     41  C7P       26.5030  -18.3880   17.3690 C.2   1397  COA1397     0.0934
     42  C6P       25.4210  -17.2930   17.3490 C.2   1397  COA1397     0.0773
     43  C5P       24.9080  -16.8730   15.9610 C.2   1397  COA1397     0.2663
     44  O5P       23.8760  -17.3020   15.5650 O.2   1397  COA1397    -0.2683
     45  N4P       25.7480  -16.0490   15.0930 N.am  1397  COA1397    -0.2007
     46  C3P       25.2190  -15.5040   13.8470 C.3   1397  COA1397     0.1280
     47  C2P       24.8560  -16.5000   12.7460 C.3   1397  COA1397     0.0921
     48  S1P       23.0860  -16.7270   12.3760 S.3   1397  COA1397    -0.0802
@<TRIPOS>BOND
     1    48    47    1
     2    47    46    1
     3    46    45    1
     4    45    43   am
     5    44    43    2
     6    43    42    1
     7    42    41    2
     8    41    40    1
     9    40    38   am
    10     7     6    1
    11    38    39    2
    12    38    36    1
    13     6     1    2
    14     6     5    1
    15     1     2    1
    16    34    32    1
    17    37    36    1
    18     8     5    2
    19     8     9    1
    20    36    32    1
    21     5     4    1
    22    32    35    1
    23    32    33    1
    24     2     3    1
    25     9    10    1
    26     4     3    2
    27     4    10    1
    28    33    31    1
    29    10    11    1
    30    26    24    2
    31    31    28    1
    32    27    24    1
    33    27    28    1
    34    24    23    1
    35    24    25    1
    36    11    21    1
    37    11    12    1
    38    23    22    1
    39    28    29    2
    40    28    30    1
    41    21    20    1
    42    13    12    1
    43    12    14    1
    44    22    20    1
    45    20    14    1
    46    14    15    1
    47    15    16    1
    48    16    18    2
    49    16    19    1
    50    16    17    1
