@<TRIPOS>MOLECULE
2wkw_W22_A_1.pdb
 17 18 0 0 0
SMALL
GASTEIGER

@<TRIPOS>ATOM
      1  O1         5.7440   20.7530   12.2760 O.2   577  W22577     -0.2728
      2  C9         4.8690   19.9670   11.8940 C.2   577  W22577      0.2486
      3  C10        5.1320   18.9010   10.8420 C.3   577  W22577      0.1900
      4  C11        6.6330   18.6440   10.5940 C.3   577  W22577      0.1476
      5  C12        6.7970   17.2850    9.9280 C.2   577  W22577      0.3673
      6  O3         5.9680   16.3690   10.1450 O.co2 577  W22577     -0.2456
      7  O2         7.7660   17.1240    9.1630 O.co2 577  W22577     -0.2456
      8  N1         3.6230   19.9890   12.3960 N.am  577  W22577     -0.2755
      9  C8         3.2020   20.9270   13.4370 C.3   577  W22577      0.1149
     10  C7         2.5910   19.0570   11.9640 C.3   577  W22577      0.1037
     11  C4         2.1960   19.3080   10.5260 C.3   577  W22577      0.0816
     12  C5         3.1030   19.3460    9.4510 C.2   577  W22577      0.0595
     13  N2         4.4610   19.1770    9.5800 N.2   577  W22577     -0.2665
     14  C3         0.8330   19.5140   10.3110 C.2   577  W22577     -0.0188
     15  C2         0.3720   19.7610    9.0360 C.2   577  W22577     -0.0041
     16  C1         1.2530   19.8080    7.9540 C.2   577  W22577      0.0009
     17  C6         2.6200   19.6030    8.1610 C.2   577  W22577      0.0146
@<TRIPOS>BOND
     1    16    17    2
     2    16    15    1
     3    17    12    1
     4    15    14    2
     5     7     5   ar
     6    12    13    2
     7    12    11    1
     8    13     3    1
     9     5     6   ar
    10     5     4    1
    11    14    11    1
    12    11    10    1
    13     4     3    1
    14     3     2    1
    15     2     1    2
    16     2     8   am
    17    10     8    1
    18     8     9    1
