@<TRIPOS>MOLECULE
2wky_IBC_A_1.pdb
 17 18 0 0 0
SMALL
GASTEIGER

@<TRIPOS>ATOM
      1  O4        29.6390    2.2440   76.8850 O.co2 1260  IBC1260    -0.2440
      2  C11       30.6440    2.3560   76.1510 C.2   1260  IBC1260     0.3822
      3  O3        30.8780    3.3040   75.3740 O.co2 1260  IBC1260    -0.2440
      4  C10       31.6770    1.2270   76.2010 C.3   1260  IBC1260     0.1986
      5  N2        32.8270    1.6070   75.3690 N.3   1260  IBC1260    -0.1205
      6  C9        32.1410    1.0080   77.6440 C.3   1260  IBC1260     0.0574
      7  C4        33.3570    0.0820   77.6990 C.2   1260  IBC1260    -0.0106
      8  C1        33.1380   -1.2620   77.4230 C.2   1260  IBC1260     0.1145
      9  C5        34.6010    0.6450   77.9750 C.2   1260  IBC1260    -0.0295
     10  C6        35.8430    0.0290   78.0890 C.3   1260  IBC1260     0.0262
     11  C7        36.2010   -1.3110   77.9680 C.3   1260  IBC1260     0.0127
     12  C8        35.5650   -2.0120   76.7650 C.3   1260  IBC1260     0.0684
     13  C3        34.0610   -2.1990   76.9810 C.2   1260  IBC1260     0.1643
     14  O1        33.4140   -3.3860   76.7860 O.2   1260  IBC1260    -0.3479
     15  N1        32.0460   -3.1810   77.1220 N.2   1260  IBC1260    -0.0005
     16  C2        31.9110   -1.9110   77.4990 C.1   1260  IBC1260     0.1916
     17  O2        30.8550   -1.4030   77.8680 O.2   1260  IBC1260    -0.2190
@<TRIPOS>BOND
     1     5     4    1
     2     3     2   ar
     3     2     4    1
     4     2     1   ar
     5     4     6    1
     6    12    13    1
     7    12    11    1
     8    14    13    1
     9    14    15    1
    10    13     8    2
    11    15    16    2
    12     8    16    1
    13     8     7    1
    14    16    17    2
    15     6     7    1
    16     7     9    2
    17    11    10    1
    18     9    10    1
