@<TRIPOS>MOLECULE
2wl4_COA_A_1.pdb
 48 50 0 0 0
SMALL
GASTEIGER

@<TRIPOS>ATOM
      1  N1A       36.2930  -28.4820   21.1370 N.2   1402  COA1402     0.0021
      2  C2A       36.3580  -28.5450   22.4850 C.3   1402  COA1402     0.5254
      3  N3A       35.7490  -27.6660   23.3050 N.2   1402  COA1402    -0.0055
      4  C4A       35.0310  -26.6600   22.7890 C.2   1402  COA1402     0.3518
      5  C5A       34.9220  -26.5460   21.3490 C.2   1402  COA1402     0.2526
      6  C6A       35.6060  -27.5310   20.4940 C.2   1402  COA1402     0.4393
      7  N6A       35.5390  -27.4670   19.1420 N.pl3 1402  COA1402     0.2180
      8  N7A       34.1610  -25.4880   21.0440 N.2   1402  COA1402    -0.2095
      9  C8A       33.7960  -24.9380   22.2210 C.3   1402  COA1402     0.3377
     10  N9A       34.3110  -25.6420   23.2580 N.pl3 1402  COA1402    -0.1439
     11  C1B       34.1460  -25.3720   24.7050 C.3   1402  COA1402     0.3185
     12  C2B       34.7490  -24.0440   25.1010 C.3   1402  COA1402     0.2543
     13  O2B       36.1550  -24.1470   25.3060 O.3   1402  COA1402    -0.2131
     14  C3B       34.0540  -23.7830   26.4130 C.3   1402  COA1402     0.1928
     15  O3B       34.8430  -24.3920   27.4260 O.3   1402  COA1402    -0.2673
     16  P3B       34.7870  -23.8010   28.9190 P.3   1402  COA1402     0.5327
     17  O7A       35.8890  -24.6500   29.8960 O.3   1402  COA1402    -0.1145
     18  O8A       33.2060  -23.9740   29.5100 O.3   1402  COA1402    -0.1145
     19  O9A       35.1930  -22.3460   28.8810 O.2   1402  COA1402    -0.2224
     20  C4B       32.7210  -24.4930   26.2720 C.3   1402  COA1402     0.1795
     21  O4B       32.7770  -25.2590   25.0710 O.3   1402  COA1402    -0.3136
     22  C5B       31.6220  -23.4680   26.1090 C.3   1402  COA1402     0.1812
     23  O5B       31.9200  -22.6810   24.9600 O.3   1402  COA1402    -0.3112
     24  P1A       31.4330  -21.1500   24.9770 P.3   1402  COA1402     0.2189
     25  O1A       31.8540  -20.5150   26.2820 O.3   1402  COA1402    -0.4371
     26  O2A       32.0110  -20.3160   23.6260 O.2   1402  COA1402    -0.5170
     27  O3A       29.8420  -21.3790   24.8860 O.3   1402  COA1402    -0.2703
     28  P2A       28.7830  -20.1890   25.0920 P.3   1402  COA1402     0.2188
     29  O4A       27.5290  -20.6920   25.7660 O.2   1402  COA1402    -0.5170
     30  O5A       29.5070  -18.9230   25.9590 O.3   1402  COA1402    -0.4371
     31  O6A       28.4540  -19.7660   23.5720 O.3   1402  COA1402    -0.3138
     32  CBP       27.0780  -20.2210   21.6350 C.3   1402  COA1402     0.0645
     33  CCP       28.1060  -20.7590   22.6180 C.3   1402  COA1402     0.1519
     34  CDP       26.7980  -21.3090   20.6050 C.3   1402  COA1402     0.0056
     35  CEP       25.7950  -19.8430   22.3720 C.3   1402  COA1402     0.0056
     36  CAP       27.6210  -18.9800   20.9270 C.3   1402  COA1402     0.2312
     37  OAP       28.9410  -19.2030   20.3920 O.3   1402  COA1402    -0.2131
     38  C9P       26.6430  -18.6400   19.8370 C.2   1402  COA1402     0.2719
     39  O9P       25.5290  -18.2210   20.1510 O.2   1402  COA1402    -0.2706
     40  N8P       27.0120  -18.7970   18.5550 N.am  1402  COA1402    -0.2028
     41  C7P       26.0230  -18.4800   17.5340 C.3   1402  COA1402     0.1248
     42  C6P       26.5270  -17.8110   16.2590 C.3   1402  COA1402     0.1102
     43  C5P       25.3180  -17.3890   15.4400 C.2   1402  COA1402     0.2432
     44  O5P       24.1900  -17.6990   15.7790 O.2   1402  COA1402    -0.2733
     45  N4P       25.5540  -16.6800   14.3410 N.am  1402  COA1402    -0.2044
     46  C3P       24.4950  -16.2040   13.4650 C.3   1402  COA1402     0.1276
     47  C2P       23.4590  -17.2640   13.1080 C.3   1402  COA1402     0.0920
     48  S1P       22.5350  -16.7960   11.6230 S.3   1402  COA1402    -0.0802
@<TRIPOS>BOND
     1    48    47    1
     2    47    46    1
     3    46    45    1
     4    45    43   am
     5    43    44    2
     6    43    42    1
     7    42    41    1
     8    41    40    1
     9    40    38   am
    10     7     6    1
    11    38    39    2
    12    38    36    1
    13    37    36    1
    14     6     1    2
    15     6     5    1
    16    34    32    1
    17    36    32    1
    18     8     5    2
    19     8     9    1
    20     1     2    1
    21     5     4    1
    22    32    35    1
    23    32    33    1
    24     9    10    1
    25     2     3    1
    26    33    31    1
    27     4    10    1
    28     4     3    2
    29    10    11    1
    30    31    28    1
    31    26    24    2
    32    11    21    1
    33    11    12    1
    34    27    24    1
    35    27    28    1
    36    23    24    1
    37    23    22    1
    38    24    25    1
    39    21    20    1
    40    28    29    2
    41    28    30    1
    42    12    13    1
    43    12    14    1
    44    22    20    1
    45    20    14    1
    46    14    15    1
    47    15    16    1
    48    19    16    2
    49    16    18    1
    50    16    17    1
