@<TRIPOS>MOLECULE
2wl5_DNO_A_1.pdb
 12 11 0 0 0
SMALL
GASTEIGER

@<TRIPOS>ATOM
      1  C1        45.1980  -37.0620   23.5620 C.3   1398  DNO1398     0.2175
      2  C2        44.9580  -35.5470   23.5670 C.3   1398  DNO1398     0.2175
      3  C3        43.5020  -35.0970   23.2190 C.3   1398  DNO1398     0.2175
      4  C4        42.3300  -35.6330   24.2100 C.3   1398  DNO1398     0.2175
      5  C5        40.9270  -35.1490   23.8200 C.3   1398  DNO1398     0.2175
      6  C6        39.8990  -35.3660   24.8890 C.3   1398  DNO1398     0.2175
      7  O1        46.3370  -37.5250   24.1770 O.3   1398  DNO1398    -0.2175
      8  O2        45.5320  -34.8630   24.6830 O.3   1398  DNO1398    -0.2175
      9  O3        43.4480  -33.7010   22.9990 O.3   1398  DNO1398    -0.2175
     10  O4        42.3530  -37.0190   24.4780 O.3   1398  DNO1398    -0.2175
     11  O5        40.8730  -33.8590   23.2240 O.3   1398  DNO1398    -0.2175
     12  O6        38.5750  -34.8490   24.6830 O.3   1398  DNO1398    -0.2175
@<TRIPOS>BOND
     1     9     3    1
     2     3     2    1
     3     3     4    1
     4    11     5    1
     5     1     2    1
     6     1     7    1
     7     2     8    1
     8     5     4    1
     9     5     6    1
    10     4    10    1
    11    12     6    1
