@<TRIPOS>MOLECULE
2wl5_COA_A_1.pdb
 48 50 0 0 0
SMALL
GASTEIGER

@<TRIPOS>ATOM
      1  N1A       36.4830  -28.3970   21.0790 N.2   1399  COA1399     0.0021
      2  C2A       36.5130  -28.5050   22.4250 C.3   1399  COA1399     0.5254
      3  N3A       35.9050  -27.5280   23.2140 N.2   1399  COA1399    -0.0055
      4  C4A       35.3030  -26.5110   22.6400 C.2   1399  COA1399     0.3518
      5  C5A       35.2720  -26.4020   21.3030 C.2   1399  COA1399     0.2526
      6  C6A       35.8780  -27.3780   20.5120 C.2   1399  COA1399     0.4393
      7  N6A       35.8220  -27.2590   19.0700 N.pl3 1399  COA1399     0.2180
      8  N7A       34.5720  -25.2470   20.9780 N.2   1399  COA1399    -0.2095
      9  C8A       34.1570  -24.6250   22.1790 C.3   1399  COA1399     0.3377
     10  N9A       34.6020  -25.3760   23.1790 N.pl3 1399  COA1399    -0.1439
     11  C1B       34.3390  -25.1270   24.5910 C.3   1399  COA1399     0.3185
     12  C2B       34.9410  -24.1060   25.5070 C.3   1399  COA1399     0.2543
     13  O2B       36.3320  -23.9250   25.6100 O.3   1399  COA1399    -0.2131
     14  C3B       34.0510  -24.1510   26.7040 C.3   1399  COA1399     0.1928
     15  O3B       34.5040  -24.7300   27.9010 O.3   1399  COA1399    -0.2673
     16  P3B       34.4120  -23.8550   29.2820 P.3   1399  COA1399     0.5327
     17  O7A       34.7500  -24.8580   30.5490 O.3   1399  COA1399    -0.1145
     18  O8A       32.8960  -23.2340   29.4490 O.3   1399  COA1399    -0.1145
     19  O9A       35.4250  -22.7390   29.2080 O.2   1399  COA1399    -0.2224
     20  C4B       32.6510  -24.4880   26.1550 C.3   1399  COA1399     0.1795
     21  O4B       32.9220  -25.2450   24.9150 O.3   1399  COA1399    -0.3136
     22  C5B       31.6040  -23.3670   25.9910 C.3   1399  COA1399     0.1812
     23  O5B       31.6910  -22.6200   24.7850 O.3   1399  COA1399    -0.3112
     24  P1A       31.6780  -20.9580   24.9660 P.3   1399  COA1399     0.2189
     25  O1A       32.9490  -20.5300   25.9310 O.3   1399  COA1399    -0.4371
     26  O2A       31.7640  -20.2210   23.6650 O.2   1399  COA1399    -0.5170
     27  O3A       30.2380  -20.5160   25.6910 O.3   1399  COA1399    -0.2703
     28  P2A       29.4120  -19.2250   25.0300 P.3   1399  COA1399     0.2188
     29  O4A       27.9800  -19.0420   25.8340 O.3   1399  COA1399    -0.4371
     30  O5A       30.2580  -17.9890   25.2130 O.2   1399  COA1399    -0.5170
     31  O6A       29.1300  -19.4400   23.3910 O.3   1399  COA1399    -0.3138
     32  CBP       27.2220  -20.1430   21.8850 C.3   1399  COA1399     0.0645
     33  CCP       28.2680  -20.4910   22.9740 C.3   1399  COA1399     0.1519
     34  CDP       27.0630  -21.3250   20.9250 C.3   1399  COA1399     0.0056
     35  CEP       25.8940  -19.8170   22.5560 C.3   1399  COA1399     0.0056
     36  CAP       27.6910  -18.9080   21.0830 C.3   1399  COA1399     0.2312
     37  OAP       28.9990  -19.0080   20.5640 O.3   1399  COA1399    -0.2131
     38  C9P       26.6580  -18.5990   19.9730 C.2   1399  COA1399     0.2719
     39  O9P       25.5880  -18.1310   20.2300 O.2   1399  COA1399    -0.2706
     40  N8P       27.0180  -19.0820   18.6290 N.am  1399  COA1399    -0.2028
     41  C7P       26.1350  -18.8560   17.4840 C.3   1399  COA1399     0.1248
     42  C6P       26.1940  -17.4000   16.9910 C.3   1399  COA1399     0.1102
     43  C5P       25.1700  -16.9960   15.9320 C.2   1399  COA1399     0.2432
     44  O5P       24.0560  -17.4240   15.9840 O.2   1399  COA1399    -0.2733
     45  N4P       25.6630  -16.3030   14.7400 N.am  1399  COA1399    -0.2044
     46  C3P       24.6960  -16.1140   13.6930 C.3   1399  COA1399     0.1276
     47  C2P       24.0030  -17.3940   13.2450 C.3   1399  COA1399     0.0920
     48  S1P       22.7520  -17.1450   11.9580 S.3   1399  COA1399    -0.0802
@<TRIPOS>BOND
     1    48    47    1
     2    47    46    1
     3    46    45    1
     4    45    43   am
     5    43    44    2
     6    43    42    1
     7    42    41    1
     8    41    40    1
     9    40    38   am
    10     7     6    1
    11    38    39    2
    12    38    36    1
    13     6     1    2
    14     6     5    1
    15    37    36    1
    16    34    32    1
    17     8     5    2
    18     8     9    1
    19     1     2    1
    20    36    32    1
    21     5     4    1
    22    32    35    1
    23    32    33    1
    24     9    10    1
    25     2     3    1
    26     4    10    1
    27     4     3    2
    28    33    31    1
    29    10    11    1
    30    31    28    1
    31    26    24    2
    32    11    21    1
    33    11    12    1
    34    23    24    1
    35    23    22    1
    36    21    20    1
    37    24    27    1
    38    24    25    1
    39    28    30    2
    40    28    27    1
    41    28    29    1
    42    12    13    1
    43    12    14    1
    44    22    20    1
    45    20    14    1
    46    14    15    1
    47    15    16    1
    48    19    16    2
    49    16    18    1
    50    16    17    1
