@<TRIPOS>MOLECULE
2wle_COA_A_1.pdb
 48 50 0 0 0
SMALL
GASTEIGER

@<TRIPOS>ATOM
      1  N1A       35.4010  -27.1870  -13.3060 N.2   1215  COA1215     0.0021
      2  C2A       36.4820  -27.4090  -12.4930 C.3   1215  COA1215     0.5254
      3  N3A       36.9280  -26.4020  -11.6780 N.2   1215  COA1215    -0.0055
      4  C4A       36.3070  -25.2080  -11.6620 C.2   1215  COA1215     0.3518
      5  C5A       35.2120  -24.9680  -12.4680 C.2   1215  COA1215     0.2526
      6  C6A       34.7540  -25.9710  -13.3040 C.2   1215  COA1215     0.4393
      7  N6A       34.0490  -25.6360  -14.3790 N.pl3 1215  COA1215     0.2180
      8  N7A       34.8070  -23.6970  -12.2450 N.2   1215  COA1215    -0.2095
      9  C8A       35.6210  -23.1340  -11.3250 C.3   1215  COA1215     0.3377
     10  N9A       36.5590  -24.0630  -10.9610 N.pl3 1215  COA1215    -0.1439
     11  C1B       37.6750  -23.8870  -10.0220 C.3   1215  COA1215     0.3185
     12  C2B       38.6190  -22.7570  -10.3990 C.3   1215  COA1215     0.2543
     13  O2B       39.6910  -23.1550  -11.2180 O.3   1215  COA1215    -0.2131
     14  C3B       39.1180  -22.3280   -9.0430 C.3   1215  COA1215     0.1928
     15  O3B       40.1320  -23.1970   -8.6050 O.3   1215  COA1215    -0.2673
     16  P3B       41.3890  -22.6280   -7.7680 P.3   1215  COA1215     0.5327
     17  O7A       40.9070  -21.5570   -6.8130 O.3   1215  COA1215    -0.1145
     18  O8A       42.4080  -22.0410   -8.7300 O.2   1215  COA1215    -0.2224
     19  O9A       41.9830  -23.7700   -6.9890 O.3   1215  COA1215    -0.1145
     20  C4B       37.9070  -22.5170   -8.1560 C.3   1215  COA1215     0.1795
     21  O4B       37.1380  -23.5360   -8.7650 O.3   1215  COA1215    -0.3136
     22  C5B       37.1010  -21.2280   -8.0660 C.3   1215  COA1215     0.1812
     23  O5B       36.9490  -20.6920   -9.3640 O.3   1215  COA1215    -0.3112
     24  P1A       36.7720  -19.0990   -9.5510 P.3   1215  COA1215     0.2189
     25  O1A       36.7570  -18.7800  -11.0140 O.2   1215  COA1215    -0.5170
     26  O2A       37.8660  -18.3680   -8.8030 O.3   1215  COA1215    -0.4371
     27  O3A       35.3160  -18.7820   -8.9140 O.3   1215  COA1215    -0.2703
     28  P2A       34.7440  -17.2780   -8.7360 P.3   1215  COA1215     0.2188
     29  O4A       34.4220  -17.0190   -7.2780 O.3   1215  COA1215    -0.4371
     30  O5A       35.6820  -16.2050   -9.2280 O.2   1215  COA1215    -0.5170
     31  O6A       33.3830  -17.3730   -9.6070 O.3   1215  COA1215    -0.3138
     32  CBP       31.4310  -18.5470  -10.4280 C.3   1215  COA1215     0.0645
     33  CCP       32.5960  -18.5390   -9.4490 C.3   1215  COA1215     0.1519
     34  CDP       30.6350  -17.2640  -10.2670 C.3   1215  COA1215     0.0056
     35  CEP       30.5380  -19.7410  -10.1330 C.3   1215  COA1215     0.0056
     36  CAP       31.9860  -18.6620  -11.8410 C.3   1215  COA1215     0.2312
     37  OAP       32.7490  -19.8440  -11.9110 O.3   1215  COA1215    -0.2131
     38  C9P       30.9040  -18.7200  -12.8750 C.2   1215  COA1215     0.2719
     39  O9P       30.2620  -19.9530  -13.1110 O.2   1215  COA1215    -0.2706
     40  N8P       30.6350  -17.5820  -13.5290 N.am  1215  COA1215    -0.2028
     41  C7P       29.5280  -17.4340  -14.4660 C.3   1215  COA1215     0.1248
     42  C6P       28.2440  -17.0180  -13.7410 C.3   1215  COA1215     0.1102
     43  C5P       27.1120  -16.7530  -14.7040 C.2   1215  COA1215     0.2432
     44  O5P       26.5250  -17.6880  -15.2980 O.2   1215  COA1215    -0.2733
     45  N4P       26.7930  -15.4660  -14.8430 N.am  1215  COA1215    -0.2044
     46  C3P       25.6670  -15.0270  -15.6400 C.3   1215  COA1215     0.1276
     47  C2P       24.3590  -15.6010  -15.1090 C.3   1215  COA1215     0.0920
     48  S1P       23.8460  -14.7880  -13.5760 S.3   1215  COA1215    -0.0802
@<TRIPOS>BOND
     1    46    47    1
     2    46    45    1
     3    44    43    2
     4    47    48    1
     5    45    43   am
     6    43    42    1
     7    41    42    1
     8    41    40    1
     9     7     6    1
    10    40    38   am
    11     1     6    2
    12     1     2    1
    13     6     5    1
    14    39    38    2
    15    38    36    1
    16     2     3    1
    17     5     8    2
    18     5     4    1
    19     8     9    1
    20    37    36    1
    21    36    32    1
    22     3     4    2
    23     4    10    1
    24     9    10    1
    25    13    12    1
    26    25    24    2
    27    10    11    1
    28    32    34    1
    29    32    35    1
    30    32    33    1
    31    12    11    1
    32    12    14    1
    33    11    21    1
    34    31    33    1
    35    31    28    1
    36    24    23    1
    37    24    27    1
    38    24    26    1
    39    23    22    1
    40    30    28    2
    41    14    15    1
    42    14    20    1
    43    27    28    1
    44    21    20    1
    45    28    29    1
    46    18    16    2
    47    15    16    1
    48    20    22    1
    49    16    19    1
    50    16    17    1
