@<TRIPOS>MOLECULE
2wlq_MAN_A_1.pdb
 11 11 0 0 0
SMALL
GASTEIGER

@<TRIPOS>ATOM
      1  C1       -10.7200   44.9070   57.2850 C.3   1305  MAN1305     0.1777
      2  C2        -9.3630   44.2250   57.4420 C.3   1305  MAN1305     0.2141
      3  C3        -8.7460   44.6040   58.7780 C.3   1305  MAN1305     0.2173
      4  C4        -8.6360   46.1260   58.8990 C.3   1305  MAN1305     0.2142
      5  C5       -10.0040   46.7820   58.6250 C.3   1305  MAN1305     0.1810
      6  C6        -9.8920   48.3040   58.5360 C.3   1305  MAN1305     0.2141
      7  O2        -8.5090   44.6310   56.3960 O.3   1305  MAN1305    -0.2176
      8  O3        -7.4780   43.9970   58.8940 O.3   1305  MAN1305    -0.2175
      9  O4        -8.1470   46.4420   60.1920 O.3   1305  MAN1305    -0.2176
     10  O5       -10.5690   46.3150   57.4010 O.3   1305  MAN1305    -0.3481
     11  O6       -11.1790   48.8390   58.3080 O.3   1305  MAN1305    -0.2176
@<TRIPOS>BOND
     1     7     2    1
     2     1    10    1
     3     1     2    1
     4    10     5    1
     5     2     3    1
     6    11     6    1
     7     6     5    1
     8     5     4    1
     9     3     8    1
    10     3     4    1
    11     4     9    1
