@<TRIPOS>MOLECULE
2wls_X13_A_1.pdb
 18 17 0 0 0
SMALL
GASTEIGER

@<TRIPOS>ATOM
      1  C4        37.2270   25.7540    8.9620 C.3   1543  X131543     0.0687
      2  C5        36.1810   24.8600    8.2960 C.3   1543  X131543     0.0125
      3  C6        35.2690   24.1780    9.3160 C.3   1543  X131543     0.0009
      4  C7        34.4140   23.1190    8.6210 C.3   1543  X131543     0.0000
      5  C8        33.0750   22.9010    9.3250 C.3   1543  X131543     0.0000
      6  C9        32.1380   22.0420    8.4790 C.3   1543  X131543     0.0000
      7  C10       30.7930   21.8400    9.1660 C.3   1543  X131543     0.0000
      8  C11       30.7580   20.5000    9.8870 C.3   1543  X131543    -0.0000
      9  C12       29.3790   20.1470   10.4340 C.3   1543  X131543    -0.0000
     10  C13       29.5450   19.2760   11.6730 C.3   1543  X131543    -0.0001
     11  C14       28.2900   18.4560   11.9430 C.3   1543  X131543    -0.0021
     12  C15       28.1650   18.1620   13.4330 C.3   1543  X131543    -0.0223
     13  C16       26.7130   17.9100   13.8330 C.3   1543  X131543    -0.0733
     14  N1        26.3910   18.8040   14.9530 N.4   1543  X131543     0.3857
     15  C19       24.9740   18.6740   15.3090 C.3   1543  X131543    -0.0960
     16  S18       38.6580   25.9440    7.9350 S.3   1543  X131543    -0.0821
     17  C17       26.6520   20.2010   14.5500 C.3   1543  X131543    -0.0960
     18  C18       27.2120   18.4240   16.1130 C.3   1543  X131543    -0.0960
@<TRIPOS>BOND
     1    16     1    1
     2     2     1    1
     3     2     3    1
     4     6     7    1
     5     6     5    1
     6     4     3    1
     7     4     5    1
     8     7     8    1
     9     8     9    1
    10     9    10    1
    11    10    11    1
    12    11    12    1
    13    12    13    1
    14    13    14    1
    15    17    14    1
    16    14    15    1
    17    14    18    1
