@<TRIPOS>MOLECULE
2wly_NGT_A_1.pdb
 14 15 0 0 0
SMALL
GASTEIGER

@<TRIPOS>ATOM
      1  C1        27.8580   74.6070    0.8840 C.3   1572  NGT1572     0.1925
      2  C2        27.8620   73.1010    0.5680 C.3   1572  NGT1572     0.1740
      3  C3        28.5030   73.0640   -0.8470 C.3   1572  NGT1572     0.2101
      4  C4        27.8500   74.0390   -1.8920 C.3   1572  NGT1572     0.2137
      5  C5        27.8180   75.4690   -1.4020 C.3   1572  NGT1572     0.1820
      6  C6        27.0860   76.4740   -2.2830 C.3   1572  NGT1572     0.2142
      7  C7        29.7150   73.3520    1.9800 C.2   1572  NGT1572     0.0815
      8  C8        30.8720   72.8570    2.8080 C.3   1572  NGT1572     0.0587
      9  N2        28.9210   72.5390    1.3980 N.2   1572  NGT1572    -0.2643
     10  S1        29.3770   74.9730    1.7370 S.3   1572  NGT1572    -0.0689
     11  O3        28.5340   71.7430   -1.4360 O.3   1572  NGT1572    -0.2181
     12  O4        28.5970   74.1480   -3.1200 O.3   1572  NGT1572    -0.2176
     13  O5        27.2890   75.5140   -0.0890 O.3   1572  NGT1572    -0.3400
     14  O6        25.7120   76.4000   -1.9740 O.3   1572  NGT1572    -0.2176
@<TRIPOS>BOND
     1    12     4    1
     2     6    14    1
     3     6     5    1
     4     4     5    1
     5     4     3    1
     6    11     3    1
     7     5    13    1
     8     3     2    1
     9    13     1    1
    10     2     1    1
    11     2     9    1
    12     1    10    1
    13     9     7    2
    14    10     7    1
    15     7     8    1
