@<TRIPOS>MOLECULE
2wly_SN5_A_1.pdb
 14 14 0 0 0
SMALL
GASTEIGER

@<TRIPOS>ATOM
      1  C1        28.1140   73.5570   -4.2230 C.3   1571  SN51571     0.1664
      2  S7        29.2080   77.2730   -5.7190 S.2   1571  SN51571    -0.0379
      3  C2        28.3700   74.3420   -5.5300 C.3   1571  SN51571     0.1550
      4  C3        28.2920   73.3820   -6.7470 C.3   1571  SN51571     0.2068
      5  C4        29.1390   72.1230   -6.4910 C.3   1571  SN51571     0.2134
      6  C5        28.9020   71.4690   -5.1250 C.3   1571  SN51571     0.1809
      7  C6        29.8650   70.2980   -4.8730 C.3   1571  SN51571     0.2141
      8  C7        27.6130   76.7020   -5.7060 C.2   1571  SN51571     0.0788
      9  C8        26.4550   77.6750   -5.8250 C.3   1571  SN51571     0.0566
     10  N2        27.3350   75.3660   -5.6220 N.am  1571  SN51571    -0.2315
     11  O3        29.0150   73.9200   -7.8420 O.3   1571  SN51571    -0.2184
     12  O4        28.7560   71.2220   -7.4810 O.3   1571  SN51571    -0.2176
     13  O5        29.0280   72.4440   -4.0960 O.3   1571  SN51571    -0.3489
     14  O6        29.4780   69.5060   -3.7380 O.3   1571  SN51571    -0.2176
@<TRIPOS>BOND
     1    11     4    1
     2    12     5    1
     3     4     5    1
     4     4     3    1
     5     5     6    1
     6     9     8    1
     7     2     8    2
     8     8    10    1
     9    10     3    1
    10     3     1    1
    11     6     7    1
    12     6    13    1
    13     7    14    1
    14     1    13    1
