@<TRIPOS>MOLECULE
2wlz_NGT_A_1.pdb
 14 15 0 0 0
SMALL
GASTEIGER

@<TRIPOS>ATOM
      1  C1        28.2890   74.4350    1.0540 C.3   1569  NGT1569     0.1925
      2  C2        28.3970   72.9490    0.6140 C.3   1569  NGT1569     0.1740
      3  C3        28.9560   72.9300   -0.8280 C.3   1569  NGT1569     0.2101
      4  C4        28.2800   73.9850   -1.7740 C.3   1569  NGT1569     0.2137
      5  C5        28.2890   75.4200   -1.1740 C.3   1569  NGT1569     0.1820
      6  C6        27.5550   76.5210   -1.9730 C.3   1569  NGT1569     0.2142
      7  C7        30.1390   73.2310    2.1350 C.2   1569  NGT1569     0.0815
      8  C8        31.2910   72.7610    2.9300 C.3   1569  NGT1569     0.0587
      9  N2        29.4890   72.4090    1.4180 N.2   1569  NGT1569    -0.2643
     10  S1        29.6930   74.8430    2.0740 S.3   1569  NGT1569    -0.0689
     11  O3        29.0590   71.5870   -1.3970 O.3   1569  NGT1569    -0.2181
     12  O4        29.0350   74.2340   -2.9690 O.3   1569  NGT1569    -0.2176
     13  O5        27.7510   75.4240    0.1440 O.3   1569  NGT1569    -0.3400
     14  O6        26.1420   76.3400   -1.8650 O.3   1569  NGT1569    -0.2176
@<TRIPOS>BOND
     1    12     4    1
     2     6    14    1
     3     6     5    1
     4     4     5    1
     5     4     3    1
     6    11     3    1
     7     5    13    1
     8     3     2    1
     9    13     1    1
    10     2     1    1
    11     2     9    1
    12     1    10    1
    13     9     7    2
    14    10     7    1
    15     7     8    1
