@<TRIPOS>MOLECULE
2wm0_NGT_A_1.pdb
 14 15 0 0 0
SMALL
GASTEIGER

@<TRIPOS>ATOM
      1  C1        28.2810   74.3900    1.1040 C.3   1564  NGT1564     0.1925
      2  C2        28.4020   72.8820    0.7470 C.3   1564  NGT1564     0.1740
      3  C3        28.9590   72.8340   -0.7150 C.3   1564  NGT1564     0.2101
      4  C4        28.3160   73.8900   -1.6860 C.3   1564  NGT1564     0.2137
      5  C5        28.3430   75.3050   -1.0850 C.3   1564  NGT1564     0.1820
      6  C6        27.6030   76.3800   -1.8970 C.3   1564  NGT1564     0.2142
      7  C7        30.2180   73.2590    2.1760 C.2   1564  NGT1564     0.0815
      8  C8        31.4180   72.8250    2.9670 C.3   1564  NGT1564     0.0587
      9  N2        29.5250   72.3990    1.5540 N.2   1564  NGT1564    -0.2643
     10  S1        29.7320   74.8780    2.0140 S.3   1564  NGT1564    -0.0689
     11  O3        29.0800   71.5080   -1.3210 O.3   1564  NGT1564    -0.2181
     12  O4        29.0290   74.1080   -2.9200 O.3   1564  NGT1564    -0.2176
     13  O5        27.7370   75.3140    0.1810 O.3   1564  NGT1564    -0.3400
     14  O6        26.2010   76.1340   -1.7800 O.3   1564  NGT1564    -0.2176
@<TRIPOS>BOND
     1    12     4    1
     2     6    14    1
     3     6     5    1
     4     4     5    1
     5     4     3    1
     6    11     3    1
     7     5    13    1
     8     3     2    1
     9    13     1    1
    10     2     1    1
    11     2     9    1
    12     1    10    1
    13     9     7    2
    14    10     7    1
    15     7     8    1
