@<TRIPOS>MOLECULE
2wm1_13P_A_1.pdb
 10 9 0 0 0
SMALL
GASTEIGER

@<TRIPOS>ATOM
      1  P        -18.3080   20.4090   15.2780 P.3   1334  13P1334     0.5330
      2  O1P      -17.2260   21.4370   15.4740 O.3   1334  13P1334    -0.1145
      3  O2P      -18.5000   19.4350   16.4210 O.3   1334  13P1334    -0.1145
      4  O3P      -18.1990   19.6990   13.9540 O.2   1334  13P1334    -0.2224
      5  O1       -19.6970   21.2150   15.2380 O.3   1334  13P1334    -0.2621
      6  C1       -20.7760   20.7820   16.0620 C.3   1334  13P1334     0.2204
      7  C2       -21.5760   21.9900   16.4770 C.2   1334  13P1334     0.2140
      8  O2       -20.9720   22.9750   16.8810 O.2   1334  13P1334    -0.2906
      9  C3       -23.0860   22.0140   16.3770 C.3   1334  13P1334     0.2485
     10  O3       -23.6780   20.7220   16.6160 O.3   1334  13P1334    -0.2118
@<TRIPOS>BOND
     1     4     1    2
     2     5     1    1
     3     5     6    1
     4     1     2    1
     5     1     3    1
     6     6     7    1
     7     9     7    1
     8     9    10    1
     9     7     8    2
