@<TRIPOS>MOLECULE
2wm4_VGJ_A_1.pdb
 22 21 0 0 0
SMALL
GASTEIGER

@<TRIPOS>ATOM
      1  O1        -1.3730    8.7620  -15.8010 O.co2 1429  VGJ1429    -0.2457
      2  C15       -1.9290    8.9120  -14.6650 C.2   1429  VGJ1429     0.3649
      3  O2        -1.4060    9.6840  -13.8180 O.co2 1429  VGJ1429    -0.2457
      4  C14       -3.2170    8.1370  -14.2780 C.3   1429  VGJ1429     0.1140
      5  C13       -4.5280    8.9400  -13.9680 C.3   1429  VGJ1429     0.0113
      6  C16       -4.3020   10.1250  -13.0170 C.3   1429  VGJ1429     0.0006
      7  C12       -5.7450    8.0710  -13.5090 C.3   1429  VGJ1429     0.0006
      8  C11       -6.3750    8.3960  -12.1150 C.3   1429  VGJ1429     0.0000
      9  C10       -7.8640    8.0520  -11.8540 C.3   1429  VGJ1429     0.0000
     10  C9        -8.1210    6.8450  -10.9210 C.3   1429  VGJ1429     0.0000
     11  C17       -7.9950    7.1820   -9.4310 C.3   1429  VGJ1429     0.0000
     12  C8        -9.4760    6.1870  -11.2390 C.3   1429  VGJ1429     0.0000
     13  C7        -9.8180    4.8440  -10.5540 C.3   1429  VGJ1429     0.0000
     14  C6       -10.7170    3.9300  -11.4310 C.3   1429  VGJ1429     0.0000
     15  C5       -11.9700    3.2780  -10.8110 C.3   1429  VGJ1429     0.0000
     16  C18      -12.6880    4.1980   -9.8490 C.3   1429  VGJ1429     0.0000
     17  C4       -13.0710    2.9420  -11.8250 C.3   1429  VGJ1429     0.0000
     18  C3       -12.7280    2.4100  -13.2160 C.3   1429  VGJ1429     0.0000
     19  C2       -13.9370    1.6670  -13.7850 C.3   1429  VGJ1429     0.0000
     20  C1       -13.7800    1.3030  -15.2420 C.3   1429  VGJ1429     0.0000
     21  C19      -14.0590    2.4960  -16.1460 C.3   1429  VGJ1429     0.0000
     22  C20      -14.5970    0.0680  -15.6240 C.3   1429  VGJ1429     0.0000
@<TRIPOS>BOND
     1    21    20    1
     2     1     2   ar
     3    22    20    1
     4    20    19    1
     5     2     4    1
     6     2     3   ar
     7     4     5    1
     8     5     7    1
     9     5     6    1
    10    19    18    1
    11     7     8    1
    12    18    17    1
    13     8     9    1
    14     9    10    1
    15    17    15    1
    16    14    15    1
    17    14    13    1
    18    12    10    1
    19    12    13    1
    20    10    11    1
    21    15    16    1
