@<TRIPOS>MOLECULE
2wm4_HEM_A_1.pdb
 43 50 0 0 0
SMALL
GASTEIGER

@<TRIPOS>ATOM
      1 FE        -17.3510   -2.3750  -16.8260 Fe    450  HEM450      0.0000
      2  CHA      -14.5900   -3.7040  -15.1330 C.2   450  HEM450      0.0000
      3  CHB      -15.3440   -1.8930  -19.6110 C.2   450  HEM450      0.0000
      4  CHC      -19.9340   -0.6280  -18.3390 C.2   450  HEM450      0.0000
      5  CHD      -19.0180   -1.9820  -13.7700 C.2   450  HEM450      0.0000
      6  NA       -15.3250   -2.7020  -17.2900 N.ar  450  HEM450      0.0000
      7  C1A      -14.3990   -3.3320  -16.4660 C.ar  450  HEM450      0.0000
      8  C2A      -13.1730   -3.5260  -17.2410 C.ar  450  HEM450      0.0000
      9  C3A      -13.3900   -3.0480  -18.4970 C.ar  450  HEM450      0.0000
     10  C4A      -14.7260   -2.4990  -18.5320 C.ar  450  HEM450      0.0000
     11  CMA      -12.4110   -3.0260  -19.6850 C.3   450  HEM450      0.0000
     12  CAA      -11.9120   -4.2580  -16.7060 C.3   450  HEM450      0.0000
     13  CBA      -12.0120   -5.7650  -17.1460 C.3   450  HEM450      0.0000
     14  CGA      -10.8170   -6.6800  -16.8660 C.2   450  HEM450      0.0000
     15  O1A       -9.9630   -6.3120  -16.0460 O.co2 450  HEM450      0.0000
     16  O2A      -10.6600   -7.8050  -17.4570 O.co2 450  HEM450      0.0000
     17  NB       -17.5560   -1.3440  -18.5450 N.2   450  HEM450      0.0000
     18  C1B      -16.6980   -1.4720  -19.6210 C.2   450  HEM450      0.0000
     19  C2B      -17.4040   -1.0450  -20.7890 C.2   450  HEM450      0.0000
     20  C3B      -18.6550   -0.7150  -20.4750 C.2   450  HEM450      0.0000
     21  C4B      -18.7800   -0.8790  -19.0440 C.2   450  HEM450      0.0000
     22  CMB      -16.7750   -0.9920  -22.1860 C.3   450  HEM450      0.0000
     23  CAB      -19.7860   -0.1800  -21.3920 C.2   450  HEM450      0.0000
     24  CBB      -19.8040   -0.3380  -22.7280 C.2   450  HEM450      0.0000
     25  NC       -19.1190   -1.4430  -16.1760 N.ar  450  HEM450      0.0000
     26  C1C      -20.0570   -0.8630  -16.9940 C.ar  450  HEM450      0.0000
     27  C2C      -21.2460   -0.5900  -16.2100 C.ar  450  HEM450      0.0000
     28  C3C      -20.9810   -0.9390  -14.9600 C.ar  450  HEM450      0.0000
     29  C4C      -19.6420   -1.4840  -14.9020 C.ar  450  HEM450      0.0000
     30  CMC      -22.5420    0.0610  -16.7620 C.3   450  HEM450      0.0000
     31  CAC      -21.9370   -0.8260  -13.7920 C.2   450  HEM450      0.0000
     32  CBC      -21.5360   -0.5400  -12.5600 C.2   450  HEM450      0.0000
     33  ND       -16.8720   -2.7680  -14.8160 N.2   450  HEM450      0.0000
     34  C1D      -17.7460   -2.5790  -13.7550 C.2   450  HEM450      0.0000
     35  C2D      -17.1200   -3.1010  -12.5710 C.2   450  HEM450      0.0000
     36  C3D      -15.7570   -3.6460  -12.9460 C.2   450  HEM450      0.0000
     37  C4D      -15.6690   -3.3940  -14.3710 C.2   450  HEM450      0.0000
     38  CMD      -17.7080   -3.1560  -11.1390 C.3   450  HEM450      0.0000
     39  CAD      -14.8080   -4.3610  -11.9550 C.3   450  HEM450      0.0000
     40  CBD      -15.1260   -5.8940  -12.0150 C.3   450  HEM450      0.0000
     41  CGD      -14.1580   -6.6970  -11.1590 C.2   450  HEM450      0.0000
     42  O1D      -13.1040   -6.1210  -10.7070 O.co2 450  HEM450      0.0000
     43  O2D      -14.4100   -7.9210  -10.9280 O.co2 450  HEM450      0.0000
@<TRIPOS>BOND
     1    24    23    2
     2    22    19    1
     3    23    20    1
     4    19    20    2
     5    19    18    1
     6    20    21    1
     7    11     9    1
     8    18     3    1
     9    18    17    2
    10     3    10    2
    11    21    17    1
    12    21     4    2
    13    17     1    1
    14    10     9   ar
    15    10     6   ar
    16     9     8   ar
    17     4    26    1
    18    16    14   ar
    19     6     1    1
    20     6     7   ar
    21     8    12    1
    22     8     7   ar
    23    13    14    1
    24    13    12    1
    25    26    27   ar
    26    26    25   ar
    27    14    15   ar
    28     1    25    1
    29     1    33    1
    30    30    27    1
    31     7     2    2
    32    27    28   ar
    33    25    29   ar
    34     2    37    1
    35    28    29   ar
    36    28    31    1
    37    29     5    1
    38    33    37    2
    39    33    34    1
    40    37    36    1
    41    31    32    2
    42     5    34    2
    43    34    35    1
    44    36    35    2
    45    36    39    1
    46    35    38    1
    47    40    39    1
    48    40    41    1
    49    41    43   ar
    50    41    42   ar
