@<TRIPOS>MOLECULE
2wm5_HEM_A_1.pdb
 43 50 0 0 0
SMALL
GASTEIGER

@<TRIPOS>ATOM
      1 FE         22.1450   -3.8380   -1.8900 Fe    450  HEM450      0.0000
      2  CHA       19.0130   -5.2570   -1.3130 C.2   450  HEM450      0.0000
      3  CHB       22.5310   -3.3900    1.5640 C.2   450  HEM450      0.0000
      4  CHC       25.0730   -2.1860   -2.4650 C.2   450  HEM450      0.0000
      5  CHD       21.5690   -3.9260   -5.3500 C.2   450  HEM450      0.0000
      6  NA        21.0050   -4.2150   -0.2270 N.2   450  HEM450      0.0000
      7  C1A       19.7340   -4.8480   -0.2030 C.2   450  HEM450      0.0000
      8  C2A       19.3320   -5.0160    1.1800 C.2   450  HEM450      0.0000
      9  C3A       20.2870   -4.4900    1.9800 C.2   450  HEM450      0.0000
     10  C4A       21.3620   -3.9840    1.1210 C.2   450  HEM450      0.0000
     11  CMA       20.3070   -4.3570    3.5350 C.3   450  HEM450      0.0000
     12  CAA       18.0220   -5.6210    1.6480 C.3   450  HEM450      0.0000
     13  CBA       18.3900   -7.0630    2.1850 C.3   450  HEM450      0.0000
     14  CGA       17.2190   -7.7910    2.8530 C.2   450  HEM450      0.0000
     15  O1A       16.1070   -7.2170    2.8680 O.co2 450  HEM450      0.0000
     16  O2A       17.3940   -8.9180    3.3560 O.co2 450  HEM450      0.0000
     17  NB        23.5120   -2.8840   -0.6910 N.ar  450  HEM450      0.0000
     18  C1B       23.5030   -2.8620    0.7070 C.ar  450  HEM450      0.0000
     19  C2B       24.7320   -2.2710    1.1590 C.ar  450  HEM450      0.0000
     20  C3B       25.4530   -1.9420    0.0020 C.ar  450  HEM450      0.0000
     21  C4B       24.6840   -2.2870   -1.1510 C.ar  450  HEM450      0.0000
     22  CMB       25.1070   -2.0380    2.6560 C.3   450  HEM450      0.0000
     23  CAB       26.8080   -1.2620   -0.1100 C.2   450  HEM450      0.0000
     24  CBB       27.8210   -1.3820    0.7850 C.2   450  HEM450      0.0000
     25  NC        23.1210   -3.1720   -3.5430 N.2   450  HEM450      0.0000
     26  C1C       24.3680   -2.5610   -3.5610 C.2   450  HEM450      0.0000
     27  C2C       24.8200   -2.4130   -4.9530 C.2   450  HEM450      0.0000
     28  C3C       23.8520   -2.9380   -5.7110 C.2   450  HEM450      0.0000
     29  C4C       22.7340   -3.3200   -4.8630 C.2   450  HEM450      0.0000
     30  CMC       26.2350   -1.8750   -5.3720 C.3   450  HEM450      0.0000
     31  CAC       23.7550   -3.0510   -7.2290 C.2   450  HEM450      0.0000
     32  CBC       24.3840   -2.0800   -7.9280 C.2   450  HEM450      0.0000
     33  ND        20.5900   -4.4270   -3.0700 N.ar  450  HEM450      0.0000
     34  C1D       20.5620   -4.4290   -4.4760 C.ar  450  HEM450      0.0000
     35  C2D       19.3130   -4.9890   -4.9750 C.ar  450  HEM450      0.0000
     36  C3D       18.5690   -5.3990   -3.7620 C.ar  450  HEM450      0.0000
     37  C4D       19.4000   -5.0820   -2.6340 C.ar  450  HEM450      0.0000
     38  CMD       18.8590   -5.1060   -6.4310 C.3   450  HEM450      0.0000
     39  CAD       17.1850   -6.0370   -3.7070 C.3   450  HEM450      0.0000
     40  CBD       17.4260   -7.5480   -3.6220 C.3   450  HEM450      0.0000
     41  CGD       16.0910   -8.2730   -3.4170 C.2   450  HEM450      0.0000
     42  O1D       15.0860   -7.6420   -2.9950 O.co2 450  HEM450      0.0000
     43  O2D       15.9630   -9.5200   -3.7000 O.co2 450  HEM450      0.0000
@<TRIPOS>BOND
     1    32    31    2
     2    31    28    1
     3    38    35    1
     4    28    27    2
     5    28    29    1
     6    30    27    1
     7     5    29    1
     8     5    34    2
     9    35    34   ar
    10    35    36   ar
    11    27    26    1
    12    29    25    2
    13    34    33   ar
    14    36    39    1
    15    36    37   ar
    16    39    40    1
    17    43    41   ar
    18    40    41    1
    19    26    25    1
    20    26     4    2
    21    25     1    1
    22    41    42   ar
    23    33    37   ar
    24    33     1    1
    25    37     2    2
    26     4    21    1
    27     1    17    1
    28     1     6    1
    29     2     7    1
    30    21    17   ar
    31    21    20   ar
    32    17    18   ar
    33     6     7    2
    34     6    10    1
    35     7     8    1
    36    23    20    1
    37    23    24    2
    38    20    19   ar
    39    18    19   ar
    40    18     3    1
    41    10     3    2
    42    10     9    1
    43    19    22    1
    44     8    12    1
    45     8     9    2
    46    12    13    1
    47     9    11    1
    48    13    14    1
    49    14    15   ar
    50    14    16   ar
