@<TRIPOS>MOLECULE
2wma_III_E_1.pdb
 47 48 0 0 0
SMALL
GASTEIGER

@<TRIPOS>ATOM
      1  N          8.2250   15.9900   -0.2980 N.3    30  ARG30      -0.1231
      2  CA         8.6700   17.3810   -0.5840 C.3    30  ARG30       0.1694
      3  C          9.6700   17.4160   -1.7370 C.2    30  ARG30       0.2598
      4  O         10.2460   16.3950   -2.0910 O.2    30  ARG30      -0.2717
      5  CB         9.3340   17.9760    0.6540 C.3    30  ARG30       0.0321
      6  CG        10.6460   17.3110    1.0230 C.3    30  ARG30       0.0489
      7  CD        11.4570   18.1730    1.9850 C.3    30  ARG30       0.2205
      8  NE        12.7850   17.6220    2.2480 N.pl3  30  ARG30      -0.0865
      9  CZ        13.0120   16.4730    2.8830 C.cat  30  ARG30       0.5346
     10  NH1       11.9920   15.7400    3.3300 N.pl3  30  ARG30       0.1354
     11  NH2       14.2600   16.0510    3.0690 N.pl3  30  ARG30       0.1354
     12  N          9.8620   18.5910   -2.3300 N.am   31  LYS31      -0.1890
     13  CA        10.8320   18.7430   -3.4090 C.3    31  LYS31       0.2001
     14  C         12.1590   18.7240   -2.6720 C.1    31  LYS31       0.1467
     15  O         12.2050   19.0980   -1.5050 O.2    31  LYS31      -0.2253
     16  CB        10.6480   20.0750   -4.1230 C.3    31  LYS31       0.0388
     17  CG        11.5430   20.2530   -5.3310 C.3    31  LYS31       0.0050
     18  CD        11.1740   21.5140   -6.0710 C.3    31  LYS31       0.0273
     19  CE        11.8280   21.6020   -7.4410 C.3    31  LYS31       0.1376
     20  NZ        13.2270   22.0270   -7.4090 N.2    31  LYS31      -0.2047
     21  N         13.2360   18.3050   -3.3260 N.2    32  LEU32      -0.1899
     22  CA        14.5080   18.2200   -2.6260 C.3    32  LEU32       0.2191
     23  C         15.5300   19.3260   -2.8290 C.1    32  LEU32       0.1501
     24  O         16.1930   19.7400   -1.8710 O.2    32  LEU32      -0.2250
     25  CB        15.1640   16.8670   -2.9020 C.3    32  LEU32       0.0423
     26  CG        14.6040   15.7140   -2.0740 C.3    32  LEU32       0.0031
     27  CD1       15.1930   14.4050   -2.5560 C.3    32  LEU32       0.0001
     28  CD2       14.9200   15.9400   -0.6050 C.3    32  LEU32       0.0001
     29  N         15.6820   19.8140   -4.0500 N.2    33  PHE33      -0.1893
     30  CA        16.6640   20.8630   -4.2570 C.3    33  PHE33       0.2234
     31  C         16.0510   22.1100   -4.8750 C.1    33  PHE33       0.1504
     32  O         15.7780   23.0820   -4.1670 O.2    33  PHE33      -0.2250
     33  CB        17.8130   20.3030   -5.0850 C.3    33  PHE33       0.0686
     34  CG        18.3700   19.0270   -4.5220 C.ar   33  PHE33      -0.0191
     35  CD1       17.9180   17.7970   -4.9760 C.ar   33  PHE33      -0.0042
     36  CD2       19.2960   19.0570   -3.4900 C.ar   33  PHE33      -0.0042
     37  CE1       18.3790   16.6120   -4.4100 C.ar   33  PHE33      -0.0003
     38  CE2       19.7640   17.8750   -2.9150 C.ar   33  PHE33      -0.0003
     39  CZ        19.3020   16.6510   -3.3780 C.ar   33  PHE33      -0.0000
     40  N         15.8370   22.1060   -6.1830 N.2    34  ASN34      -0.1891
     41  CA        15.2060   23.2600   -6.7980 C.3    34  ASN34       0.2282
     42  C         13.7150   23.0110   -6.6590 C.1    34  ASN34       0.1496
     43  O         13.0340   23.6850   -5.8870 O.2    34  ASN34      -0.2251
     44  CB        15.5890   23.3800   -8.2790 C.3    34  ASN34       0.1307
     45  CG        14.7910   24.4670   -9.0120 C.2    34  ASN34       0.2639
     46  OD1       14.5810   25.5680   -8.4870 O.2    34  ASN34      -0.2715
     47  ND2       14.3530   24.1600  -10.2340 N.am   34  ASN34      -0.0877
@<TRIPOS>BOND
     1    47    45   am
     2    45    46    2
     3    45    44    1
     4    44    41    1
     5    19    20    1
     6    19    18    1
     7    20    42    2
     8    41    42    1
     9    41    40    1
    10    42    43    2
    11    40    31    2
    12    18    17    1
    13    17    16    1
    14    33    34    1
    15    33    30    1
    16    35    34   ar
    17    35    37   ar
    18    31    30    1
    19    31    32    2
    20    34    36   ar
    21    37    39   ar
    22    30    29    1
    23    16    13    1
    24    29    23    2
    25    36    38   ar
    26    13    14    1
    27    13    12    1
    28    39    38   ar
    29    21    14    2
    30    21    22    1
    31    25    22    1
    32    25    26    1
    33    23    22    1
    34    23    24    2
    35    14    15    2
    36    27    26    1
    37    12     3   am
    38     4     3    2
    39    26    28    1
    40     3     2    1
    41     2     1    1
    42     2     5    1
    43     5     6    1
    44     6     7    1
    45     7     8    1
    46     8     9    2
    47     9    11    1
    48     9    10    1
