@<TRIPOS>MOLECULE
2wmb_III_I_1.pdb
 47 47 0 0 0
SMALL
GASTEIGER

@<TRIPOS>ATOM
      1  N          8.3890   83.2860   73.1380 N.3    30  ARG30      -0.1231
      2  CA         9.2190   84.5080   73.2150 C.3    30  ARG30       0.1694
      3  C         10.1620   84.6130   72.0070 C.2    30  ARG30       0.2592
      4  O         10.8250   83.6330   71.6650 O.2    30  ARG30      -0.2718
      5  CB         9.9710   84.5210   74.5450 C.3    30  ARG30       0.0321
      6  CG        11.2910   85.2940   74.6000 C.3    30  ARG30       0.0489
      7  CD        11.7090   85.4910   76.0720 C.3    30  ARG30       0.2205
      8  NE        13.1600   85.4570   76.3210 N.pl3  30  ARG30      -0.0865
      9  CZ        13.8450   84.3950   76.7710 C.cat  30  ARG30       0.5346
     10  NH1       13.2450   83.2260   77.0150 N.pl3  30  ARG30       0.1354
     11  NH2       15.1500   84.5110   76.9730 N.pl3  30  ARG30       0.1354
     12  N         10.1930   85.7780   71.3440 N.am   31  LYS31      -0.1966
     13  CA        11.1780   86.0380   70.2940 C.3    31  LYS31       0.1728
     14  C         12.5130   86.1610   70.9770 C.2    31  LYS31       0.2616
     15  O         12.6300   86.9210   71.9330 O.2    31  LYS31      -0.2715
     16  CB        10.8760   87.3270   69.5310 C.3    31  LYS31       0.0311
     17  CG        11.9620   87.7380   68.5130 C.3    31  LYS31       0.0038
     18  CD        11.3570   88.5690   67.3670 C.3    31  LYS31       0.0206
     19  CE        12.3730   89.0270   66.3590 C.3    31  LYS31       0.1093
     20  NZ        13.4270   89.9430   66.9090 N.3    31  LYS31      -0.1314
     21  N         13.5170   85.4320   70.4910 N.am   32  LEU32      -0.1963
     22  CA        14.7970   85.3720   71.1880 C.3    32  LEU32       0.1728
     23  C         15.8170   86.4930   70.9500 C.2    32  LEU32       0.2616
     24  O         16.3000   87.1110   71.9150 O.2    32  LEU32      -0.2715
     25  CB        15.4700   84.0070   71.0190 C.3    32  LEU32       0.0311
     26  CG        15.1190   82.9060   72.0160 C.3    32  LEU32       0.0022
     27  CD1       16.1860   81.8240   71.9770 C.3    32  LEU32       0.0001
     28  CD2       14.9620   83.4730   73.4250 C.3    32  LEU32       0.0001
     29  N         16.1960   86.7660   69.7120 N.am   33  PHE33      -0.1960
     30  CA        17.3090   87.6930   69.6150 C.3    33  PHE33       0.1771
     31  C         16.9060   89.1440   69.2740 C.2    33  PHE33       0.2619
     32  O         17.1100   89.6500   68.1570 O.2    33  PHE33      -0.2715
     33  CB        18.4870   87.0940   68.8380 C.3    33  PHE33       0.0574
     34  CG        19.0130   85.8150   69.4480 C.ar   33  PHE33      -0.0200
     35  CD1       18.6890   84.5760   68.8960 C.ar   33  PHE33      -0.0042
     36  CD2       19.8040   85.8440   70.5920 C.ar   33  PHE33      -0.0042
     37  CE1       19.1580   83.3880   69.4670 C.ar   33  PHE33      -0.0003
     38  CE2       20.2890   84.6560   71.1660 C.ar   33  PHE33      -0.0003
     39  CZ        19.9580   83.4320   70.6000 C.ar   33  PHE33      -0.0000
     40  N         16.2950   89.7650   70.2890 N.am   34  ASP34      -0.1971
     41  CA        15.9370   91.1850   70.3250 C.3    34  ASP34       0.1709
     42  C         16.8070   91.8790   71.3790 C.2    34  ASP34       0.2293
     43  O         16.5550   91.7690   72.5920 O.2    34  ASP34      -0.2864
     44  CB        14.4430   91.3610   70.6780 C.3    34  ASP34       0.1436
     45  CG        13.6340   92.0410   69.5600 C.2    34  ASP34       0.3671
     46  OD1       14.2180   92.4690   68.5280 O.co2  34  ASP34      -0.2456
     47  OD2       12.3950   92.1500   69.7230 O.co2  34  ASP34      -0.2456
@<TRIPOS>BOND
     1    19    20    1
     2    19    18    1
     3    18    17    1
     4    32    31    2
     5    17    16    1
     6    46    45   ar
     7    33    34    1
     8    33    30    1
     9    35    34   ar
    10    35    37   ar
    11    31    30    1
    12    31    40   am
    13    34    36   ar
    14    37    39   ar
    15    16    13    1
    16    45    47   ar
    17    45    44    1
    18    30    29    1
    19    29    23   am
    20    40    41    1
    21    13    14    1
    22    13    12    1
    23    41    44    1
    24    41    42    1
    25    21    14   am
    26    21    22    1
    27    36    38   ar
    28    39    38   ar
    29    23    22    1
    30    23    24    2
    31    14    15    2
    32    25    22    1
    33    25    26    1
    34    12     3   am
    35    42    43    2
    36     4     3    2
    37    27    26    1
    38     3     2    1
    39    26    28    1
    40     1     2    1
    41     2     5    1
    42     5     6    1
    43     6     7    1
    44     7     8    1
    45     8     9    2
    46     9    11    1
    47     9    10    1
