@<TRIPOS>MOLECULE
2wmc_MGP_A_1.pdb
 29 31 0 0 0
SMALL
GASTEIGER

@<TRIPOS>ATOM
      1  PA         5.4370   72.3350    5.9150 P.3   500  MGP500      0.2231
      2  O1A        5.7070   71.6180    7.2000 O.3   500  MGP500     -0.4370
      3  O2A        4.3340   71.9050    5.0130 O.2   500  MGP500     -0.5169
      4  O3A        5.2960   73.9320    6.2560 O.3   500  MGP500     -0.2261
      5  O5'        6.8070   72.3140    5.0570 O.3   500  MGP500     -0.3111
      6  PB         4.3880   74.3270    7.4790 P.3   500  MGP500      0.5373
      7  O1B        4.9250   75.6710    8.1750 O.3   500  MGP500     -0.1143
      8  O2B        4.7020   73.1890    8.5690 O.3   500  MGP500     -0.1143
      9  O3B        2.9490   74.4570    7.1320 O.2   500  MGP500     -0.2221
     10  C5'        7.9520   72.4190    5.8510 C.3   500  MGP500      0.1813
     11  C4'        9.2070   72.1600    5.0440 C.3   500  MGP500      0.1799
     12  O4'        9.0730   70.8350    4.5280 O.3   500  MGP500     -0.3326
     13  C3'        9.3240   73.0190    3.7900 C.3   500  MGP500      0.2158
     14  O3'        9.8240   74.3260    4.1080 O.3   500  MGP500     -0.2175
     15  C2'       10.4290   72.2210    3.1500 C.3   500  MGP500      0.2310
     16  O2'       11.6250   72.3950    3.9080 O.3   500  MGP500     -0.2158
     17  C1'        9.9480   70.7910    3.3890 C.3   500  MGP500      0.2287
     18  N9         9.2470   70.3890    2.1940 N.pl3 500  MGP500     -0.2454
     19  C8         7.9460   70.4830    1.9070 C.3   500  MGP500      0.1735
     20  N7         7.7680   69.9650    0.6940 N.3   500  MGP500     -0.2343
     21  CM7        6.4780   69.8720   -0.0120 C.3   500  MGP500      0.0924
     22  C5         8.9300   69.5560    0.2160 C.3   500  MGP500      0.2475
     23  C6         9.3270   68.9540   -0.9460 C.1   500  MGP500      0.2145
     24  O6         8.5490   68.6800   -1.8610 O.2   500  MGP500     -0.2115
     25  N1        10.6570   68.6510   -1.0750 N.2   500  MGP500     -0.2526
     26  C2        11.5690   68.9510   -0.0770 C.1   500  MGP500      0.2525
     27  N2        12.8500   68.6420   -0.2590 N.pl3 500  MGP500     -0.0226
     28  N3        11.1650   69.5360    1.0410 N.2   500  MGP500     -0.3118
     29  C4         9.8710   69.8310    1.1860 C.2   500  MGP500      0.2086
@<TRIPOS>BOND
     1    24    23    2
     2    25    23    2
     3    25    26    2
     4    23    22    1
     5    27    26    1
     6    26    28    2
     7    21    20    1
     8    22    20    1
     9    22    29    1
    10    20    19    1
    11    28    29    2
    12    29    18    1
    13    19    18    1
    14    18    17    1
    15    15    17    1
    16    15    13    1
    17    15    16    1
    18    17    12    1
    19    13    14    1
    20    13    11    1
    21    12    11    1
    22     3     1    2
    23    11    10    1
    24     5    10    1
    25     5     1    1
    26     1     4    1
    27     1     2    1
    28     4     6    1
    29     9     6    2
    30     6     7    1
    31     6     8    1
