@<TRIPOS>MOLECULE
2wme_NAP_A_1.pdb
 31 33 0 0 0
SMALL
GASTEIGER

@<TRIPOS>ATOM
      1  PA        45.7420  -73.6880   -3.5430 P.3   1491  NAP1491     0.2231
      2  O1A       45.8330  -74.6700   -4.6830 O.2   1491  NAP1491    -0.5169
      3  O2A       45.8080  -74.2140   -2.1110 O.3   1491  NAP1491    -0.4370
      4  O5B       44.3200  -72.9300   -3.7770 O.3   1491  NAP1491    -0.3111
      5  C5B       44.1080  -71.9830   -4.8370 C.3   1491  NAP1491     0.1813
      6  C4B       42.6190  -71.6660   -4.9000 C.3   1491  NAP1491     0.1820
      7  O4B       41.8660  -72.8980   -4.8560 O.3   1491  NAP1491    -0.3136
      8  C3B       42.1060  -70.8140   -3.7370 C.3   1491  NAP1491     0.2157
      9  O3B       41.2510  -69.7550   -4.2420 O.3   1491  NAP1491    -0.2175
     10  C2B       41.4090  -71.8590   -2.8300 C.3   1491  NAP1491     0.2314
     11  O2B       40.3930  -71.2680   -2.0220 O.3   1491  NAP1491    -0.2630
     12  C1B       40.8600  -72.8810   -3.8380 C.3   1491  NAP1491     0.3158
     13  N9A       40.5840  -74.3070   -3.4360 N.pl3 1491  NAP1491    -0.1439
     14  C8A       41.2270  -75.1030   -2.5380 C.3   1491  NAP1491     0.3377
     15  N7A       40.6340  -76.3410   -2.5140 N.2   1491  NAP1491    -0.2095
     16  C5A       39.6160  -76.3020   -3.4370 C.2   1491  NAP1491     0.2526
     17  C6A       38.6490  -77.2250   -3.8820 C.2   1491  NAP1491     0.4393
     18  N6A       38.5890  -78.4880   -3.3790 N.pl3 1491  NAP1491     0.2180
     19  N1A       37.7280  -76.8290   -4.8120 N.2   1491  NAP1491     0.0021
     20  C2A       37.7470  -75.5910   -5.3560 C.3   1491  NAP1491     0.5254
     21  N3A       38.6780  -74.6930   -4.9580 N.2   1491  NAP1491    -0.0055
     22  C4A       39.6100  -75.0250   -4.0040 C.2   1491  NAP1491     0.3518
     23  O3        46.8800  -72.5340   -3.7470 O.3   1491  NAP1491    -0.2261
     24  PN        48.0410  -71.9900   -2.7320 P.3   1491  NAP1491     0.5373
     25  O1N       49.2990  -72.7850   -3.0860 O.3   1491  NAP1491    -0.1143
     26  O2N       48.1480  -70.5330   -3.2100 O.2   1491  NAP1491    -0.2221
     27  O5D       47.5630  -72.2180   -1.3010 O.3   1491  NAP1491    -0.1143
     28  P2B       40.6240  -70.5770   -0.5510 P.3   1491  NAP1491     0.5328
     29  O1X       41.9340  -69.8580   -0.4770 O.3   1491  NAP1491    -0.1145
     30  O2X       40.4860  -71.7720    0.3820 O.3   1491  NAP1491    -0.1145
     31  O3X       39.4900  -69.5880   -0.5230 O.2   1491  NAP1491    -0.2224
@<TRIPOS>BOND
     1    20    21    1
     2    20    19    1
     3    21    22    2
     4     6     7    1
     5     6     5    1
     6     6     8    1
     7     7    12    1
     8     5     4    1
     9    19    17    2
    10     2     1    2
    11     9     8    1
    12    22    16    1
    13    22    13    1
    14    17    16    1
    15    17    18    1
    16    12    13    1
    17    12    10    1
    18     4     1    1
    19    23     1    1
    20    23    24    1
    21     8    10    1
    22     1     3    1
    23    16    15    2
    24    13    14    1
    25    26    24    2
    26    25    24    1
    27    10    11    1
    28    24    27    1
    29    14    15    1
    30    11    28    1
    31    28    31    2
    32    28    29    1
    33    28    30    1
