@<TRIPOS>MOLECULE
2wmg_FUC_A_1.pdb
 10 10 0 0 0
SMALL
GASTEIGER

@<TRIPOS>ATOM
      1  C1        21.4480   30.5340   21.3690 C.3   1590  FUC1590     0.1776
      2  C2        20.0790   29.8530   21.5190 C.3   1590  FUC1590     0.2141
      3  C3        19.2400   30.6670   22.5200 C.3   1590  FUC1590     0.2172
      4  C4        19.0730   32.0980   21.9900 C.3   1590  FUC1590     0.2116
      5  C5        20.4680   32.7080   21.7230 C.3   1590  FUC1590     0.1483
      6  C6        20.4120   34.1100   21.1050 C.3   1590  FUC1590     0.0349
      7  O2        20.2110   28.5000   21.9180 O.3   1590  FUC1590    -0.2176
      8  O3        17.9840   30.0740   22.8240 O.3   1590  FUC1590    -0.2175
      9  O4        18.2500   32.1000   20.8360 O.3   1590  FUC1590    -0.2177
     10  O5        21.2750   31.8600   20.9000 O.3   1590  FUC1590    -0.3508
@<TRIPOS>BOND
     1     9     4    1
     2    10     1    1
     3    10     5    1
     4     6     5    1
     5     1     2    1
     6     2     7    1
     7     2     3    1
     8     5     4    1
     9     4     3    1
    10     3     8    1
