@<TRIPOS>MOLECULE
2wmg_GAL_A_1.pdb
 11 11 0 0 0
SMALL
GASTEIGER

@<TRIPOS>ATOM
      1  C1        23.9820   31.3880   23.8000 C.3   1591  GAL1591     0.1777
      2  C2        23.5400   30.5200   22.5950 C.3   1591  GAL1591     0.2141
      3  C3        24.0780   29.0670   22.6520 C.3   1591  GAL1591     0.2173
      4  C4        25.5320   29.0290   23.1150 C.3   1591  GAL1591     0.2142
      5  C5        25.6140   29.7120   24.4830 C.3   1591  GAL1591     0.1810
      6  C6        27.0200   29.7350   25.0590 C.3   1591  GAL1591     0.2141
      7  O2        22.1250   30.4920   22.6450 O.3   1591  GAL1591    -0.2176
      8  O3        23.9540   28.3630   21.4250 O.3   1591  GAL1591    -0.2175
      9  O4        26.3890   29.6230   22.1450 O.3   1591  GAL1591    -0.2176
     10  O5        25.2400   31.0610   24.3760 O.3   1591  GAL1591    -0.3481
     11  O6        26.9100   30.1760   26.3910 O.3   1591  GAL1591    -0.2176
@<TRIPOS>BOND
     1     8     3    1
     2     9     4    1
     3     2     7    1
     4     2     3    1
     5     2     1    1
     6     3     4    1
     7     4     5    1
     8     1    10    1
     9    10     5    1
    10     5     6    1
    11     6    11    1
