@<TRIPOS>MOLECULE
2wmh_FUC_A_1.pdb
 10 10 0 0 0
SMALL
GASTEIGER

@<TRIPOS>ATOM
      1  C1        21.0450   30.3120   21.2130 C.3   1591  FUC1591     0.1776
      2  C2        19.6440   29.7350   21.5000 C.3   1591  FUC1591     0.2141
      3  C3        18.8950   30.6650   22.4810 C.3   1591  FUC1591     0.2172
      4  C4        18.8470   32.0760   21.8790 C.3   1591  FUC1591     0.2116
      5  C5        20.2620   32.5650   21.5140 C.3   1591  FUC1591     0.1483
      6  C6        20.3470   33.9790   20.9150 C.3   1591  FUC1591     0.0349
      7  O2        19.7660   28.4460   22.0520 O.3   1591  FUC1591    -0.2176
      8  O3        17.5700   30.1960   22.7680 O.3   1591  FUC1591    -0.2175
      9  O4        17.9450   32.0660   20.7820 O.3   1591  FUC1591    -0.2177
     10  O5        20.9260   31.6300   20.6640 O.3   1591  FUC1591    -0.3508
@<TRIPOS>BOND
     1    10     1    1
     2    10     5    1
     3     9     4    1
     4     6     5    1
     5     1     2    1
     6     2     7    1
     7     2     3    1
     8     5     4    1
     9     4     3    1
    10     3     8    1
