@<TRIPOS>MOLECULE
2wmh_GAL_A_1.pdb
 12 12 0 0 0
SMALL
GASTEIGER

@<TRIPOS>ATOM
      1  C1        23.5340   31.5430   23.3170 C.3   1590  GAL1590     0.3024
      2  C2        23.1740   30.4140   22.3410 C.3   1590  GAL1590     0.2434
      3  C3        23.8720   29.0930   22.6370 C.3   1590  GAL1590     0.2199
      4  C4        25.3380   29.2690   23.0590 C.3   1590  GAL1590     0.2144
      5  C5        25.3610   30.2710   24.2130 C.3   1590  GAL1590     0.1836
      6  C6        26.7210   30.4890   24.8540 C.3   1590  GAL1590     0.2142
      7  O1        23.2640   32.7530   22.6420 O.3   1590  GAL1590    -0.1869
      8  O2        21.7850   30.2020   22.4530 O.3   1590  GAL1590    -0.2148
      9  O3        23.7600   28.2190   21.5160 O.3   1590  GAL1590    -0.2174
     10  O4        26.1410   29.6950   21.9680 O.3   1590  GAL1590    -0.2176
     11  O5        24.9130   31.5190   23.7150 O.3   1590  GAL1590    -0.3236
     12  O6        26.5490   31.5740   25.7540 O.3   1590  GAL1590    -0.2176
@<TRIPOS>BOND
     1     9     3    1
     2    10     4    1
     3     2     8    1
     4     2     3    1
     5     2     1    1
     6     3     4    1
     7     7     1    1
     8     4     5    1
     9     1    11    1
    10    11     5    1
    11     5     6    1
    12     6    12    1
