@<TRIPOS>MOLECULE
2wmi_GAL_A_1.pdb
 12 12 0 0 0
SMALL
GASTEIGER

@<TRIPOS>ATOM
      1  C1         3.2840  113.5760  -36.2940 C.3   2007  GAL2007     0.3024
      2  C2         2.1910  113.4140  -35.1980 C.3   2007  GAL2007     0.2434
      3  C3         0.7660  113.7060  -35.7160 C.3   2007  GAL2007     0.2199
      4  C4         0.7210  114.8880  -36.7110 C.3   2007  GAL2007     0.2144
      5  C5         1.8430  114.7210  -37.7400 C.3   2007  GAL2007     0.1836
      6  C6         1.9100  115.7840  -38.8510 C.3   2007  GAL2007     0.2142
      7  O1         4.4840  113.9110  -35.6520 O.3   2007  GAL2007    -0.1869
      8  O2         2.2740  112.0600  -34.7580 O.3   2007  GAL2007    -0.2148
      9  O3        -0.1470  113.9800  -34.6330 O.3   2007  GAL2007    -0.2174
     10  O4         0.7800  116.1440  -35.9780 O.3   2007  GAL2007    -0.2176
     11  O5         3.0580  114.7840  -37.0290 O.3   2007  GAL2007    -0.3236
     12  O6         2.5370  115.2000  -39.9780 O.3   2007  GAL2007    -0.2176
@<TRIPOS>BOND
     1    12     6    1
     2     6     5    1
     3     5    11    1
     4     5     4    1
     5    11     1    1
     6     4    10    1
     7     4     3    1
     8     1     7    1
     9     1     2    1
    10     3     2    1
    11     3     9    1
    12     2     8    1
