@<TRIPOS>MOLECULE
2wmi_FUC_A_1.pdb
 10 10 0 0 0
SMALL
GASTEIGER

@<TRIPOS>ATOM
      1  C1         2.1810  111.9520  -33.3170 C.3   2008  FUC2008     0.1776
      2  C2         2.1200  110.4480  -32.9880 C.3   2008  FUC2008     0.2141
      3  C3         3.4150  109.7240  -33.3760 C.3   2008  FUC2008     0.2172
      4  C4         4.6280  110.4100  -32.7620 C.3   2008  FUC2008     0.2116
      5  C5         4.5870  111.9040  -33.1200 C.3   2008  FUC2008     0.1483
      6  C6         5.7440  112.7120  -32.5400 C.3   2008  FUC2008     0.0349
      7  O2         1.0380  109.8780  -33.7010 O.3   2008  FUC2008    -0.2176
      8  O3         3.3180  108.3740  -32.9440 O.3   2008  FUC2008    -0.2175
      9  O4         4.5560  110.1740  -31.3620 O.3   2008  FUC2008    -0.2177
     10  O5         3.3350  112.5200  -32.7740 O.3   2008  FUC2008    -0.3508
@<TRIPOS>BOND
     1     7     2    1
     2     3     2    1
     3     3     8    1
     4     3     4    1
     5     1     2    1
     6     1    10    1
     7     5    10    1
     8     5     4    1
     9     5     6    1
    10     4     9    1
