@<TRIPOS>MOLECULE
2wmj_GLA_A_1.pdb
 11 11 0 0 0
SMALL
GASTEIGER

@<TRIPOS>ATOM
      1  C1        -1.3970  114.3870  -34.7600 C.3   2006  GLA2006     0.1777
      2  C2        -1.9240  114.8440  -33.4140 C.3   2006  GLA2006     0.2141
      3  C3        -1.7480  113.7350  -32.3660 C.3   2006  GLA2006     0.2173
      4  C4        -2.4230  112.4400  -32.8720 C.3   2006  GLA2006     0.2142
      5  C5        -1.8860  112.0990  -34.2570 C.3   2006  GLA2006     0.1810
      6  C6        -2.5350  110.8290  -34.8280 C.3   2006  GLA2006     0.2141
      7  O2        -1.2800  116.0260  -32.9870 O.3   2006  GLA2006    -0.2176
      8  O3        -2.3260  114.1710  -31.1510 O.3   2006  GLA2006    -0.2175
      9  O4        -3.8180  112.6620  -32.9970 O.3   2006  GLA2006    -0.2176
     10  O5        -2.1060  113.2030  -35.1280 O.3   2006  GLA2006    -0.3481
     11  O6        -2.1140  110.5650  -36.1620 O.3   2006  GLA2006    -0.2176
@<TRIPOS>BOND
     1    11     6    1
     2    10     1    1
     3    10     5    1
     4     6     5    1
     5     1     2    1
     6     5     4    1
     7     2     7    1
     8     2     3    1
     9     9     4    1
    10     4     3    1
    11     3     8    1
