@<TRIPOS>MOLECULE
2wmj_FUC_A_1.pdb
 10 10 0 0 0
SMALL
GASTEIGER

@<TRIPOS>ATOM
      1  C1         2.3270  112.2690  -33.4030 C.3   2008  FUC2008     0.1776
      2  C2         2.2210  110.7570  -33.0950 C.3   2008  FUC2008     0.2141
      3  C3         3.5100  110.0180  -33.4780 C.3   2008  FUC2008     0.2172
      4  C4         4.7130  110.6850  -32.8030 C.3   2008  FUC2008     0.2116
      5  C5         4.7430  112.1850  -33.1780 C.3   2008  FUC2008     0.1483
      6  C6         5.8800  113.0050  -32.5730 C.3   2008  FUC2008     0.0349
      7  O2         1.1220  110.1570  -33.7710 O.3   2008  FUC2008    -0.2176
      8  O3         3.4030  108.6680  -33.0970 O.3   2008  FUC2008    -0.2175
      9  O4         4.6140  110.5040  -31.3900 O.3   2008  FUC2008    -0.2177
     10  O5         3.5120  112.8040  -32.8290 O.3   2008  FUC2008    -0.3508
@<TRIPOS>BOND
     1     7     2    1
     2     3     8    1
     3     3     2    1
     4     3     4    1
     5     1     2    1
     6     1    10    1
     7     5    10    1
     8     5     4    1
     9     5     6    1
    10     4     9    1
