@<TRIPOS>MOLECULE
2wmj_GAL_A_1.pdb
 12 12 0 0 0
SMALL
GASTEIGER

@<TRIPOS>ATOM
      1  C1         3.2500  113.9270  -36.4350 C.3   2007  GAL2007     0.3024
      2  C2         2.1740  113.7240  -35.3380 C.3   2007  GAL2007     0.2434
      3  C3         0.7310  113.9930  -35.8170 C.3   2007  GAL2007     0.2199
      4  C4         0.6730  115.1670  -36.8140 C.3   2007  GAL2007     0.2144
      5  C5         1.7350  114.9540  -37.8940 C.3   2007  GAL2007     0.1836
      6  C6         1.7340  115.9550  -39.0480 C.3   2007  GAL2007     0.2142
      7  O1         4.4500  114.2850  -35.8090 O.3   2007  GAL2007    -0.1869
      8  O2         2.2880  112.3910  -34.8250 O.3   2007  GAL2007    -0.2148
      9  O3         0.0370  114.2630  -34.6200 O.3   2007  GAL2007    -0.2174
     10  O4         0.8980  116.4010  -36.1400 O.3   2007  GAL2007    -0.2176
     11  O5         2.9880  115.0460  -37.2700 O.3   2007  GAL2007    -0.3236
     12  O6         2.6290  115.4660  -40.0190 O.3   2007  GAL2007    -0.2176
@<TRIPOS>BOND
     1    12     6    1
     2     6     5    1
     3     5    11    1
     4     5     4    1
     5    11     1    1
     6     4    10    1
     7     4     3    1
     8     1     7    1
     9     1     2    1
    10     3     2    1
    11     3     9    1
    12     2     8    1
