@<TRIPOS>MOLECULE
2wmk_FUC_A_1.pdb
 10 10 0 0 0
SMALL
GASTEIGER

@<TRIPOS>ATOM
      1  C1         2.3920  111.8810  -33.3120 C.3   2006  FUC2006     0.1776
      2  C2         2.2110  110.3760  -33.0190 C.3   2006  FUC2006     0.2141
      3  C3         3.4310  109.5430  -33.4480 C.3   2006  FUC2006     0.2172
      4  C4         4.6890  110.1420  -32.8350 C.3   2006  FUC2006     0.2116
      5  C5         4.7670  111.6200  -33.2470 C.3   2006  FUC2006     0.1483
      6  C6         6.0450  112.2970  -32.7750 C.3   2006  FUC2006     0.0349
      7  O2         1.0590  109.8590  -33.6550 O.3   2006  FUC2006    -0.2176
      8  O3         3.2820  108.2110  -32.9770 O.3   2006  FUC2006    -0.2175
      9  O4         4.6710  109.9840  -31.4130 O.3   2006  FUC2006    -0.2177
     10  O5         3.6250  112.3510  -32.8110 O.3   2006  FUC2006    -0.3508
@<TRIPOS>BOND
     1     7     2    1
     2     3     2    1
     3     3     8    1
     4     3     4    1
     5     1     2    1
     6     1    10    1
     7     5     4    1
     8     5    10    1
     9     5     6    1
    10     4     9    1
