@<TRIPOS>MOLECULE
2wmk_GAL_A_1.pdb
 11 11 0 0 0
SMALL
GASTEIGER

@<TRIPOS>ATOM
      1  C1         3.3680  113.3760  -36.4250 C.3   2007  GAL2007     0.1777
      2  C2         2.3360  113.3250  -35.2790 C.3   2007  GAL2007     0.2141
      3  C3         0.8910  113.5820  -35.7480 C.3   2007  GAL2007     0.2173
      4  C4         0.8270  114.7600  -36.7010 C.3   2007  GAL2007     0.2142
      5  C5         1.7620  114.4690  -37.8700 C.3   2007  GAL2007     0.1810
      6  C6         1.8800  115.5710  -38.9220 C.3   2007  GAL2007     0.2141
      7  O2         2.3570  112.0110  -34.7480 O.3   2007  GAL2007    -0.2176
      8  O3         0.0570  113.7950  -34.6050 O.3   2007  GAL2007    -0.2175
      9  O4         1.2240  115.9500  -36.0150 O.3   2007  GAL2007    -0.2176
     10  O5         3.0580  114.3770  -37.3710 O.3   2007  GAL2007    -0.3481
     11  O6         2.5130  115.0120  -40.0610 O.3   2007  GAL2007    -0.2176
@<TRIPOS>BOND
     1    11     6    1
     2     6     5    1
     3     5    10    1
     4     5     4    1
     5    10     1    1
     6     4     9    1
     7     4     3    1
     8     1     2    1
     9     3     2    1
    10     3     8    1
    11     2     7    1
