@<TRIPOS>MOLECULE
2wmn_GDP_B_1.pdb
 28 30 0 0 0
SMALL
GASTEIGER

@<TRIPOS>ATOM
      1  PB        -8.0380    5.7660   -9.3040 P.3   1178  GDP1178     0.5373
      2  O1B       -6.6470    5.1790   -9.3990 O.3   1178  GDP1178    -0.1143
      3  O2B       -7.9630    7.1960   -9.7760 O.2   1178  GDP1178    -0.2221
      4  O3B       -8.5610    5.6640   -7.8900 O.3   1178  GDP1178    -0.1143
      5  O3A       -9.0600    4.9520  -10.2410 O.3   1178  GDP1178    -0.2261
      6  PA        -8.7780    4.7140  -11.8070 P.3   1178  GDP1178     0.2231
      7  O1A       -7.3400    5.0260  -12.1360 O.3   1178  GDP1178    -0.4370
      8  O2A       -9.6740    5.5390  -12.6890 O.2   1178  GDP1178    -0.5169
      9  O5'       -9.1410    3.1420  -11.9330 O.3   1178  GDP1178    -0.3111
     10  C5'       -8.1520    2.1330  -12.1550 C.3   1178  GDP1178     0.1813
     11  C4'       -8.7310    0.9760  -12.9680 C.3   1178  GDP1178     0.1799
     12  O4'      -10.0130    0.5690  -12.4710 O.3   1178  GDP1178    -0.3326
     13  C3'       -8.9290    1.3550  -14.4260 C.3   1178  GDP1178     0.2158
     14  O3'       -8.3680    0.3280  -15.2520 O.3   1178  GDP1178    -0.2175
     15  C2'      -10.4300    1.3960  -14.6180 C.3   1178  GDP1178     0.2310
     16  O2'      -10.8090    1.0250  -15.9490 O.3   1178  GDP1178    -0.2158
     17  C1'      -10.9190    0.4130  -13.5660 C.3   1178  GDP1178     0.2293
     18  N9       -12.3020    0.7260  -13.1330 N.pl3 1178  GDP1178    -0.2354
     19  C8       -12.7160    1.8750  -12.5590 C.3   1178  GDP1178     0.2246
     20  N7       -14.0430    1.8260  -12.2820 N.2   1178  GDP1178    -0.2322
     21  C5       -14.4950    0.6210  -12.6790 C.2   1178  GDP1178     0.2182
     22  C6       -15.7990   -0.0900  -12.6780 C.1   1178  GDP1178     0.2372
     23  O6       -16.8260    0.4590  -12.2210 O.2   1178  GDP1178    -0.2069
     24  N1       -15.8370   -1.3370  -13.1830 N.2   1178  GDP1178    -0.2485
     25  C2       -14.7420   -1.9510  -13.6810 C.1   1178  GDP1178     0.2531
     26  N2       -14.8640   -3.2100  -14.1730 N.pl3 1178  GDP1178    -0.0226
     27  N3       -13.5210   -1.3550  -13.7140 N.2   1178  GDP1178    -0.3074
     28  C4       -13.3420   -0.0990  -13.2400 C.2   1178  GDP1178     0.2300
@<TRIPOS>BOND
     1    16    15    1
     2    14    13    1
     3    15    13    1
     4    15    17    1
     5    13    11    1
     6    26    25    1
     7    27    25    2
     8    27    28    2
     9    25    24    2
    10    17    18    1
    11    17    12    1
    12    28    18    1
    13    28    21    1
    14    24    22    2
    15    18    19    1
    16    11    12    1
    17    11    10    1
    18     8     6    2
    19    21    22    1
    20    21    20    2
    21    22    23    2
    22    19    20    1
    23    10     9    1
    24     7     6    1
    25     9     6    1
    26     6     5    1
    27     5     1    1
    28     3     1    2
    29     2     1    1
    30     1     4    1
