@<TRIPOS>MOLECULE
2wmo_GTP_B_1.pdb
 32 34 0 0 0
SMALL
GASTEIGER

@<TRIPOS>ATOM
      1  PG        -5.2860    7.6190   -8.6460 P.3   1178  GTP1178     0.5373
      2  O1G       -5.4720    7.9050   -7.1680 O.3   1178  GTP1178    -0.1143
      3  O2G       -3.8390    7.2580   -8.8790 O.3   1178  GTP1178    -0.1143
      4  O3G       -5.6250    8.8310   -9.4930 O.2   1178  GTP1178    -0.2221
      5  O3B       -6.1770    6.3470   -9.1230 O.3   1178  GTP1178    -0.2258
      6  PB        -7.7850    6.3870   -9.1410 P.3   1178  GTP1178     0.2277
      7  O1B       -8.1960    7.7320   -9.7000 O.2   1178  GTP1178    -0.5168
      8  O2B       -8.3990    6.1650   -7.7820 O.3   1178  GTP1178    -0.4368
      9  O3A       -8.3370    5.1990  -10.0850 O.3   1178  GTP1178    -0.2700
     10  PA        -8.7430    5.3300  -11.6380 P.3   1178  GTP1178     0.2189
     11  O1A       -7.5950    5.8820  -12.4490 O.2   1178  GTP1178    -0.5170
     12  O2A      -10.0120    6.1320  -11.8100 O.3   1178  GTP1178    -0.4371
     13  O5'       -8.9820    3.8000  -12.0800 O.3   1178  GTP1178    -0.3112
     14  C5'       -8.1170    2.7570  -11.7090 C.3   1178  GTP1178     0.1813
     15  C4'       -8.3390    1.6100  -12.6900 C.3   1178  GTP1178     0.1799
     16  O4'       -9.5660    0.9970  -12.3480 O.3   1178  GTP1178    -0.3326
     17  C3'       -8.4830    2.0760  -14.1280 C.3   1178  GTP1178     0.2158
     18  O3'       -7.9290    1.0790  -14.9490 O.3   1178  GTP1178    -0.2175
     19  C2'       -9.9780    2.0700  -14.3720 C.3   1178  GTP1178     0.2310
     20  O2'      -10.3250    1.8430  -15.7290 O.3   1178  GTP1178    -0.2158
     21  C1'      -10.4580    0.9620  -13.4430 C.3   1178  GTP1178     0.2293
     22  N9       -11.8190    1.2890  -12.9880 N.pl3 1178  GTP1178    -0.2354
     23  C8       -12.2730    2.4910  -12.5010 C.3   1178  GTP1178     0.2246
     24  N7       -13.5820    2.3480  -12.1890 N.2   1178  GTP1178    -0.2322
     25  C5       -13.9650    1.0730  -12.4500 C.2   1178  GTP1178     0.2182
     26  C6       -15.1730    0.3920  -12.3170 C.1   1178  GTP1178     0.2372
     27  O6       -16.1850    0.9530  -11.8810 O.2   1178  GTP1178    -0.2069
     28  N1       -15.2380   -0.9370  -12.6870 N.2   1178  GTP1178    -0.2485
     29  C2       -14.1210   -1.5900  -13.1740 C.1   1178  GTP1178     0.2531
     30  N2       -14.1880   -2.8750  -13.5300 N.pl3 1178  GTP1178    -0.0226
     31  N3       -12.9330   -0.9030  -13.3050 N.2   1178  GTP1178    -0.3074
     32  C4       -12.8590    0.3990  -12.9480 C.2   1178  GTP1178     0.2300
@<TRIPOS>BOND
     1    20    19    1
     2    18    17    1
     3    19    17    1
     4    19    21    1
     5    17    15    1
     6    30    29    1
     7    21    22    1
     8    21    16    1
     9    31    29    2
    10    31    32    2
    11    29    28    2
    12    22    32    1
    13    22    23    1
    14    32    25    1
    15    15    16    1
    16    15    14    1
    17    28    26    2
    18    23    24    1
    19    25    26    1
    20    25    24    2
    21    11    10    2
    22    26    27    2
    23    13    14    1
    24    13    10    1
    25    12    10    1
    26    10     9    1
    27     9     6    1
    28     7     6    2
    29     4     1    2
    30     6     5    1
    31     6     8    1
    32     5     1    1
    33     3     1    1
    34     1     2    1
