@<TRIPOS>MOLECULE
2wmq_ZYQ_A_1.pdb
 15 16 0 0 0
SMALL
GASTEIGER

@<TRIPOS>ATOM
      1  CAA       17.9470   -3.2260    8.0670 C.3   1270  ZYQ1270     0.0969
      2  CAK       16.6470   -2.5420    7.7260 C.2   1270  ZYQ1270     0.2486
      3  OAB       16.5890   -1.7000    6.8380 O.2   1270  ZYQ1270    -0.2729
      4  NAI       15.6080   -2.9430    8.4380 N.am  1270  ZYQ1270    -0.1437
      5  CAN       14.4430   -2.3930    8.1860 C.2   1270  ZYQ1270     0.2335
      6  NAG       13.2570   -2.8050    8.5940 N.2   1270  ZYQ1270    -0.3856
      7  CAM       12.2440   -2.0410    8.1610 C.2   1270  ZYQ1270     0.1149
      8  CAF       10.7610   -2.2340    8.4310 C.3   1270  ZYQ1270     0.0586
      9  CAD       10.1510   -0.9960    9.0760 C.3   1270  ZYQ1270     0.0343
     10  CAE        9.7400    0.1440    8.1460 C.3   1270  ZYQ1270     0.1380
     11  NAH       10.6980    0.5810    7.1270 N.2   1270  ZYQ1270    -0.2053
     12  CAL       11.8760    0.0760    6.7550 C.1   1270  ZYQ1270     0.1424
     13  OAC       12.4090    0.6780    5.8290 O.2   1270  ZYQ1270    -0.2258
     14  CAO       12.6720   -1.0000    7.4010 C.3   1270  ZYQ1270     0.2084
     15  SAJ       14.2800   -1.0840    7.2790 S.3   1270  ZYQ1270    -0.0423
@<TRIPOS>BOND
     1    13    12    2
     2    12    11    2
     3    12    14    1
     4     3     2    2
     5    11    10    1
     6    15    14    1
     7    15     5    1
     8    14     7    1
     9     2     1    1
    10     2     4   am
    11    10     9    1
    12     7     8    1
    13     7     6    2
    14     5     4    1
    15     5     6    2
    16     8     9    1
