@<TRIPOS>MOLECULE
2wmr_ZYR_A_1.pdb
 14 16 0 0 0
SMALL
GASTEIGER

@<TRIPOS>ATOM
      1  OAA       13.0010    0.1900    6.1130 O.2   1271  ZYR1271    -0.2263
      2  CAL       12.0620   -0.3060    6.7290 C.1   1271  ZYR1271     0.1370
      3  CAN       12.2510   -1.4270    7.5230 C.3   1271  ZYR1271     0.1703
      4  CAK       13.4300   -2.1300    7.8200 C.2   1271  ZYR1271    -0.0211
      5  CAF       14.8020   -1.9610    7.2260 C.3   1271  ZYR1271     0.0237
      6  CAD       16.0810   -2.5240    7.9160 C.3   1271  ZYR1271     0.0048
      7  CAC       15.7590   -4.0170    8.0060 C.3   1271  ZYR1271     0.0055
      8  CAE       14.5060   -4.0160    8.9270 C.3   1271  ZYR1271     0.0324
      9  CAJ       13.2590   -3.2600    8.5660 C.2   1271  ZYR1271     0.0019
     10  SAI       11.6730   -3.2760    9.0630 S.3   1271  ZYR1271    -0.0762
     11  CAM       11.1420   -1.9420    8.1990 C.2   1271  ZYR1271     0.1040
     12  NAG        9.9330   -1.3780    8.0910 N.2   1271  ZYR1271    -0.2400
     13  CAB        9.7380   -0.3140    7.3430 C.3   1271  ZYR1271     0.2624
     14  NAH       10.7950    0.2570    6.6370 N.2   1271  ZYR1271    -0.1784
@<TRIPOS>BOND
     1     1     2    2
     2    14     2    2
     3    14    13    1
     4     2     3    1
     5     5     4    1
     6     5     6    1
     7    13    12    1
     8     3     4    1
     9     3    11    1
    10     4     9    2
    11     6     7    1
    12     7     8    1
    13    12    11    2
    14    11    10    1
    15     9     8    1
    16     9    10    1
