@<TRIPOS>MOLECULE
2wms_ZYS_A_1.pdb
 19 20 0 0 0
SMALL
GASTEIGER

@<TRIPOS>ATOM
      1  CAA       16.4710   -3.0180    6.0340 C.3   1271  ZYS1271     0.0217
      2  CAS       16.4590   -1.7400    6.8650 C.3   1271  ZYS1271     0.0790
      3  CAB       17.7890   -1.0080    6.7290 C.3   1271  ZYS1271     0.0217
      4  CAC       16.1790   -2.0560    8.3300 C.3   1271  ZYS1271     0.0217
      5  NAL       15.3910   -0.8620    6.3720 N.pl3 1271  ZYS1271    -0.2078
      6  CAQ       14.1280   -1.1010    6.6990 C.2   1271  ZYS1271     0.2285
      7  SAM       13.6260   -2.3860    7.6410 S.3   1271  ZYS1271    -0.0498
      8  NAK       13.0730   -0.3740    6.3140 N.2   1271  ZYS1271    -0.3645
      9  CAO       11.9030   -0.8380    6.7920 C.2   1271  ZYS1271     0.2162
     10  NAD       10.7380   -0.2560    6.5380 N.pl3 1271  ZYS1271    -0.0965
     11  CAR       12.0140   -1.9900    7.5630 C.3   1271  ZYS1271     0.1864
     12  CAN       10.8760   -2.7340    8.2530 C.2   1271  ZYS1271     0.1913
     13  OAE        9.7180   -2.3470    8.1240 O.2   1271  ZYS1271    -0.2899
     14  CAP       11.1990   -3.9620    9.1080 C.ar  1271  ZYS1271     0.0360
     15  CAI       12.4960   -4.4570    9.1530 C.ar  1271  ZYS1271     0.0029
     16  CAG       12.7870   -5.5780    9.9200 C.ar  1271  ZYS1271     0.0001
     17  CAF       11.7810   -6.2110   10.6370 C.ar  1271  ZYS1271     0.0000
     18  CAH       10.4850   -5.7220   10.5860 C.ar  1271  ZYS1271     0.0001
     19  CAJ       10.1920   -4.6080    9.8110 C.ar  1271  ZYS1271     0.0029
@<TRIPOS>BOND
     1     1     2    1
     2     8     6    2
     3     8     9    2
     4     5     6    1
     5     5     2    1
     6    10     9    1
     7     6     7    1
     8     3     2    1
     9     9    11    1
    10     2     4    1
    11    11     7    1
    12    11    12    1
    13    13    12    2
    14    12    14    1
    15    14    15   ar
    16    14    19   ar
    17    15    16   ar
    18    19    18   ar
    19    16    17   ar
    20    18    17   ar
