@<TRIPOS>MOLECULE
2wmt_ZYT_A_1.pdb
 14 15 0 0 0
SMALL
GASTEIGER

@<TRIPOS>ATOM
      1  CAA        8.5140    0.5490    9.1790 C.3   1271  ZYT1271     0.0872
      2  SAI        8.8620   -0.9960    8.3880 S.3   1271  ZYT1271    -0.0165
      3  CAL       10.5330   -1.0110    7.9070 C.1   1271  ZYT1271     0.1799
      4  NAG       11.4340   -1.9210    8.2790 N.2   1271  ZYT1271    -0.3255
      5  NAH       11.0670   -0.1120    7.0970 N.2   1271  ZYT1271    -0.2582
      6  CAM       12.3350   -0.4580    6.9680 C.1   1271  ZYT1271     0.2422
      7  OAB       13.1260    0.1700    6.2820 O.2   1271  ZYT1271    -0.2062
      8  CAN       12.5940   -1.5990    7.7130 C.2   1271  ZYT1271     0.2207
      9  CAC       13.8430   -2.2080    7.8080 C.3   1271  ZYT1271     0.1062
     10  CAK       15.0240   -1.8090    7.1810 C.ar  1271  ZYT1271     0.0152
     11  CAF       15.2160   -0.7730    6.3670 C.ar  1271  ZYT1271     0.0031
     12  CAD       16.4780   -0.6400    5.9130 C.ar  1271  ZYT1271     0.0072
     13  CAE       17.3530   -1.5570    6.3400 C.ar  1271  ZYT1271     0.0351
     14  SAJ       16.4880   -2.5960    7.3480 S.2   1271  ZYT1271    -0.0903
@<TRIPOS>BOND
     1    12    13   ar
     2    12    11   ar
     3     7     6    2
     4    13    14   ar
     5    11    10   ar
     6     6     5    2
     7     6     8    1
     8     5     3    2
     9    10    14   ar
    10    10     9    1
    11     8     9    1
    12     8     4    2
    13     3     4    2
    14     3     2    1
    15     2     1    1
