@<TRIPOS>MOLECULE
2wmu_ZYU_A_1.pdb
 15 17 0 0 0
SMALL
GASTEIGER

@<TRIPOS>ATOM
      1  CAO       14.5360   -3.3190    9.0330 C.3   1271  ZYU1271     0.2346
      2  CAN       14.3770   -4.8290    8.9910 C.3   1271  ZYU1271     0.1929
      3  OAL       13.3390   -5.3460    9.8410 O.3   1271  ZYU1271    -0.3449
      4  CAK       12.1420   -4.7290    9.3330 C.3   1271  ZYU1271     0.1929
      5  CAP       12.1560   -3.2090    9.4020 C.3   1271  ZYU1271     0.2346
      6  C6        13.1720   -1.6050    7.7920 C.2   1271  ZYU1271     0.3480
      7  N1        14.2450   -1.0080    7.2690 N.2   1271  ZYU1271    -0.0336
      8  C2        14.0990    0.0540    6.5030 C.3   1271  ZYU1271     0.4005
      9  N3        12.9160    0.5840    6.2730 N.2   1271  ZYU1271    -0.1640
     10  C4        11.8140    0.0530    6.8010 C.1   1271  ZYU1271     0.0576
     11  C5        11.9240   -1.0590    7.5900 C.2   1271  ZYU1271     0.2219
     12  N7        10.7100   -1.3910    7.9900 N.2   1271  ZYU1271    -0.2269
     13  C8         9.8560   -0.5220    7.4730 C.3   1271  ZYU1271     0.2618
     14  N9        10.5280    0.3620    6.7470 N.2   1271  ZYU1271    -0.1914
     15  N6        13.2830   -2.6980    8.6270 N.pl3 1271  ZYU1271    -0.1841
@<TRIPOS>BOND
     1     9     8    1
     2     9    10    2
     3     8     7    1
     4    14    10    2
     5    14    13    1
     6    10    11    1
     7     7     6    2
     8    13    12    1
     9    11     6    1
    10    11    12    2
    11     6    15    1
    12    15     1    1
    13    15     5    1
    14     2     1    1
    15     2     3    1
    16     4     5    1
    17     4     3    1
