@<TRIPOS>MOLECULE
2wmv_ZYV_A_1.pdb
 17 19 0 0 0
SMALL
GASTEIGER

@<TRIPOS>ATOM
      1  C5        12.1790   -1.6350    7.5780 C.2   1271  ZYV1271     0.2219
      2  N7        11.0220   -1.9050    8.1590 N.2   1271  ZYV1271    -0.2269
      3  C8        10.1690   -0.9350    7.8400 C.3   1271  ZYV1271     0.2618
      4  N9        10.7770   -0.0500    7.0580 N.2   1271  ZYV1271    -0.1914
      5  C4        12.0230   -0.4580    6.8760 C.1   1271  ZYV1271     0.0576
      6  N3        13.0570    0.0410    6.1890 N.2   1271  ZYV1271    -0.1640
      7  C2        14.2190   -0.5830    6.1830 C.3   1271  ZYV1271     0.4005
      8  N1        14.4000   -1.7120    6.8440 N.2   1271  ZYV1271    -0.0336
      9  C6        13.4100   -2.2650    7.5550 C.2   1271  ZYV1271     0.3480
     10  N6        13.6300   -3.4650    8.2390 N.pl3 1271  ZYV1271    -0.1841
     11  CAG       12.5460   -4.2530    8.8430 C.3   1271  ZYV1271     0.2335
     12  CAF       14.9330   -4.1310    8.2130 C.3   1271  ZYV1271     0.2346
     13  CAE       15.2900   -4.6580    9.5940 C.3   1271  ZYV1271     0.1929
     14  OAL       14.3150   -5.5980   10.0630 O.3   1271  ZYV1271    -0.3461
     15  CAP       13.0580   -4.9020   10.1350 C.3   1271  ZYV1271     0.1808
     16  CAD       13.5060   -3.8390   11.1240 C.3   1271  ZYV1271     0.1430
     17  NAA       13.9960   -4.4980   12.3410 N.3   1271  ZYV1271    -0.1286
@<TRIPOS>BOND
     1     7     6    1
     2     7     8    1
     3     6     5    2
     4     8     9    2
     5     5     4    2
     6     5     1    1
     7     4     3    1
     8     9     1    1
     9     9    10    1
    10     1     2    2
    11     3     2    1
    12    12    10    1
    13    12    13    1
    14    10    11    1
    15    11    15    1
    16    13    14    1
    17    14    15    1
    18    15    16    1
    19    16    17    1
