@<TRIPOS>MOLECULE
2wmw_ZYW_A_1.pdb
 18 20 0 0 0
SMALL
GASTEIGER

@<TRIPOS>ATOM
      1 BR         19.6460   -2.3340    9.6560 Br    1270  ZYW1270    -0.0503
      2  CAM       17.9080   -1.6170    9.5880 C.2   1270  ZYW1270     0.0516
      3  CAC       17.6890   -0.4450    8.8800 C.2   1270  ZYW1270     0.1136
      4  NAJ       16.4900    0.0960    8.8040 N.2   1270  ZYW1270    -0.1909
      5  CAP       15.4490   -0.4750    9.4140 C.1   1270  ZYW1270     0.0531
      6  NAK       14.1730   -0.1460    9.4980 N.2   1270  ZYW1270    -0.1047
      7  NAI       13.5770   -0.9800   10.1750 N.pl3 1270  ZYW1270    -0.1066
      8  CAD       14.4080   -1.9270   10.5930 C.2   1270  ZYW1270     0.1164
      9  CAO       15.6080   -1.6400   10.1290 C.2   1270  ZYW1270     0.0791
     10  CAN       16.8530   -2.2350   10.2350 C.3   1270  ZYW1270     0.1218
     11  NAQ       17.0150   -3.4240   10.9590 N.3   1270  ZYW1270    -0.2615
     12  CAH       18.0540   -3.6090   12.0000 C.3   1270  ZYW1270     0.1041
     13  CAG       16.0820   -4.5360   10.7040 C.3   1270  ZYW1270     0.1051
     14  CAF       15.7630   -5.3090   11.9820 C.3   1270  ZYW1270     0.1595
     15  OAL       16.9530   -5.5350   12.7210 O.3   1270  ZYW1270    -0.3518
     16  CAR       17.3830   -4.2830   13.2180 C.3   1270  ZYW1270     0.1501
     17  CAE       18.1480   -4.5350   14.5460 C.3   1270  ZYW1270     0.1401
     18  NAA       19.6070   -4.5450   14.3670 N.3   1270  ZYW1270    -0.1287
@<TRIPOS>BOND
     1     4     3    1
     2     4     5    2
     3     3     2    2
     4     5     6    2
     5     5     9    1
     6     6     7    1
     7     2     1    1
     8     2    10    1
     9     9    10    1
    10     9     8    2
    11     7     8    1
    12    10    11    1
    13    13    11    1
    14    13    14    1
    15    11    12    1
    16    14    15    1
    17    12    16    1
    18    15    16    1
    19    16    17    1
    20    18    17    1
