@<TRIPOS>MOLECULE
2wmx_ZY6_A_1.pdb
 23 26 0 0 0
SMALL
GASTEIGER

@<TRIPOS>ATOM
      1  CAE       19.9780   -2.2090   10.8430 C.ar  1270  ZY61270    -0.0002
      2  CAC       21.2690   -2.7100   10.8810 C.ar  1270  ZY61270    -0.0000
      3  CAB       21.9790   -2.8640    9.7050 C.ar  1270  ZY61270    -0.0000
      4  CAD       21.3910   -2.5160    8.5010 C.ar  1270  ZY61270    -0.0000
      5  CAF       20.0970   -2.0170    8.4680 C.ar  1270  ZY61270    -0.0002
      6  CAQ       19.3760   -1.8780    9.6400 C.ar  1270  ZY61270    -0.0009
      7  CAR       18.0950   -1.3500    9.6320 C.2   1270  ZY61270     0.0170
      8  CAG       17.9290   -0.1020    9.0570 C.2   1270  ZY61270     0.1069
      9  NAN       16.7570    0.4920    9.0170 N.2   1270  ZY61270    -0.1915
     10  CAU       15.6760   -0.0870    9.5460 C.1   1270  ZY61270     0.0531
     11  NAO       14.4120    0.3090    9.6520 N.2   1270  ZY61270    -0.1047
     12  NAM       13.7710   -0.5810   10.2160 N.pl3 1270  ZY61270    -0.1066
     13  CAH       14.5530   -1.6060   10.5490 C.2   1270  ZY61270     0.1164
     14  CAT       15.7770   -1.3280   10.1390 C.2   1270  ZY61270     0.0786
     15  CAS       17.0030   -1.9870   10.2000 C.3   1270  ZY61270     0.1156
     16  NAV       17.1190   -3.2500   10.8070 N.3   1270  ZY61270    -0.2619
     17  CAL       18.3410   -3.6730   11.5190 C.3   1270  ZY61270     0.1041
     18  CAK       15.9880   -4.1890   10.7750 C.3   1270  ZY61270     0.1051
     19  CAJ       15.8580   -4.9280   12.1060 C.3   1270  ZY61270     0.1595
     20  OAP       17.1270   -5.4460   12.4770 O.3   1270  ZY61270    -0.3518
     21  CAW       17.9560   -4.3620   12.8350 C.3   1270  ZY61270     0.1501
     22  CAI       19.1350   -4.9600   13.6220 C.3   1270  ZY61270     0.1401
     23  NAA       19.8180   -3.9430   14.4380 N.3   1270  ZY61270    -0.1287
@<TRIPOS>BOND
     1     5     4   ar
     2     5     6   ar
     3     4     3   ar
     4     9     8    1
     5     9    10    2
     6     8     7    2
     7    10    11    2
     8    10    14    1
     9     7     6    1
    10     7    15    1
    11     6     1   ar
    12    11    12    1
    13     3     2   ar
    14    14    15    1
    15    14    13    2
    16    15    16    1
    17    12    13    1
    18    18    16    1
    19    18    19    1
    20    16    17    1
    21     1     2   ar
    22    17    21    1
    23    19    20    1
    24    20    21    1
    25    21    22    1
    26    22    23    1
