@<TRIPOS>MOLECULE
2wn2_GAL_A_1.pdb
 11 11 0 0 0
SMALL
GASTEIGER

@<TRIPOS>ATOM
      1  C1       -13.1530  -79.9760    3.1540 C.3   302  GAL302      0.1777
      2  C2       -12.0420  -79.3420    3.9860 C.3   302  GAL302      0.2141
      3  C3       -12.5410  -78.0490    4.6450 C.3   302  GAL302      0.2173
      4  C4       -13.1030  -77.0910    3.5770 C.3   302  GAL302      0.2142
      5  C5       -14.2010  -77.8460    2.8050 C.3   302  GAL302      0.1810
      6  C6       -14.7820  -76.9930    1.6990 C.3   302  GAL302      0.2141
      7  O2       -11.7040  -80.2740    5.0050 O.3   302  GAL302     -0.2176
      8  O3       -11.4600  -77.4250    5.3050 O.3   302  GAL302     -0.2175
      9  O4       -12.0700  -76.6970    2.6790 O.3   302  GAL302     -0.2176
     10  O5       -13.7010  -79.0550    2.2430 O.3   302  GAL302     -0.3481
     11  O6       -15.9300  -77.6340    1.1920 O.3   302  GAL302     -0.2176
@<TRIPOS>BOND
     1    11     6    1
     2     6     5    1
     3    10     5    1
     4    10     1    1
     5     9     4    1
     6     5     4    1
     7     1     2    1
     8     4     3    1
     9     2     3    1
    10     2     7    1
    11     3     8    1
