@<TRIPOS>MOLECULE
2wn2_A2G_A_1.pdb
 15 15 0 0 0
SMALL
GASTEIGER

@<TRIPOS>ATOM
      1  C1       -13.4110  -84.6860    2.0270 C.3   301  A2G301      0.2917
      2  C2       -12.6070  -83.4050    2.0980 C.3   301  A2G301      0.1871
      3  C3       -13.5110  -82.2400    2.4520 C.3   301  A2G301      0.2095
      4  C4       -14.6550  -82.1580    1.4460 C.3   301  A2G301      0.2136
      5  C5       -15.3450  -83.5180    1.4190 C.3   301  A2G301      0.1835
      6  C6       -16.5120  -83.5800    0.4460 C.3   301  A2G301      0.2142
      7  C7       -10.2680  -83.5350    2.8200 C.2   301  A2G301      0.2421
      8  C8        -9.3410  -83.6330    4.0090 C.3   301  A2G301      0.0964
      9  O        -14.4130  -84.5420    1.0310 O.3   301  A2G301     -0.3242
     10  O1       -14.0380  -84.9140    3.2930 O.3   301  A2G301     -0.1879
     11  O3       -12.6410  -81.1150    2.4590 O.3   301  A2G301     -0.2183
     12  O4       -14.1390  -81.7910    0.1570 O.3   301  A2G301     -0.2176
     13  O6       -16.0690  -82.9330   -0.7340 O.3   301  A2G301     -0.2176
     14  O7        -9.8690  -83.4890    1.6730 O.2   301  A2G301     -0.2733
     15  N2       -11.5670  -83.4970    3.1110 N.am  301  A2G301     -0.1991
@<TRIPOS>BOND
     1    13     6    1
     2    12     4    1
     3     6     5    1
     4     9     5    1
     5     9     1    1
     6     5     4    1
     7     4     3    1
     8    14     7    2
     9     1     2    1
    10     1    10    1
    11     2     3    1
    12     2    15    1
    13     3    11    1
    14     7    15   am
    15     7     8    1
