@<TRIPOS>MOLECULE
2wn2_NGA_A_1.pdb
 15 15 0 0 0
SMALL
GASTEIGER

@<TRIPOS>ATOM
      1  C1       -13.6450  -84.7680    2.0300 C.3   300  NGA300      0.2917
      2  C2       -12.7340  -83.5320    2.0370 C.3   300  NGA300      0.1871
      3  C3       -13.5380  -82.2740    2.4090 C.3   300  NGA300      0.2095
      4  C4       -14.6620  -82.0700    1.3950 C.3   300  NGA300      0.2136
      5  C5       -15.4470  -83.3640    1.2800 C.3   300  NGA300      0.1835
      6  C6       -16.5340  -83.4050    0.1900 C.3   300  NGA300      0.2142
      7  C7       -10.3560  -83.5930    2.7770 C.2   300  NGA300      0.2421
      8  C8        -9.4420  -83.7260    3.9760 C.3   300  NGA300      0.0964
      9  N2       -11.6690  -83.6450    3.0380 N.am  300  NGA300     -0.1991
     10  O1       -12.6810  -85.7630    1.6620 O.3   300  NGA300     -0.1879
     11  O3       -12.6410  -81.1540    2.4880 O.3   300  NGA300     -0.2183
     12  O4       -14.0920  -81.7130    0.1320 O.3   300  NGA300     -0.2176
     13  O5       -14.5080  -84.4030    0.9760 O.3   300  NGA300     -0.3242
     14  O6       -17.2960  -84.6410    0.2490 O.3   300  NGA300     -0.2176
     15  O7        -9.9250  -83.4520    1.6530 O.2   300  NGA300     -0.2733
@<TRIPOS>BOND
     1    12     4    1
     2     6    14    1
     3     6     5    1
     4    13     5    1
     5    13     1    1
     6     5     4    1
     7     4     3    1
     8    15     7    2
     9    10     1    1
    10     1     2    1
    11     2     3    1
    12     2     9    1
    13     3    11    1
    14     7     9   am
    15     7     8    1
