@<TRIPOS>MOLECULE
2wn3_NGA_A_1.pdb
 14 14 0 0 0
SMALL
GASTEIGER

@<TRIPOS>ATOM
      1  C1       -14.2190   84.7680   -1.8120 C.3   300  NGA300      0.1665
      2  C2       -13.6820   83.3550   -1.5650 C.3   300  NGA300      0.1576
      3  C3       -14.8230   82.3620   -1.4670 C.3   300  NGA300      0.2069
      4  C4       -15.9480   82.8490   -0.5890 C.3   300  NGA300      0.2134
      5  C5       -16.3570   84.2730   -0.9040 C.3   300  NGA300      0.1809
      6  C6       -17.4220   84.6970    0.0930 C.3   300  NGA300      0.2141
      7  C7       -11.3850   83.0280   -2.4430 C.2   300  NGA300      0.2420
      8  C8       -10.5840   82.5710   -3.6380 C.3   300  NGA300      0.0964
      9  N2       -12.7380   82.9410   -2.5810 N.am  300  NGA300     -0.2019
     10  O3       -14.2710   81.1730   -0.8860 O.3   300  NGA300     -0.2184
     11  O4       -15.5690   82.8320    0.7840 O.3   300  NGA300     -0.2176
     12  O5       -15.1720   85.0760   -0.7860 O.3   300  NGA300     -0.3489
     13  O6       -17.9060   85.9760   -0.2140 O.3   300  NGA300     -0.2176
     14  O7       -10.8070   83.4350   -1.4490 O.2   300  NGA300     -0.2733
@<TRIPOS>BOND
     1     8     7    1
     2     9     7   am
     3     9     2    1
     4     7    14    2
     5     1     2    1
     6     1    12    1
     7     2     3    1
     8     3    10    1
     9     3     4    1
    10     5    12    1
    11     5     4    1
    12     5     6    1
    13     4    11    1
    14    13     6    1
