@<TRIPOS>MOLECULE
2wn6_NDP_A_1.pdb
 48 52 0 0 0
SMALL
GASTEIGER

@<TRIPOS>ATOM
      1  PA       -18.0110   -3.8250    8.6770 P.3   1421  NDP1421     0.2189
      2  O1A      -16.9150   -2.9960    9.2280 O.3   1421  NDP1421    -0.4371
      3  O2A      -19.0960   -3.1790    7.9030 O.2   1421  NDP1421    -0.5170
      4  O5B      -17.3810   -4.9830    7.7380 O.3   1421  NDP1421    -0.3112
      5  C5B      -18.2250   -5.9810    7.1420 C.3   1421  NDP1421     0.1813
      6  C4B      -17.4090   -6.9840    6.3150 C.3   1421  NDP1421     0.1820
      7  O4B      -16.6970   -6.2840    5.2660 O.3   1421  NDP1421    -0.3136
      8  C3B      -16.3660   -7.6100    7.2450 C.3   1421  NDP1421     0.2157
      9  O3B      -16.6290   -9.0110    7.3190 O.3   1421  NDP1421    -0.2175
     10  C2B      -15.0040   -7.2900    6.5910 C.3   1421  NDP1421     0.2314
     11  O2B      -14.0620   -8.4020    6.5940 O.3   1421  NDP1421    -0.2630
     12  C1B      -15.3730   -6.8390    5.1670 C.3   1421  NDP1421     0.3158
     13  N9A      -14.4940   -5.7250    4.7020 N.pl3 1421  NDP1421    -0.1439
     14  C8A      -14.3740   -4.5230    5.2740 C.3   1421  NDP1421     0.3377
     15  N7A      -13.4980   -3.7840    4.5930 N.2   1421  NDP1421    -0.2095
     16  C5A      -13.0590   -4.5120    3.5730 C.2   1421  NDP1421     0.2526
     17  C6A      -12.1560   -4.2810    2.5380 C.2   1421  NDP1421     0.4393
     18  N6A      -11.5210   -3.1150    2.4260 N.pl3 1421  NDP1421     0.2180
     19  N1A      -11.9270   -5.2610    1.6460 N.2   1421  NDP1421     0.0021
     20  C2A      -12.5500   -6.4280    1.7380 C.3   1421  NDP1421     0.5254
     21  N3A      -13.4150   -6.6770    2.7120 N.2   1421  NDP1421    -0.0055
     22  C4A      -13.6920   -5.7460    3.6410 C.2   1421  NDP1421     0.3518
     23  O3       -18.6900   -4.6660    9.8750 O.3   1421  NDP1421    -0.2703
     24  PN       -17.8570   -5.4320   11.0470 P.3   1421  NDP1421     0.2189
     25  O1N      -16.4290   -5.0530   10.9710 O.3   1421  NDP1421    -0.4371
     26  O2N      -18.2430   -6.8560   10.9560 O.2   1421  NDP1421    -0.5170
     27  O5D      -18.4900   -4.8120   12.4050 O.3   1421  NDP1421    -0.3112
     28  C5D      -19.9210   -4.7450   12.6300 C.3   1421  NDP1421     0.1813
     29  C4D      -20.4020   -3.3020   12.9520 C.3   1421  NDP1421     0.1799
     30  O4D      -19.5880   -2.6920   14.0050 O.3   1421  NDP1421    -0.3327
     31  C3D      -20.2860   -2.3890   11.7280 C.3   1421  NDP1421     0.2158
     32  O3D      -21.3750   -1.4580   11.7260 O.3   1421  NDP1421    -0.2175
     33  C2D      -18.9810   -1.6430   11.9660 C.3   1421  NDP1421     0.2309
     34  O2D      -19.0350   -0.3780   11.3130 O.3   1421  NDP1421    -0.2158
     35  C1D      -18.9810   -1.4640   13.4890 C.3   1421  NDP1421     0.2263
     36  N1N      -17.6490   -1.3690   14.1590 N.pl3 1421  NDP1421    -0.2787
     37  C2N      -16.6640   -2.3530   13.9370 C.3   1421  NDP1421     0.1244
     38  C3N      -15.4250   -2.2740   14.5740 C.2   1421  NDP1421     0.0544
     39  C7N      -14.3560   -3.3540   14.3310 C.2   1421  NDP1421     0.2818
     40  O7N      -13.4190   -3.4940   15.1170 O.2   1421  NDP1421    -0.2670
     41  N7N      -14.5430   -4.1310   13.2600 N.am  1421  NDP1421    -0.0839
     42  C4N      -15.1640   -1.2110   15.4450 C.2   1421  NDP1421     0.0033
     43  C5N      -16.1330   -0.2310   15.6780 C.2   1421  NDP1421     0.0157
     44  C6N      -17.3760   -0.3100   15.0450 C.2   1421  NDP1421     0.0633
     45  P2B      -14.4340   -9.9790    6.2420 P.3   1421  NDP1421     0.5328
     46  O1X      -14.9510  -10.6470    7.6420 O.3   1421  NDP1421    -0.1145
     47  O2X      -13.0660  -10.7420    5.9390 O.3   1421  NDP1421    -0.1145
     48  O3X      -15.4150  -10.1420    5.1410 O.2   1421  NDP1421    -0.2224
@<TRIPOS>BOND
     1    19    20    1
     2    19    17    2
     3    20    21    1
     4    18    17    1
     5    17    16    1
     6    21    22    2
     7    16    22    1
     8    16    15    2
     9    22    13    1
    10    15    14    1
    11    13    12    1
    12    13    14    1
    13    48    45    2
    14    12     7    1
    15    12    10    1
    16     7     6    1
    17    47    45    1
    18    45    11    1
    19    45    46    1
    20     6     5    1
    21     6     8    1
    22    10    11    1
    23    10     8    1
    24     5     4    1
    25     8     9    1
    26     4     1    1
    27     3     1    2
    28     1     2    1
    29     1    23    1
    30    23    24    1
    31    26    24    2
    32    25    24    1
    33    24    27    1
    34    34    33    1
    35    32    31    1
    36    31    33    1
    37    31    29    1
    38    33    35    1
    39    27    28    1
    40    28    29    1
    41    29    30    1
    42    41    39   am
    43    35    30    1
    44    35    36    1
    45    37    36    1
    46    37    38    1
    47    36    44    1
    48    39    38    1
    49    39    40    2
    50    38    42    2
    51    44    43    2
    52    42    43    1
