@<TRIPOS>MOLECULE
2wn7_NAD_A_1.pdb
 44 48 0 0 0
SMALL
GASTEIGER

@<TRIPOS>ATOM
      1  PA       -17.9780   -3.8600    8.9490 P.3   1421  NAD1421     0.2189
      2  O1A      -16.7980   -3.0720    9.3750 O.3   1421  NAD1421    -0.4371
      3  O2A      -19.0000   -3.2210    8.0900 O.2   1421  NAD1421    -0.5170
      4  O5B      -17.4720   -5.2280    8.2220 O.3   1421  NAD1421    -0.3112
      5  C5B      -18.3110   -5.9880    7.2970 C.3   1421  NAD1421     0.1813
      6  C4B      -17.5490   -7.1730    6.5920 C.3   1421  NAD1421     0.1821
      7  O4B      -16.7720   -6.7860    5.3850 O.3   1421  NAD1421    -0.3135
      8  C3B      -16.5110   -7.8630    7.4970 C.3   1421  NAD1421     0.2184
      9  O3B      -16.3520   -9.2290    7.0980 O.3   1421  NAD1421    -0.2174
     10  C2B      -15.2340   -7.0570    7.2110 C.3   1421  NAD1421     0.2570
     11  O2B      -14.0730   -7.8870    7.1980 O.3   1421  NAD1421    -0.2130
     12  C1B      -15.5280   -6.4330    5.8320 C.3   1421  NAD1421     0.3186
     13  N9A      -14.7560   -5.5100    5.2550 N.pl3 1421  NAD1421    -0.1439
     14  C8A      -14.5400   -4.2740    5.7070 C.3   1421  NAD1421     0.3377
     15  N7A      -13.7140   -3.6440    4.8770 N.2   1421  NAD1421    -0.2095
     16  C5A      -13.4050   -4.4790    3.8920 C.2   1421  NAD1421     0.2526
     17  C6A      -12.6000   -4.3630    2.7640 C.2   1421  NAD1421     0.4393
     18  N6A      -11.9560   -3.2240    2.5200 N.pl3 1421  NAD1421     0.2180
     19  N1A      -12.4810   -5.4180    1.9330 N.2   1421  NAD1421     0.0021
     20  C2A      -13.1300   -6.5500    2.1820 C.3   1421  NAD1421     0.5254
     21  N3A      -13.9100   -6.6860    3.2540 N.2   1421  NAD1421    -0.0055
     22  C4A      -14.0670   -5.6760    4.1270 C.2   1421  NAD1421     0.3518
     23  O3       -18.7100   -4.4170   10.2630 O.3   1421  NAD1421    -0.2703
     24  PN       -17.9970   -5.4710   11.2820 P.3   1421  NAD1421     0.2189
     25  O1N      -16.5420   -5.1790   11.3310 O.3   1421  NAD1421    -0.4371
     26  O2N      -18.4670   -6.8200   10.8890 O.2   1421  NAD1421    -0.5170
     27  O5D      -18.6610   -5.0550   12.7150 O.3   1421  NAD1421    -0.3112
     28  C5D      -20.0800   -4.8370   12.8800 C.3   1421  NAD1421     0.1813
     29  C4D      -20.3950   -3.3950   13.3520 C.3   1421  NAD1421     0.1799
     30  O4D      -19.4060   -2.9670   14.3320 O.3   1421  NAD1421    -0.3327
     31  C3D      -20.3080   -2.3970   12.1870 C.3   1421  NAD1421     0.2158
     32  O3D      -21.3390   -1.4200   12.3250 O.3   1421  NAD1421    -0.2175
     33  C2D      -18.9390   -1.7520   12.3840 C.3   1421  NAD1421     0.2309
     34  O2D      -18.9210   -0.4440   11.8250 O.3   1421  NAD1421    -0.2158
     35  C1D      -18.8520   -1.6900   13.9070 C.3   1421  NAD1421     0.2263
     36  N1N      -17.4840   -1.6270   14.4830 N.pl3 1421  NAD1421    -0.2787
     37  C2N      -16.5170   -2.5970   14.1650 C.3   1421  NAD1421     0.1244
     38  C3N      -15.2400   -2.5200   14.7300 C.2   1421  NAD1421     0.0544
     39  C7N      -14.1870   -3.5740   14.4060 C.2   1421  NAD1421     0.2818
     40  O7N      -13.2500   -3.7550   15.1770 O.2   1421  NAD1421    -0.2670
     41  N7N      -14.4110   -4.3180   13.3160 N.am  1421  NAD1421    -0.0839
     42  C4N      -14.9220   -1.4930   15.6170 C.2   1421  NAD1421     0.0033
     43  C5N      -15.8770   -0.5310   15.9440 C.2   1421  NAD1421     0.0157
     44  C6N      -17.1550   -0.5930   15.3840 C.2   1421  NAD1421     0.0633
@<TRIPOS>BOND
     1    19    20    1
     2    19    17    2
     3    20    21    1
     4    18    17    1
     5    17    16    1
     6    21    22    2
     7    16    22    1
     8    16    15    2
     9    22    13    1
    10    15    14    1
    11    13    14    1
    12    13    12    1
    13     7    12    1
    14     7     6    1
    15    12    10    1
    16     6     5    1
    17     6     8    1
    18     9     8    1
    19    11    10    1
    20    10     8    1
    21     5     4    1
    22     3     1    2
    23     4     1    1
    24     1     2    1
    25     1    23    1
    26    23    24    1
    27    26    24    2
    28    24    25    1
    29    24    27    1
    30    34    33    1
    31    31    32    1
    32    31    33    1
    33    31    29    1
    34    33    35    1
    35    27    28    1
    36    28    29    1
    37    41    39   am
    38    29    30    1
    39    35    30    1
    40    35    36    1
    41    37    36    1
    42    37    38    1
    43    39    38    1
    44    39    40    2
    45    36    44    1
    46    38    42    2
    47    44    43    2
    48    42    43    1
