@<TRIPOS>MOLECULE
2wn9_ZY5_A_1.pdb
 22 24 0 0 0
SMALL
GASTEIGER

@<TRIPOS>ATOM
      1  C7        30.2280   -6.5920   62.6450 C.2   301  ZY5301      0.0002
      2  C4        30.9340   -7.0840   63.8860 C.ar  301  ZY5301      0.0339
      3  C3        30.6000   -8.3240   64.3910 C.ar  301  ZY5301      0.1418
      4  O21       29.6330   -8.9900   63.6950 O.3   301  ZY5301     -0.4713
      5  C22       29.1650  -10.3310   63.9660 C.3   301  ZY5301      0.2525
      6  C2        31.2340   -8.8180   65.5450 C.ar  301  ZY5301      0.0789
      7  C5        31.9230   -6.3420   64.5230 C.ar  301  ZY5301      0.0063
      8  C6        32.5380   -6.8190   65.6690 C.ar  301  ZY5301      0.0422
      9  C1        32.2130   -8.0570   66.1800 C.ar  301  ZY5301      0.1988
     10  O20       32.8390   -8.5060   67.3310 O.3   301  ZY5301     -0.2865
     11  C8        29.9340   -5.2960   62.4020 C.2   301  ZY5301     -0.0048
     12  C13       30.2990   -4.1670   63.3450 C.3   301  ZY5301      0.0299
     13  C12       29.4730   -2.9140   63.1080 C.3   301  ZY5301      0.0310
     14  C11       29.5500   -2.5090   61.6510 C.3   301  ZY5301      0.1258
     15  N10       29.0780   -3.6860   60.9320 N.2   301  ZY5301     -0.2707
     16  C9        29.2950   -4.9260   61.1410 C.2   301  ZY5301      0.0735
     17  C14       28.9180   -5.8840   60.0420 C.ar  301  ZY5301      0.0361
     18  C19       27.5920   -6.0490   59.6700 C.ar  301  ZY5301      0.1003
     19  N18       27.2420   -6.8530   58.6610 N.ar  301  ZY5301     -0.2423
     20  C17       28.1700   -7.5360   57.9760 C.ar  301  ZY5301      0.0989
     21  C16       29.5370   -7.3990   58.3000 C.ar  301  ZY5301      0.0207
     22  C15       29.9110   -6.5710   59.3450 C.ar  301  ZY5301      0.0046
@<TRIPOS>BOND
     1    20    21   ar
     2    20    19   ar
     3    21    22   ar
     4    19    18   ar
     5    22    17   ar
     6    18    17   ar
     7    17    16    1
     8    15    16    2
     9    15    14    1
    10    16    11    1
    11    14    13    1
    12    11     1    2
    13    11    12    1
    14     1     2    1
    15    13    12    1
    16     4     5    1
    17     4     3    1
    18     2     3   ar
    19     2     7   ar
    20     3     6   ar
    21     7     8   ar
    22     6     9   ar
    23     8     9   ar
    24     9    10    1
