@<TRIPOS>MOLECULE
2wnb_CG3_A_1.pdb
 10 10 0 0 0
SMALL
GASTEIGER

@<TRIPOS>ATOM
      1  NBG       36.2360   26.4090   42.8480 N.pl3 1345  CG31345     0.0609
      2  OBH       36.1300   26.9080   41.5190 O.2   1345  CG31345    -0.1260
      3  OBI       35.7070   27.2210   43.8120 O.2   1345  CG31345    -0.1260
      4  CBB       37.0570   25.3810   43.1340 C.ar  1345  CG31345     0.1815
      5  CAW       37.0310   24.1870   42.3900 C.ar  1345  CG31345     0.2180
      6  CAX       37.8710   23.1030   42.6690 C.ar  1345  CG31345     0.0438
      7  CAY       38.8220   23.2710   43.7020 C.ar  1345  CG31345     0.0034
      8  CAZ       38.8060   24.4630   44.3930 C.ar  1345  CG31345     0.0019
      9  CBA       38.0210   25.5700   44.1500 C.ar  1345  CG31345     0.0274
     10  OAO       36.0470   24.0420   41.3970 O.3   1345  CG31345    -0.2848
@<TRIPOS>BOND
     1    10     5    1
     2     2     1    2
     3     5     6   ar
     4     5     4   ar
     5     6     7   ar
     6     1     4    1
     7     1     3    2
     8     4     9   ar
     9     7     8   ar
    10     9     8   ar
