@<TRIPOS>MOLECULE
2wnb_GAL_A_1.pdb
 11 11 0 0 0
SMALL
GASTEIGER

@<TRIPOS>ATOM
      1  C1        31.6130   24.1340   39.3170 C.3   1347  GAL1347     0.1777
      2  C2        30.9780   24.8020   38.0650 C.3   1347  GAL1347     0.2141
      3  C3        29.5470   25.2650   38.4230 C.3   1347  GAL1347     0.2173
      4  C4        28.7940   24.0470   38.9340 C.3   1347  GAL1347     0.2142
      5  C5        29.5080   23.5100   40.1660 C.3   1347  GAL1347     0.1810
      6  C6        28.7560   22.3040   40.7540 C.3   1347  GAL1347     0.2141
      7  O2        31.8420   25.9050   37.7520 O.3   1347  GAL1347    -0.2176
      8  O3        28.9140   25.7090   37.2190 O.3   1347  GAL1347    -0.2175
      9  O4        28.7970   23.0070   37.9570 O.3   1347  GAL1347    -0.2176
     10  O5        30.8590   23.0560   39.7460 O.3   1347  GAL1347    -0.3481
     11  O6        29.4790   21.9320   41.9960 O.3   1347  GAL1347    -0.2176
@<TRIPOS>BOND
     1     8     3    1
     2     7     2    1
     3     9     4    1
     4     2     3    1
     5     2     1    1
     6     3     4    1
     7     4     5    1
     8     1    10    1
     9    10     5    1
    10     5     6    1
    11     6    11    1
