@<TRIPOS>MOLECULE
2wnb_C5P_A_1.pdb
 21 22 0 0 0
SMALL
GASTEIGER

@<TRIPOS>ATOM
      1  O3P       25.7650   29.8790   37.5920 O.3   1344  C5P1344    -0.1145
      2  P         25.0690   31.3620   37.7590 P.3   1344  C5P1344     0.5327
      3  O1P       24.3820   31.6370   39.0720 O.3   1344  C5P1344    -0.1145
      4  O2P       26.1990   32.4490   37.3960 O.2   1344  C5P1344    -0.2224
      5  O5'       24.0090   31.4130   36.4830 O.3   1344  C5P1344    -0.2675
      6  C5'       23.0820   30.2720   36.4800 C.3   1344  C5P1344     0.1859
      7  C4'       22.5720   30.0450   35.0370 C.3   1344  C5P1344     0.1801
      8  O4'       22.0510   31.4090   34.5370 O.3   1344  C5P1344    -0.3320
      9  C3'       23.9430   29.6950   34.3250 C.3   1344  C5P1344     0.2158
     10  O3'       24.3640   28.2920   34.4860 O.3   1344  C5P1344    -0.2175
     11  C2'       23.5990   30.1510   32.8850 C.3   1344  C5P1344     0.2319
     12  O2'       23.0080   29.1390   32.0100 O.3   1344  C5P1344    -0.2157
     13  C1'       22.6260   31.3740   33.1310 C.3   1344  C5P1344     0.2400
     14  N1        23.3360   32.6800   32.7910 N.am  1344  C5P1344    -0.1778
     15  C2        23.3870   33.1350   31.4400 C.1   1344  C5P1344     0.2756
     16  N3        23.9980   34.3620   31.2540 N.2   1344  C5P1344    -0.3024
     17  C4        24.5630   35.0950   32.2490 C.2   1344  C5P1344     0.2346
     18  C5        24.5260   34.6570   33.5910 C.2   1344  C5P1344     0.0687
     19  C6        23.9010   33.4370   33.8730 C.2   1344  C5P1344     0.0836
     20  O2        22.9120   32.4210   30.5060 O.2   1344  C5P1344    -0.1925
     21  N4        25.1730   36.2670   32.0410 N.pl3 1344  C5P1344    -0.0921
@<TRIPOS>BOND
     1    20    15    2
     2    16    15    2
     3    16    17    2
     4    15    14   am
     5    12    11    1
     6    21    17    1
     7    17    18    1
     8    14    13    1
     9    14    19    1
    10    11    13    1
    11    11     9    1
    12    13     8    1
    13    18    19    2
    14     9    10    1
    15     9     7    1
    16     8     7    1
    17     7     6    1
    18     6     5    1
    19     5     2    1
    20     4     2    2
    21     1     2    1
    22     2     3    1
