@<TRIPOS>MOLECULE
2wnc_TKT_A_1.pdb
 21 24 0 0 0
SMALL
GASTEIGER

@<TRIPOS>ATOM
      1  C12      -72.2180  -51.6000  -72.9270 C.2   300  TKT300      0.0958
      2  O4       -73.1540  -50.7690  -75.0260 O.2   300  TKT300     -0.2448
      3  C8       -70.6700  -44.5530  -73.8420 C.3   300  TKT300      0.0896
      4  C9       -72.6550  -50.5780  -73.9230 C.2   300  TKT300      0.3427
      5  C11      -71.5630  -51.4310  -71.7280 C.2   300  TKT300      0.1053
      6  O3       -72.4460  -49.2390  -73.4180 O.3   300  TKT300     -0.4491
      7  C7       -69.9780  -47.7650  -73.3350 C.3   300  TKT300      0.0175
      8  C6       -70.8180  -47.3390  -72.1030 C.3   300  TKT300      0.0175
      9  N1       -71.1260  -45.9070  -73.7410 N.3   300  TKT300     -0.2738
     10  C5       -71.9140  -46.3630  -72.6140 C.3   300  TKT300      0.0611
     11  C4       -73.1770  -47.0530  -73.1350 C.3   300  TKT300      0.0596
     12  C1       -70.5930  -47.0150  -74.5390 C.3   300  TKT300      0.0611
     13  C2       -71.7370  -47.7920  -75.1820 C.3   300  TKT300      0.0596
     14  C3       -72.8620  -48.1360  -74.1820 C.3   300  TKT300      0.1718
     15  C13      -72.5080  -55.8510  -72.7620 C.2   300  TKT300     -0.0199
     16  C15      -71.8770  -53.6680  -71.9070 C.2   300  TKT300      0.0809
     17  C16      -72.4530  -53.0640  -73.1150 C.2   300  TKT300      0.0215
     18  C17      -73.0200  -53.8480  -74.0950 C.2   300  TKT300     -0.0197
     19  C18      -73.0560  -55.2470  -73.9010 C.3   300  TKT300      0.0521
     20  N10      -71.3830  -52.6580  -71.1420 N.2   300  TKT300     -0.2436
     21  C21      -71.9120  -55.0570  -71.7660 C.2   300  TKT300      0.0149
@<TRIPOS>BOND
     1    13    12    1
     2    13    14    1
     3     2     4    2
     4    12     9    1
     5    12     7    1
     6    14     6    1
     7    14    11    1
     8    18    19    1
     9    18    17    2
    10     4     6    1
    11     4     1    1
    12    19    15    1
    13     3     9    1
    14     9    10    1
    15     7     8    1
    16    11    10    1
    17    17     1    1
    18    17    16    1
    19     1     5    2
    20    15    21    2
    21    10     8    1
    22    16    21    1
    23    16    20    2
    24     5    20    1
