@<TRIPOS>MOLECULE
2wne_BGC_A_1.pdb
 11 11 0 0 0
SMALL
GASTEIGER

@<TRIPOS>ATOM
      1  C2         8.5280   17.2220   50.5540 C.3   402  BGC402      0.2141
      2  C3        10.0540   17.2420   50.3760 C.3   402  BGC402      0.2173
      3  C4        10.6630   18.6260   50.6170 C.3   402  BGC402      0.2142
      4  C5        10.1160   19.2440   51.9150 C.3   402  BGC402      0.1810
      5  C6        10.6490   20.6550   52.2100 C.3   402  BGC402      0.2141
      6  C1         8.1090   17.9270   51.8360 C.3   402  BGC402      0.1777
      7  O2         8.0010   15.9100   50.5140 O.3   402  BGC402     -0.2176
      8  O3        10.3610   16.9200   49.0460 O.3   402  BGC402     -0.2175
      9  O4        12.0680   18.4800   50.6310 O.3   402  BGC402     -0.2176
     10  O5         8.6880   19.2280   51.8780 O.3   402  BGC402     -0.3481
     11  O6        10.2340   21.6150   51.2570 O.3   402  BGC402     -0.2176
@<TRIPOS>BOND
     1     8     2    1
     2     2     1    1
     3     2     3    1
     4     7     1    1
     5     1     6    1
     6     3     9    1
     7     3     4    1
     8    11     5    1
     9     6    10    1
    10    10     4    1
    11     4     5    1
