@<TRIPOS>MOLECULE
2wne_MAN_A_1.pdb
 11 11 0 0 0
SMALL
GASTEIGER

@<TRIPOS>ATOM
      1  C1       -10.6100   44.7380   57.4590 C.3   1305  MAN1305     0.1777
      2  C2        -9.2390   44.0630   57.5980 C.3   1305  MAN1305     0.2141
      3  C3        -8.5740   44.4910   58.9040 C.3   1305  MAN1305     0.2173
      4  C4        -8.5370   46.0240   59.0550 C.3   1305  MAN1305     0.2142
      5  C5        -9.9070   46.6620   58.7260 C.3   1305  MAN1305     0.1810
      6  C6        -9.8250   48.1910   58.6730 C.3   1305  MAN1305     0.2141
      7  O2        -8.4090   44.4460   56.5100 O.3   1305  MAN1305    -0.2176
      8  O3        -7.2790   43.9490   58.9300 O.3   1305  MAN1305    -0.2175
      9  O4        -8.1340   46.3630   60.3730 O.3   1305  MAN1305    -0.2176
     10  O5       -10.4760   46.1610   57.5090 O.3   1305  MAN1305    -0.3481
     11  O6       -11.0920   48.7340   58.3530 O.3   1305  MAN1305    -0.2176
@<TRIPOS>BOND
     1     7     2    1
     2     1    10    1
     3     1     2    1
     4    10     5    1
     5     2     3    1
     6    11     6    1
     7     6     5    1
     8     5     4    1
     9     3     8    1
    10     3     4    1
    11     4     9    1
