@<TRIPOS>MOLECULE
2wne_GLC_A_1.pdb
 12 12 0 0 0
SMALL
GASTEIGER

@<TRIPOS>ATOM
      1  C1         4.6820   17.6970   54.9160 C.3   401  GLC401      0.3024
      2  C2         5.8490   17.3240   53.9720 C.3   401  GLC401      0.2434
      3  C3         6.1160   18.4620   52.9810 C.3   401  GLC401      0.2199
      4  C4         4.8320   19.2220   52.6230 C.3   401  GLC401      0.2144
      5  C5         4.2980   19.9120   53.8830 C.3   401  GLC401      0.1836
      6  C6         3.0130   20.7200   53.7010 C.3   401  GLC401      0.2142
      7  O1         4.9110   17.1690   56.2010 O.3   401  GLC401     -0.1869
      8  O2         7.0210   16.8760   54.6370 O.3   401  GLC401     -0.2148
      9  O3         6.6670   17.9180   51.8180 O.3   401  GLC401     -0.2174
     10  O4         5.1330   20.2280   51.6760 O.3   401  GLC401     -0.2176
     11  O5         4.1720   19.0360   54.9900 O.3   401  GLC401     -0.3236
     12  O6         1.9100   19.8590   53.4110 O.3   401  GLC401     -0.2176
@<TRIPOS>BOND
     1    10     4    1
     2     9     3    1
     3     4     3    1
     4     4     5    1
     5     3     2    1
     6    12     6    1
     7     6     5    1
     8     5    11    1
     9     2     8    1
    10     2     1    1
    11     1    11    1
    12     1     7    1
