@<TRIPOS>MOLECULE
2wnf_GAL_A_1.pdb
 11 11 0 0 0
SMALL
GASTEIGER

@<TRIPOS>ATOM
      1  C1        31.7710   24.2910   39.5200 C.3   1346  GAL1346     0.1777
      2  C2        31.1380   24.9110   38.3270 C.3   1346  GAL1346     0.2141
      3  C3        29.7400   25.4160   38.6160 C.3   1346  GAL1346     0.2173
      4  C4        28.9120   24.2090   39.1360 C.3   1346  GAL1346     0.2142
      5  C5        29.6090   23.6500   40.3630 C.3   1346  GAL1346     0.1810
      6  C6        28.8960   22.4770   40.9720 C.3   1346  GAL1346     0.2141
      7  O2        31.9850   26.0680   37.9730 O.3   1346  GAL1346    -0.2176
      8  O3        29.1240   25.9660   37.4200 O.3   1346  GAL1346    -0.2175
      9  O4        28.8630   23.1690   38.1020 O.3   1346  GAL1346    -0.2176
     10  O5        30.9640   23.1940   39.9420 O.3   1346  GAL1346    -0.3481
     11  O6        29.6150   22.0790   42.1880 O.3   1346  GAL1346    -0.2176
@<TRIPOS>BOND
     1     8     3    1
     2     7     2    1
     3     9     4    1
     4     2     3    1
     5     2     1    1
     6     3     4    1
     7     4     5    1
     8     1    10    1
     9    10     5    1
    10     5     6    1
    11     6    11    1
