@<TRIPOS>MOLECULE
2wnf_CG3_A_1.pdb
 10 10 0 0 0
SMALL
GASTEIGER

@<TRIPOS>ATOM
      1  NBG       36.3710   26.5050   43.0250 N.pl3 1344  CG31344     0.0609
      2  OBH       36.3340   26.9280   41.6690 O.2   1344  CG31344    -0.1260
      3  OBI       35.8870   27.4750   43.9390 O.2   1344  CG31344    -0.1260
      4  CBB       37.1980   25.4940   43.3300 C.ar  1344  CG31344     0.1815
      5  CAW       37.2240   24.2920   42.6370 C.ar  1344  CG31344     0.2180
      6  CAX       38.0740   23.2460   42.8960 C.ar  1344  CG31344     0.0438
      7  CAY       39.0260   23.4600   43.9660 C.ar  1344  CG31344     0.0034
      8  CAZ       38.9700   24.6640   44.6010 C.ar  1344  CG31344     0.0019
      9  CBA       38.1510   25.7270   44.3600 C.ar  1344  CG31344     0.0274
     10  OAO       36.2390   24.1490   41.6310 O.3   1344  CG31344    -0.2848
@<TRIPOS>BOND
     1    10     5    1
     2     2     1    2
     3     5     6   ar
     4     5     4   ar
     5     6     7   ar
     6     1     4    1
     7     1     3    2
     8     4     9   ar
     9     7     8   ar
    10     9     8   ar
