@<TRIPOS>MOLECULE
2wnj_ZY7_A_1.pdb
 23 25 0 0 0
SMALL
GASTEIGER

@<TRIPOS>ATOM
      1  C7        30.3020   -6.7100   62.7110 C.2   301  ZY7301      0.0002
      2  C4        31.0570   -7.2610   63.8820 C.ar  301  ZY7301      0.0339
      3  C3        30.6470   -8.5950   64.3840 C.ar  301  ZY7301      0.1417
      4  O21       29.6210   -9.2440   63.7410 O.3   301  ZY7301     -0.4713
      5  C22       29.1900  -10.5610   64.1110 C.3   301  ZY7301      0.2525
      6  C2        31.3190   -9.1360   65.4880 C.ar  301  ZY7301      0.0737
      7  C5        32.1050   -6.6110   64.5400 C.ar  301  ZY7301      0.0061
      8  C6        32.7410   -7.1750   65.6360 C.ar  301  ZY7301      0.0371
      9  C1        32.3540   -8.4320   66.1050 C.ar  301  ZY7301      0.1418
     10  O20       32.9820   -8.9720   67.1950 O.3   301  ZY7301     -0.4713
     11  C8        30.2700   -5.4240   62.2900 C.2   301  ZY7301     -0.0048
     12  C13       31.0430   -4.2860   62.8960 C.3   301  ZY7301      0.0299
     13  C12       30.0170   -3.1790   63.1270 C.3   301  ZY7301      0.0310
     14  C11       29.5340   -2.6710   61.7770 C.3   301  ZY7301      0.1258
     15  N10       29.0690   -3.8500   61.0520 N.2   301  ZY7301     -0.2707
     16  C9        29.4280   -5.0570   61.1470 C.2   301  ZY7301      0.0735
     17  C14       28.9980   -5.9840   60.0430 C.ar  301  ZY7301      0.0361
     18  C19       27.6530   -6.1190   59.7620 C.ar  301  ZY7301      0.1003
     19  N18       27.1810   -6.8870   58.7760 N.ar  301  ZY7301     -0.2423
     20  C17       28.0280   -7.5600   57.9960 C.ar  301  ZY7301      0.0989
     21  C16       29.4040   -7.4490   58.2090 C.ar  301  ZY7301      0.0207
     22  C15       29.8940   -6.6550   59.2400 C.ar  301  ZY7301      0.0046
     23  C23       33.5530   -8.1350   68.2020 C.3   301  ZY7301      0.2525
@<TRIPOS>BOND
     1    20    21   ar
     2    20    19   ar
     3    21    22   ar
     4    19    18   ar
     5    22    17   ar
     6    18    17   ar
     7    17    16    1
     8    15    16    2
     9    15    14    1
    10    16    11    1
    11    14    13    1
    12    11     1    2
    13    11    12    1
    14     1     2    1
    15    12    13    1
    16     4     5    1
    17     4     3    1
    18     2     3   ar
    19     2     7   ar
    20     3     6   ar
    21     7     8   ar
    22     6     9   ar
    23     8     9   ar
    24     9    10    1
    25    10    23    1
