@<TRIPOS>MOLECULE
2wnl_AN4_A_1.pdb
 12 13 0 0 0
SMALL
GASTEIGER

@<TRIPOS>ATOM
      1  N1        22.6420   -4.7530   74.7300 N.2   300  AN4300     -0.2747
      2  C5        21.6930   -3.7480   75.2130 C.3   300  AN4300      0.1251
      3  C4        21.5680   -2.6310   74.1770 C.3   300  AN4300      0.0267
      4  C3        21.9340   -3.1320   72.7930 C.3   300  AN4300      0.0083
      5  C2        23.3830   -3.5810   72.8260 C.3   300  AN4300      0.0455
      6  C1        23.5810   -4.6210   73.8980 C.2   300  AN4300      0.0551
      7  N2        27.1780   -5.5470   74.4610 N.ar  300  AN4300     -0.2423
      8  C7        24.8790   -6.7660   73.5530 C.ar  300  AN4300      0.0043
      9  C8        26.0810   -7.4640   73.6230 C.ar  300  AN4300      0.0207
     10  C9        27.2270   -6.8260   74.0860 C.ar  300  AN4300      0.0989
     11  C10       26.0300   -4.8620   74.4030 C.ar  300  AN4300      0.1000
     12  C70       24.8490   -5.4390   73.9550 C.ar  300  AN4300      0.0323
@<TRIPOS>BOND
     1     4     5    1
     2     4     3    1
     3     5     6    1
     4     8     9   ar
     5     8    12   ar
     6     9    10   ar
     7     6    12    1
     8     6     1    2
     9    12    11   ar
    10    10     7   ar
    11     3     2    1
    12    11     7   ar
    13     1     2    1
