@<TRIPOS>MOLECULE
2wnl_AN5_A_1.pdb
 13 13 0 0 0
SMALL
GASTEIGER

@<TRIPOS>ATOM
      1  C11       24.9920   -6.7980   73.6990 C.ar  301  AN5301      0.0060
      2  C12       26.1910   -7.5000   73.8220 C.ar  301  AN5301      0.0208
      3  C13       27.3860   -6.8110   74.0120 C.ar  301  AN5301      0.0989
      4  N11       27.3880   -5.4780   74.0730 N.ar  301  AN5301     -0.2422
      5  C14       26.2440   -4.7920   73.9600 C.ar  301  AN5301      0.1017
      6  C15       25.0140   -5.4130   73.7800 C.ar  301  AN5301      0.0538
      7  C16       23.7590   -4.5820   73.6430 C.2   301  AN5301      0.1745
      8  C17       22.8390   -4.2810   74.8110 C.3   301  AN5301      0.0693
      9  C18       21.7640   -3.2660   74.4060 C.3   301  AN5301      0.0096
     10  O11       23.4800   -4.1340   72.5460 O.2   301  AN5301     -0.2913
     11  C10       19.4580   -2.3810   74.7750 C.3   301  AN5301      0.1093
     12  N12       18.2070   -2.5870   75.4770 N.3   301  AN5301     -0.1314
     13  C1        20.4980   -3.3930   75.2450 C.3   301  AN5301      0.0210
@<TRIPOS>BOND
     1    10     7    2
     2     7     6    1
     3     7     8    1
     4     1     6   ar
     5     1     2   ar
     6     6     5   ar
     7     2     3   ar
     8     5     4   ar
     9     3     4   ar
    10     9     8    1
    11     9    13    1
    12    11    13    1
    13    11    12    1
