@<TRIPOS>MOLECULE
2wns_OMP_A_1.pdb
 24 25 0 0 0
SMALL
GASTEIGER

@<TRIPOS>ATOM
      1  P         29.8770   22.3220   25.2910 P.3   450  OMP450      0.5327
      2  O1P       31.3790   22.2850   25.4900 O.3   450  OMP450     -0.1145
      3  O2P       29.1700   23.3620   26.0870 O.3   450  OMP450     -0.1145
      4  O3P       29.4900   22.3340   23.8020 O.2   450  OMP450     -0.2224
      5  O5'       29.3430   20.8900   25.7310 O.3   450  OMP450     -0.2675
      6  C5'       29.7730   20.3420   26.9380 C.3   450  OMP450      0.1859
      7  C4'       28.6720   19.9080   27.8850 C.3   450  OMP450      0.1801
      8  O4'       27.7830   18.8800   27.4180 O.3   450  OMP450     -0.3319
      9  C3'       29.4500   19.2990   29.0140 C.3   450  OMP450      0.2158
     10  O3'       29.4490   20.1180   30.1790 O.3   450  OMP450     -0.2175
     11  C2'       28.8130   17.9930   29.2790 C.3   450  OMP450      0.2319
     12  O2'       28.1810   18.1350   30.5120 O.3   450  OMP450     -0.2157
     13  C1'       27.8360   17.6630   28.1380 C.3   450  OMP450      0.2402
     14  N1        28.4630   16.5800   27.3880 N.am  450  OMP450     -0.1714
     15  C2        28.9510   15.5790   28.1080 C.1   450  OMP450      0.2847
     16  O2        28.8230   15.6130   29.3610 O.2   450  OMP450     -0.1918
     17  N3        29.5990   14.5490   27.5490 N.2   450  OMP450     -0.2452
     18  C4        29.7800   14.5070   26.2080 C.1   450  OMP450      0.2184
     19  O4        30.4440   13.4640   25.6980 O.2   450  OMP450     -0.2085
     20  C5        29.2980   15.5000   25.3970 C.2   450  OMP450      0.1296
     21  C6        28.6390   16.5640   25.9720 C.2   450  OMP450      0.1573
     22  C7        28.0100   17.5660   25.0810 C.2   450  OMP450      0.4026
     23  O71       26.7550   17.6070   25.2980 O.co2 450  OMP450     -0.2391
     24  O72       28.5720   18.1820   24.1230 O.co2 450  OMP450     -0.2391
@<TRIPOS>BOND
     1     4     1    2
     2    24    22   ar
     3    22    23   ar
     4    22    21    1
     5     1     2    1
     6     1     5    1
     7     1     3    1
     8    20    21    2
     9    20    18    1
    10    19    18    2
    11     5     6    1
    12    21    14    1
    13    18    17    2
    14     6     7    1
    15    14    15   am
    16    14    13    1
    17     8     7    1
    18     8    13    1
    19    17    15    2
    20     7     9    1
    21    15    16    2
    22    13    11    1
    23     9    11    1
    24     9    10    1
    25    11    12    1
