@<TRIPOS>MOLECULE
2wnu_SGN_F_1.pdb
 20 20 0 0 0
SMALL
GASTEIGER

@<TRIPOS>ATOM
      1  C1        24.7550   -9.6140   -6.2600 C.3   1219  SGN1219     0.2895
      2  C2        25.2210  -10.6210   -5.1990 C.3   1219  SGN1219     0.1858
      3  C3        24.1560  -11.6780   -4.8780 C.3   1219  SGN1219     0.2073
      4  C4        22.7380  -11.1040   -4.7590 C.3   1219  SGN1219     0.2133
      5  C5        22.4370  -10.0440   -5.8230 C.3   1219  SGN1219     0.1826
      6  C6        21.1250   -9.3400   -5.4950 C.3   1219  SGN1219     0.2046
      7  N         26.4550  -11.2630   -5.6210 N.3   1219  SGN1219    -0.1129
      8  O1        24.7020  -10.2050   -7.5440 O.3   1219  SGN1219    -0.1882
      9  O3        24.4940  -12.3410   -3.6770 O.3   1219  SGN1219    -0.2186
     10  O4        21.7970  -12.1550   -4.8720 O.3   1219  SGN1219    -0.2176
     11  O5        23.4850   -9.0890   -5.9090 O.3   1219  SGN1219    -0.3245
     12  O6        21.3740   -8.0040   -5.1090 O.3   1219  SGN1219    -0.2384
     13  S1        27.8650  -10.8510   -4.9780 S.3   1219  SGN1219    -0.1288
     14  O1S       28.8980  -11.4330   -5.8310 O.3   1219  SGN1219    -0.2918
     15  O2S       27.8900  -11.4090   -3.6260 O.3   1219  SGN1219    -0.2918
     16  O3S       27.9380   -9.3890   -4.9640 O.3   1219  SGN1219    -0.2918
     17  S2        20.3530   -7.2490   -4.2020 S.3   1219  SGN1219    -0.0001
     18  O4S       20.3480   -7.8860   -2.8880 O.3   1219  SGN1219    -0.2682
     19  O5S       19.0500   -7.3770   -4.8440 O.2   1219  SGN1219    -0.3452
     20  O6S       20.8110   -5.8670   -4.1270 O.2   1219  SGN1219    -0.3452
@<TRIPOS>BOND
     1     8     1    1
     2     1    11    1
     3     1     2    1
     4    11     5    1
     5    14    13    1
     6     5     6    1
     7     5     4    1
     8     7     2    1
     9     7    13    1
    10     6    12    1
    11     2     3    1
    12    12    17    1
    13    13    16    1
    14    13    15    1
    15     3     4    1
    16     3     9    1
    17    10     4    1
    18    19    17    2
    19    17    20    2
    20    17    18    1
