@<TRIPOS>MOLECULE
2wnu_IDU_F_1.pdb
 15 15 0 0 0
SMALL
GASTEIGER

@<TRIPOS>ATOM
      1  C1        21.4040  -12.5690   -3.5480 C.3   1218  IDU1218     0.1772
      2  C2        19.8930  -12.8390   -3.5030 C.3   1218  IDU1218     0.2028
      3  C3        19.4850  -14.3040   -3.7200 C.3   1218  IDU1218     0.1868
      4  C4        20.4950  -15.3190   -3.1780 C.3   1218  IDU1218     0.0768
      5  C5        21.9330  -14.9290   -3.5180 C.3   1218  IDU1218     0.2204
      6  C6        22.8880  -15.9150   -2.9100 C.2   1218  IDU1218     0.3914
      7  O2        19.3910  -12.3880   -2.2470 O.3   1218  IDU1218    -0.2385
      8  O3        19.2680  -14.5430   -5.1160 O.3   1218  IDU1218    -0.2203
      9  O5        22.2060  -13.6270   -2.9970 O.3   1218  IDU1218    -0.3422
     10  O61       23.3960  -16.7880   -3.6630 O.co2 1218  IDU1218    -0.2430
     11  O62       23.1440  -15.8280   -1.6740 O.co2 1218  IDU1218    -0.2430
     12  S         18.3990  -11.0900   -2.1710 S.3   1218  IDU1218    -0.0001
     13  O1S       18.6170  -10.3680   -0.8960 O.3   1218  IDU1218    -0.2682
     14  O2S       16.9980  -11.5590   -2.2530 O.2   1218  IDU1218    -0.3452
     15  O3S       18.6770  -10.1700   -3.2950 O.2   1218  IDU1218    -0.3452
@<TRIPOS>BOND
     1     8     3    1
     2     3     2    1
     3     3     4    1
     4    10     6   ar
     5     1     2    1
     6     1     9    1
     7     5     4    1
     8     5     9    1
     9     5     6    1
    10     2     7    1
    11    15    12    2
    12     6    11   ar
    13    14    12    2
    14     7    12    1
    15    12    13    1
