@<TRIPOS>MOLECULE
2wnv_NAG_D_1.pdb
 15 15 0 0 0
SMALL
GASTEIGER

@<TRIPOS>ATOM
      1  C1        22.0790  -14.1000  -34.1960 C.3   1224  NAG1224     0.2917
      2  C2        23.2760  -15.0410  -34.0400 C.3   1224  NAG1224     0.1871
      3  C3        24.5500  -14.2510  -33.7440 C.3   1224  NAG1224     0.2095
      4  C4        24.7330  -13.1090  -34.7450 C.3   1224  NAG1224     0.2136
      5  C5        23.4590  -12.2570  -34.8500 C.3   1224  NAG1224     0.1835
      6  C6        23.6080  -11.1660  -35.9130 C.3   1224  NAG1224     0.2142
      7  C7        22.5700  -17.2530  -33.2860 C.2   1224  NAG1224     0.2421
      8  C8        23.5230  -18.3940  -33.0830 C.3   1224  NAG1224     0.0964
      9  N2        23.0300  -16.0320  -33.0060 N.am  1224  NAG1224    -0.1991
     10  O1        20.9460  -14.8370  -34.5980 O.3   1224  NAG1224    -0.1879
     11  O3        25.6660  -15.1120  -33.7970 O.3   1224  NAG1224    -0.2183
     12  O4        25.8360  -12.3220  -34.3490 O.3   1224  NAG1224    -0.2176
     13  O5        22.3600  -13.1000  -35.1650 O.3   1224  NAG1224    -0.3242
     14  O6        22.7090  -11.3730  -36.9810 O.3   1224  NAG1224    -0.2176
     15  O7        21.4240  -17.4650  -33.6880 O.2   1224  NAG1224    -0.2733
@<TRIPOS>BOND
     1    14     6    1
     2     6     5    1
     3    13     5    1
     4    13     1    1
     5     5     4    1
     6     4    12    1
     7     4     3    1
     8    10     1    1
     9     1     2    1
    10     2     3    1
    11     2     9    1
    12    11     3    1
    13    15     7    2
    14     7     8    1
    15     7     9   am
