@<TRIPOS>MOLECULE
2wo6_D15_A_1.pdb
 32 35 0 0 0
SMALL
GASTEIGER

@<TRIPOS>ATOM
      1  CAO      -88.9510   27.1850    3.0130 C.ar  600  D15600      0.0076
      2  CAY      -90.0570   27.5960    3.7590 C.ar  600  D15600      0.0574
      3 CL1       -90.1840   27.2100    5.5060 Cl    600  D15600     -0.0823
      4  CAI      -91.0750   28.2990    3.1790 C.ar  600  D15600      0.0114
      5  CAH      -91.0040   28.5950    1.8320 C.ar  600  D15600      0.0006
      6  CAL      -89.9220   28.2070    1.0680 C.ar  600  D15600     -0.0038
      7  CBB      -88.8730   27.5170    1.6620 C.ar  600  D15600     -0.0129
      8  CBF      -87.7170   27.1070    0.8140 C.3   600  D15600      0.1023
      9  CAR      -87.5940   25.5960    0.8570 C.3   600  D15600      0.0340
     10  CAQ      -88.7920   24.9640    0.1670 C.3   600  D15600      0.1101
     11  NAA      -88.6610   23.5440    0.3210 N.3   600  D15600     -0.1314
     12  CAX      -86.4180   27.8050    1.1960 C.2   600  D15600      0.2492
     13  OAC      -85.5800   27.2850    1.9720 O.2   600  D15600     -0.2726
     14  NAT      -86.3520   28.9910    0.5540 N.am  600  D15600     -0.1792
     15  CAZ      -85.4100   30.0300    0.5410 C.2   600  D15600      0.0701
     16  CAP      -85.6750   31.1550   -0.2580 C.2   600  D15600      0.0085
     17  CBE      -84.7720   32.2130   -0.3000 C.3   600  D15600      0.1793
     18  CAM      -84.2620   30.0000    1.3010 C.2   600  D15600      0.0176
     19  CAN      -83.3580   31.0350    1.2310 C.2   600  D15600      0.0208
     20  CBD      -83.6020   32.1490    0.4340 C.2   600  D15600      0.1210
     21  NAV      -82.8760   33.2810    0.2210 N.2   600  D15600     -0.0379
     22  NAS      -83.5850   34.0920   -0.6910 N.2   600  D15600      0.0800
     23  CBC      -84.7100   33.4440   -0.9770 C.2   600  D15600      0.3812
     24  NAU      -85.5780   33.9890   -1.8940 N.am  600  D15600      0.0349
     25  CAW      -86.9210   33.8760   -1.9050 C.2   600  D15600      0.3753
     26  OAB      -87.5790   33.2650   -1.0520 O.2   600  D15600     -0.2377
     27  CBA      -87.6850   34.5340   -3.0210 C.ar  600  D15600      0.0820
     28  CAJ      -87.0310   35.0470   -4.1370 C.ar  600  D15600      0.0070
     29  CAF      -87.7540   35.6470   -5.1860 C.ar  600  D15600      0.0002
     30  CAE      -89.1540   35.7090   -5.1210 C.ar  600  D15600      0.0000
     31  CAG      -89.8160   35.1840   -4.0170 C.ar  600  D15600      0.0002
     32  CAK      -89.0840   34.6050   -2.9690 C.ar  600  D15600      0.0070
@<TRIPOS>BOND
     1    29    30   ar
     2    29    28   ar
     3    30    31   ar
     4    28    27   ar
     5    31    32   ar
     6    27    32   ar
     7    27    25    1
     8    25    24   am
     9    25    26    2
    10    24    23    1
    11    23    22    2
    12    23    17    1
    13    22    21    1
    14    17    16    1
    15    17    20    1
    16    16    15    2
    17    10    11    1
    18    10     9    1
    19    21    20    2
    20    20    19    1
    21    15    14    1
    22    15    18    1
    23    14    12   am
    24     8     9    1
    25     8    12    1
    26     8     7    1
    27     6     7   ar
    28     6     5   ar
    29    12    13    2
    30    19    18    2
    31     7     1   ar
    32     5     4   ar
    33     1     2   ar
    34     4     2   ar
    35     2     3    1
