@<TRIPOS>MOLECULE
2wo7_ASV_A_1.pdb
 23 22 0 0 0
SMALL
GASTEIGER

@<TRIPOS>ATOM
      1  C1         6.0610    3.8680    8.5380 C.2   1333  ASV1333     0.3819
      2  C2         6.9260    2.6790    8.9770 C.3   1333  ASV1333     0.1943
      3  C3         6.2810    1.4180    8.3380 C.3   1333  ASV1333     0.0311
      4  C4         6.8990    0.0750    8.7870 C.3   1333  ASV1333     0.0117
      5  C7         6.2410   -1.1940    8.1310 C.3   1333  ASV1333     0.0869
      6  C10        6.9220   -2.5200    8.7000 C.2   1333  ASV1333     0.2418
      7  N11        7.4080   -3.3870    7.7760 N.am  1333  ASV1333    -0.1968
      8  C12        8.1160   -4.6750    8.0620 C.3   1333  ASV1333     0.1843
      9  C13        9.6290   -4.3650    8.1760 C.2   1333  ASV1333     0.2626
     10  N14        6.9400    2.6640   10.4510 N.3   1333  ASV1333    -0.1208
     11  O15        6.9940   -2.7380    9.9210 O.2   1333  ASV1333    -0.2733
     12  C16        7.9950   -5.5370    6.8340 C.3   1333  ASV1333     0.0997
     13  S17        8.5480   -4.5720    5.3720 S.3   1333  ASV1333    -0.0797
     14  O18        9.9550   -3.3230    8.7790 O.2   1333  ASV1333    -0.2714
     15  O19        6.1120    4.1640    7.3150 O.co2 1333  ASV1333    -0.2441
     16  O20        5.3340    4.4060    9.4000 O.co2 1333  ASV1333    -0.2441
     17  N29       10.4820   -5.2440    7.5290 N.am  1333  ASV1333    -0.1941
     18  C30       11.9910   -5.1020    7.4430 C.3   1333  ASV1333     0.1978
     19  C31       12.7730   -6.2540    8.1380 C.2   1333  ASV1333     0.3842
     20  C32       12.5590   -5.0280    5.9820 C.3   1333  ASV1333     0.0333
     21  C33       11.7310   -4.1040    5.0170 C.3   1333  ASV1333     0.0024
     22  O42       12.1720   -6.9070    9.0280 O.co2 1333  ASV1333    -0.2437
     23  O43       13.9820   -6.4070    7.7900 O.co2 1333  ASV1333    -0.2437
@<TRIPOS>BOND
     1    21    20    1
     2    13    12    1
     3    20    18    1
     4    12     8    1
     5    15     1   ar
     6    18    17    1
     7    18    19    1
     8    17     9   am
     9     7     8    1
    10     7     6   am
    11    23    19   ar
    12     8     9    1
    13     5     6    1
    14     5     4    1
    15    19    22   ar
    16     9    14    2
    17     3     4    1
    18     3     2    1
    19     1     2    1
    20     1    16   ar
    21     6    11    2
    22     2    10    1
