@<TRIPOS>MOLECULE
2wo8_077_A_1.pdb
 20 21 0 0 0
SMALL
GASTEIGER

@<TRIPOS>ATOM
      1  C1        20.8540   29.2500   -7.3270 C.ar  1271  0771271     0.0000
      2  C2        21.3130   26.9900   -5.8850 C.ar  1271  0771271    -0.0000
      3  C3        20.2380   29.0830   -6.0590 C.ar  1271  0771271    -0.0000
      4  C4        21.6950   28.3050   -7.8850 C.ar  1271  0771271     0.0000
      5  C5        21.9220   27.1490   -7.1350 C.ar  1271  0771271     0.0000
      6  C6        20.4660   27.9400   -5.3170 C.ar  1271  0771271    -0.0000
      7  C8        19.8640   27.6550   -3.9670 C.ar  1271  0771271    -0.0000
      8  O1        16.0330   25.7210    1.8460 O.3   1271  0771271    -0.2225
      9  C10       18.6710   28.2090   -3.5320 C.ar  1271  0771271    -0.0003
     10  C11       19.9390   26.2760   -1.9720 C.ar  1271  0771271    -0.0043
     11  C12       17.1720   27.2930    0.5070 C.3   1271  0771271     0.0381
     12  C20       17.0100   26.8000    1.9620 C.3   1271  0771271     0.1636
     13  C13       18.7350   26.8730   -1.5190 C.ar  1271  0771271    -0.0221
     14  C14       20.4670   26.6610   -3.1780 C.ar  1271  0771271    -0.0003
     15  C60       18.1110   27.8430   -2.3210 C.ar  1271  0771271    -0.0043
     16  C16       18.2120   26.4260   -0.2140 C.3   1271  0771271     0.0290
     17  C17       16.6270   27.8710    2.9930 C.3   1271  0771271     0.1468
     18  C18       16.9080   29.2950    2.5520 C.2   1271  0771271     0.3674
     19  O3        16.1250   29.8660    1.7990 O.co2 1271  0771271    -0.2456
     20  O4        17.9110   29.8510    2.9770 O.co2 1271  0771271    -0.2456
@<TRIPOS>BOND
     1     4     1   ar
     2     4     5   ar
     3     1     3   ar
     4     5     2   ar
     5     3     6   ar
     6     2     6   ar
     7     6     7    1
     8     7     9   ar
     9     7    14   ar
    10     9    15   ar
    11    14    10   ar
    12    15    13   ar
    13    10    13   ar
    14    13    16    1
    15    16    11    1
    16    11    12    1
    17    19    18   ar
    18     8    12    1
    19    12    17    1
    20    18    20   ar
    21    18    17    1
