@<TRIPOS>MOLECULE
2wo8_023_B_1.pdb
 28 28 0 0 0
SMALL
GASTEIGER

@<TRIPOS>ATOM
      1  C25       11.0120   -7.9110   -6.5070 C.3   1268  0231268     0.1386
      2  N18       10.4510   -8.7290   -5.4490 N.am  1268  0231268    -0.2021
      3  C14        9.2410   -9.2510   -5.6700 C.2   1268  0231268     0.2613
      4  O19        8.6270   -9.0440   -6.6970 O.2   1268  0231268    -0.2715
      5  C10        8.7420  -10.1410   -4.5060 C.3   1268  0231268     0.1726
      6  C15        8.9600  -11.6600   -4.7640 C.3   1268  0231268     0.0270
      7  C22       10.4790  -11.9490   -4.8880 C.3   1268  0231268     0.0022
      8  C21        8.2800  -12.1510   -6.0230 C.3   1268  0231268     0.0022
      9  C20        8.3860  -12.4540   -3.5680 C.3   1268  0231268     0.0022
     10  N5         7.3750   -9.8740   -4.1440 N.am  1268  0231268    -0.1977
     11  C2         6.9880   -9.1240   -3.1040 C.2   1268  0231268     0.2429
     12  O6         7.7400   -8.5580   -2.3320 O.2   1268  0231268    -0.2733
     13  C1         5.4620   -8.9950   -2.9070 C.3   1268  0231268     0.0968
     14  C3         5.2190   -9.3110   -1.4050 C.3   1268  0231268     0.0881
     15  C8         5.6420  -10.7570   -1.1170 C.3   1268  0231268     0.0225
     16  N7         3.8030   -9.1820   -1.0000 N.am  1268  0231268    -0.2808
     17  O12        2.9730  -10.2220   -1.3630 O.3   1268  0231268    -0.4195
     18  C11        3.2680   -8.2050   -0.2500 C.2   1268  0231268     0.1130
     19  O16        2.0530   -8.1610   -0.1020 O.2   1268  0231268    -0.5358
     20  C4         4.9430   -7.5800   -3.1940 C.3   1268  0231268     0.0112
     21  C9         4.9830   -7.0570   -4.6230 C.3   1268  0231268     0.0052
     22  C13        4.7000   -5.5490   -4.6190 C.3   1268  0231268     0.0264
     23  C17        4.2760   -4.9390   -5.9100 C.ar  1268  0231268    -0.0222
     24  C23        4.9950   -3.8180   -6.3670 C.ar  1268  0231268    -0.0043
     25  C26        4.6560   -3.1870   -7.5630 C.ar  1268  0231268    -0.0003
     26  C28        3.5930   -3.7110   -8.2880 C.ar  1268  0231268    -0.0000
     27  C27        2.8820   -4.8360   -7.8550 C.ar  1268  0231268    -0.0003
     28  C24        3.2020   -5.4630   -6.6500 C.ar  1268  0231268    -0.0043
@<TRIPOS>BOND
     1    26    27   ar
     2    26    25   ar
     3    27    28   ar
     4    25    24   ar
     5     4     3    2
     6    28    23   ar
     7     1     2    1
     8    24    23   ar
     9     8     6    1
    10    23    22    1
    11     3     2   am
    12     3     5    1
    13     7     6    1
    14     6     5    1
    15     6     9    1
    16    21    22    1
    17    21    20    1
    18     5    10    1
    19    10    11   am
    20    20    13    1
    21    11    13    1
    22    11    12    2
    23    13    14    1
    24    14    15    1
    25    14    16    1
    26    17    16    1
    27    16    18   am
    28    18    19    2
