@<TRIPOS>MOLECULE
2wo9_068_A_1.pdb
 23 24 0 0 0
SMALL
GASTEIGER

@<TRIPOS>ATOM
      1  C19       21.6250   29.7410   -9.9910 C.3   1271  0681271     0.0773
      2  C1        22.5140   29.1990   -8.8700 C.2   1271  0681271     0.1735
      3  O2        23.7010   29.0570   -9.0500 O.2   1271  0681271    -0.2913
      4  C14       21.8580   28.8460   -7.5960 C.ar  1271  0681271     0.0347
      5  C15       22.5940   28.4840   -6.4710 C.ar  1271  0681271     0.0028
      6  C16       21.9600   28.1540   -5.2800 C.ar  1271  0681271     0.0001
      7  C13       20.4740   28.8840   -7.4830 C.ar  1271  0681271     0.0028
      8  C12       19.8420   28.5550   -6.2700 C.ar  1271  0681271     0.0001
      9  C11       20.5740   28.1800   -5.1450 C.ar  1271  0681271     0.0000
     10  C8        19.9140   27.7740   -3.8570 C.ar  1271  0681271    -0.0000
     11  C9        20.4750   26.7400   -3.0950 C.ar  1271  0681271    -0.0003
     12  C10       19.9210   26.2990   -1.9130 C.ar  1271  0681271    -0.0043
     13  C7        18.7140   28.2960   -3.4010 C.ar  1271  0681271    -0.0003
     14  C6        18.1260   27.8650   -2.2260 C.ar  1271  0681271    -0.0043
     15  C5        18.7080   26.8480   -1.4620 C.ar  1271  0681271    -0.0221
     16  C4        18.1030   26.3550   -0.1910 C.3   1271  0681271     0.0290
     17  C3        17.1820   27.2900    0.6090 C.3   1271  0681271     0.0381
     18  C2        16.9510   26.7710    2.0360 C.3   1271  0681271     0.1636
     19  O1        16.2210   25.5390    1.9030 O.3   1271  0681271    -0.2225
     20  C17       16.2540   27.7590    2.9760 C.3   1271  0681271     0.1468
     21  C18       16.8180   29.1870    2.8010 C.2   1271  0681271     0.3674
     22  O19       17.9430   29.3770    3.2250 O.co2 1271  0681271    -0.2456
     23  O20       16.1180   30.0340    2.2600 O.co2 1271  0681271    -0.2456
@<TRIPOS>BOND
     1     1     2    1
     2     3     2    2
     3     2     4    1
     4     4     7   ar
     5     4     5   ar
     6     7     8   ar
     7     5     6   ar
     8     8     9   ar
     9     6     9   ar
    10     9    10    1
    11    10    13   ar
    12    10    11   ar
    13    13    14   ar
    14    11    12   ar
    15    14    15   ar
    16    12    15   ar
    17    15    16    1
    18    16    17    1
    19    17    18    1
    20    19    18    1
    21    18    20    1
    22    23    21   ar
    23    21    20    1
    24    21    22   ar
