@<TRIPOS>MOLECULE
2wo9_023_B_1.pdb
 28 28 0 0 0
SMALL
GASTEIGER

@<TRIPOS>ATOM
      1  C25       11.0280   -7.9400   -6.4800 C.3   1267  0231267     0.1386
      2  N18       10.2940   -8.6750   -5.4620 N.am  1267  0231267    -0.2021
      3  C14        9.1370   -9.2770   -5.7700 C.2   1267  0231267     0.2613
      4  O19        8.5430   -9.1430   -6.8180 O.2   1267  0231267    -0.2715
      5  C10        8.6410  -10.1920   -4.6550 C.3   1267  0231267     0.1726
      6  C15        8.9190  -11.7100   -4.8930 C.3   1267  0231267     0.0270
      7  C22        8.3550  -12.5060   -3.6850 C.3   1267  0231267     0.0022
      8  C21        8.1990  -12.2570   -6.1480 C.3   1267  0231267     0.0022
      9  C20       10.4440  -11.9400   -5.0170 C.3   1267  0231267     0.0022
     10  N5         7.2540   -9.9160   -4.2900 N.am  1267  0231267    -0.1977
     11  C2         6.9180   -9.1240   -3.2690 C.2   1267  0231267     0.2429
     12  O6         7.7210   -8.5280   -2.5480 O.2   1267  0231267    -0.2733
     13  C1         5.4050   -9.0230   -2.9960 C.3   1267  0231267     0.0968
     14  C3         5.2320   -9.4560   -1.4970 C.3   1267  0231267     0.0881
     15  C8         5.7120  -10.8750   -1.1770 C.3   1267  0231267     0.0225
     16  N7         3.8400   -9.2600   -1.0260 N.am  1267  0231267    -0.2808
     17  O12        2.8830  -10.1640   -1.4710 O.3   1267  0231267    -0.4195
     18  C11        3.3810   -8.2990   -0.2370 C.2   1267  0231267     0.1130
     19  O16        2.1560   -8.0880   -0.1740 O.2   1267  0231267    -0.5358
     20  C4         4.9820   -7.5410   -3.1890 C.3   1267  0231267     0.0112
     21  C9         4.9540   -7.0230   -4.6560 C.3   1267  0231267     0.0052
     22  C13        4.5270   -5.5140   -4.6830 C.3   1267  0231267     0.0264
     23  C17        4.2660   -4.9270   -6.0540 C.ar  1267  0231267    -0.0222
     24  C23        3.2480   -5.4540   -6.8640 C.ar  1267  0231267    -0.0043
     25  C26        2.9880   -4.9040   -8.1320 C.ar  1267  0231267    -0.0003
     26  C28        3.7360   -3.8120   -8.6040 C.ar  1267  0231267    -0.0000
     27  C27        4.7330   -3.2840   -7.7940 C.ar  1267  0231267    -0.0003
     28  C24        5.0270   -3.8140   -6.5310 C.ar  1267  0231267    -0.0043
@<TRIPOS>BOND
     1    26    25   ar
     2    26    27   ar
     3    25    24   ar
     4    27    28   ar
     5    24    23   ar
     6     4     3    2
     7    28    23   ar
     8     1     2    1
     9     8     6    1
    10    23    22    1
    11     3     2   am
    12     3     5    1
    13     9     6    1
    14     6     5    1
    15     6     7    1
    16    22    21    1
    17    21    20    1
    18     5    10    1
    19    10    11   am
    20    11    13    1
    21    11    12    2
    22    20    13    1
    23    13    14    1
    24    14    15    1
    25    14    16    1
    26    17    16    1
    27    16    18   am
    28    18    19    2
