@<TRIPOS>MOLECULE
2woa_576_A_1.pdb
 21 23 0 0 0
SMALL
GASTEIGER

@<TRIPOS>ATOM
      1  O1        16.0320   25.3990    1.3780 O.3   1273  5761273    -0.2225
      2  C2        16.8480   26.5840    1.5250 C.3   1273  5761273     0.1636
      3  C17       16.2970   27.5170    2.6270 C.3   1273  5761273     0.1468
      4  C18       16.8190   28.9530    2.5700 C.2   1273  5761273     0.3674
      5  O20       16.1310   29.8320    1.9890 O.co2 1273  5761273    -0.2456
      6  O19       17.9250   29.1310    3.1370 O.co2 1273  5761273    -0.2456
      7  C3        17.1360   27.1920    0.1340 C.3   1273  5761273     0.0381
      8  C4        18.3950   26.5710   -0.5080 C.3   1273  5761273     0.0290
      9  C5        18.8240   27.0780   -1.8750 C.ar  1273  5761273    -0.0221
     10  C6        19.9100   26.4380   -2.5100 C.ar  1273  5761273    -0.0043
     11  C7        20.3140   26.8800   -3.7670 C.ar  1273  5761273    -0.0006
     12  C1        21.4410   26.3180   -4.6230 C.2   1273  5761273    -0.0039
     13  C16       21.3590   27.2290   -5.8580 C.2   1273  5761273    -0.0178
     14  C15       22.1830   27.1830   -7.0100 C.3   1273  5761273     0.0523
     15  C14       21.9570   28.1070   -8.0620 C.2   1273  5761273    -0.0214
     16  C13       20.9120   29.0550   -7.9290 C.2   1273  5761273    -0.0042
     17  C12       20.0980   29.0880   -6.7580 C.2   1273  5761273    -0.0006
     18  C11       20.3340   28.1660   -5.7230 C.2   1273  5761273    -0.0037
     19  C8        19.6780   27.9490   -4.4150 C.ar  1273  5761273    -0.0003
     20  C9        18.6110   28.6020   -3.8110 C.ar  1273  5761273    -0.0003
     21  C10       18.1900   28.1560   -2.5350 C.ar  1273  5761273    -0.0043
@<TRIPOS>BOND
     1    15    16    2
     2    15    14    1
     3    16    17    1
     4    14    13    1
     5    17    18    2
     6    13    18    1
     7    13    12    2
     8    18    19    1
     9    12    11    1
    10    19    20   ar
    11    19    11   ar
    12    20    21   ar
    13    11    10   ar
    14    21     9   ar
    15    10     9   ar
    16     9     8    1
    17     8     7    1
    18     7     2    1
    19     1     2    1
    20     2     3    1
    21     5     4   ar
    22     4     3    1
    23     4     6   ar
