@<TRIPOS>MOLECULE
2woa_023_B_1.pdb
 28 28 0 0 0
SMALL
GASTEIGER

@<TRIPOS>ATOM
      1  C25       10.8700   -8.2120   -6.5320 C.3   1269  0231269     0.1386
      2  N18       10.2320   -8.8680   -5.4110 N.am  1269  0231269    -0.2021
      3  C14        9.0300   -9.3950   -5.6470 C.2   1269  0231269     0.2613
      4  O19        8.4080   -9.2490   -6.6990 O.2   1269  0231269    -0.2715
      5  C10        8.5170  -10.2680   -4.4920 C.3   1269  0231269     0.1726
      6  C15        8.8130  -11.7690   -4.7450 C.3   1269  0231269     0.0270
      7  C22        8.4160  -12.5220   -3.4620 C.3   1269  0231269     0.0022
      8  C21        8.0870  -12.3100   -5.9860 C.3   1269  0231269     0.0022
      9  C20       10.3120  -11.9730   -5.0070 C.3   1269  0231269     0.0022
     10  N5         7.1000  -10.0440   -4.1730 N.am  1269  0231269    -0.1977
     11  C2         6.8330   -9.2260   -3.1480 C.2   1269  0231269     0.2429
     12  O6         7.7110   -8.6850   -2.4820 O.2   1269  0231269    -0.2733
     13  C1         5.3440   -9.0450   -2.8080 C.3   1269  0231269     0.0968
     14  C3         5.1600   -9.4720   -1.3410 C.3   1269  0231269     0.0881
     15  C8         5.5460  -10.9520   -1.2580 C.3   1269  0231269     0.0225
     16  N7         3.7520   -9.3090   -0.9700 N.am  1269  0231269    -0.2808
     17  O12        2.8460  -10.1800   -1.5640 O.3   1269  0231269    -0.4195
     18  C11        3.2360   -8.4300   -0.1250 C.2   1269  0231269     0.1130
     19  O16        2.0290   -8.1880   -0.2180 O.2   1269  0231269    -0.5358
     20  C4         4.8200   -7.6230   -3.1200 C.3   1269  0231269     0.0112
     21  C9         4.7960   -7.2020   -4.6000 C.3   1269  0231269     0.0052
     22  C13        4.4990   -5.6990   -4.6760 C.3   1269  0231269     0.0264
     23  C17        4.2060   -5.0530   -6.0070 C.ar  1269  0231269    -0.0222
     24  C23        3.1730   -5.4980   -6.8160 C.ar  1269  0231269    -0.0043
     25  C26        2.9230   -4.8670   -8.0310 C.ar  1269  0231269    -0.0003
     26  C28        3.6850   -3.7800   -8.4350 C.ar  1269  0231269    -0.0000
     27  C27        4.7120   -3.3170   -7.6270 C.ar  1269  0231269    -0.0003
     28  C24        4.9820   -3.9530   -6.4210 C.ar  1269  0231269    -0.0043
@<TRIPOS>BOND
     1    26    25   ar
     2    26    27   ar
     3    25    24   ar
     4    27    28   ar
     5    24    23   ar
     6     4     3    2
     7     1     2    1
     8    28    23   ar
     9    23    22    1
    10     8     6    1
    11     3     2   am
    12     3     5    1
    13     9     6    1
    14     6     5    1
    15     6     7    1
    16    22    21    1
    17    21    20    1
    18     5    10    1
    19    10    11   am
    20    11    13    1
    21    11    12    2
    22    20    13    1
    23    13    14    1
    24    17    16    1
    25    14    15    1
    26    14    16    1
    27    16    18   am
    28    19    18    2
