@<TRIPOS>MOLECULE
2wog_ADP_A_1.pdb
 27 29 0 0 0
SMALL
GASTEIGER

@<TRIPOS>ATOM
      1  PB        -7.0800  -19.7910    1.7450 P.3   600  ADP600      0.5373
      2  O1B       -5.7730  -19.8580    1.0490 O.3   600  ADP600     -0.1143
      3  O2B       -7.5610  -21.1370    2.2490 O.3   600  ADP600     -0.1143
      4  O3B       -8.1100  -18.9670    1.0100 O.2   600  ADP600     -0.2221
      5  PA        -5.6770  -17.8700    3.4410 P.3   600  ADP600      0.2231
      6  O1A       -5.7500  -16.7110    2.4840 O.2   600  ADP600     -0.5169
      7  O2A       -4.3760  -18.5660    3.6950 O.3   600  ADP600     -0.4370
      8  O3A       -6.8410  -18.9460    3.1080 O.3   600  ADP600     -0.2261
      9  O5'       -6.1650  -17.3080    4.8820 O.3   600  ADP600     -0.3111
     10  C5'       -7.2610  -16.3940    4.9260 C.3   600  ADP600      0.1813
     11  C4'       -7.1250  -15.4360    6.1150 C.3   600  ADP600      0.1821
     12  O4'       -7.1320  -16.1550    7.3700 O.3   600  ADP600     -0.3135
     13  C3'       -5.8040  -14.6930    6.0130 C.3   600  ADP600      0.2184
     14  O3'       -6.0380  -13.3570    6.5130 O.3   600  ADP600     -0.2174
     15  C2'       -4.8970  -15.5030    6.9240 C.3   600  ADP600      0.2570
     16  O2'       -3.8460  -14.7090    7.5080 O.3   600  ADP600     -0.2130
     17  C1'       -5.8550  -16.0100    7.9980 C.3   600  ADP600      0.3186
     18  N9        -5.4890  -17.3420    8.5210 N.pl3 600  ADP600     -0.1439
     19  C8        -5.6620  -18.5340    7.9240 C.3   600  ADP600      0.3377
     20  N7        -5.2650  -19.5360    8.7320 N.2   600  ADP600     -0.2095
     21  C5        -4.8250  -18.9660    9.8780 C.2   600  ADP600      0.2526
     22  C6        -4.2710  -19.4400   11.1620 C.2   600  ADP600      0.4393
     23  N6        -4.1130  -20.7520   11.3760 N.pl3 600  ADP600      0.2180
     24  N1        -3.9520  -18.5310   12.1020 N.2   600  ADP600      0.0021
     25  C2        -4.0990  -17.2170   11.8880 C.3   600  ADP600      0.5254
     26  N3        -4.6410  -16.7030   10.7700 N.2   600  ADP600     -0.0055
     27  C4        -4.9780  -17.5260    9.7390 C.2   600  ADP600      0.3518
@<TRIPOS>BOND
     1     4     1    2
     2     2     1    1
     3     1     3    1
     4     1     8    1
     5     6     5    2
     6     8     5    1
     7     5     7    1
     8     5     9    1
     9     9    10    1
    10    10    11    1
    11    13    11    1
    12    13    14    1
    13    13    15    1
    14    11    12    1
    15    15    16    1
    16    15    17    1
    17    12    17    1
    18    19    18    1
    19    19    20    1
    20    17    18    1
    21    18    27    1
    22    20    21    2
    23    27    21    1
    24    27    26    2
    25    21    22    1
    26    26    25    1
    27    22    23    1
    28    22    24    2
    29    25    24    1
