@<TRIPOS>MOLECULE
2wog_ZZD_A_1.pdb
 26 28 0 0 0
SMALL
GASTEIGER

@<TRIPOS>ATOM
      1  N          1.5550  -16.5040    0.8610 N.3   1365  ZZD1365    -0.1199
      2  CA         2.1030  -15.2360    0.3580 C.3   1365  ZZD1365     0.2050
      3  CB         3.6260  -15.4090    0.2430 C.3   1365  ZZD1365     0.0890
      4  C          1.4720  -14.8080   -1.0030 C.2   1365  ZZD1365     0.3828
      5  O          0.5270  -15.4910   -1.4650 O.co2 1365  ZZD1365    -0.2440
      6  OXT        1.9680  -13.8140   -1.5820 O.co2 1365  ZZD1365    -0.2440
      7  SG         4.4130  -15.8780    1.8480 S.3   1365  ZZD1365    -0.1273
      8  CAM        8.3810  -16.5420    2.7010 C.ar  1365  ZZD1365    -0.0029
      9  CAG        9.1720  -16.6900    3.8600 C.ar  1365  ZZD1365    -0.0003
     10  CAD        8.6190  -16.3800    5.1090 C.ar  1365  ZZD1365    -0.0000
     11  CAH        7.3110  -15.8980    5.1940 C.ar  1365  ZZD1365    -0.0003
     12  CAN        6.5320  -15.7600    4.0390 C.ar  1365  ZZD1365    -0.0029
     13  CAV        7.0580  -16.1050    2.7900 C.ar  1365  ZZD1365    -0.0060
     14  CAZ        6.2250  -15.8680    1.5100 C.3   1365  ZZD1365     0.0953
     15  CAX        6.3060  -16.9860    0.4590 C.ar  1365  ZZD1365    -0.0060
     16  CAQ        6.1980  -18.3160    0.8600 C.ar  1365  ZZD1365    -0.0029
     17  CAK        6.2040  -19.3310   -0.1040 C.ar  1365  ZZD1365    -0.0003
     18  CAF        6.2240  -18.9940   -1.4610 C.ar  1365  ZZD1365    -0.0000
     19  CAL        6.2730  -17.6670   -1.8710 C.ar  1365  ZZD1365    -0.0003
     20  CAR        6.3210  -16.6560   -0.9040 C.ar  1365  ZZD1365    -0.0029
     21  CAW        6.7030  -14.5040    0.9750 C.ar  1365  ZZD1365    -0.0060
     22  CAO        5.8860  -13.3860    1.0190 C.ar  1365  ZZD1365    -0.0029
     23  CAI        6.3340  -12.1580    0.5350 C.ar  1365  ZZD1365    -0.0003
     24  CAE        7.6290  -12.0290    0.0630 C.ar  1365  ZZD1365    -0.0000
     25  CAJ        8.4510  -13.1510    0.0100 C.ar  1365  ZZD1365    -0.0003
     26  CAP        8.0050  -14.3720    0.5120 C.ar  1365  ZZD1365    -0.0029
@<TRIPOS>BOND
     1    19    18   ar
     2    19    20   ar
     3     6     4   ar
     4     5     4   ar
     5    18    17   ar
     6     4     2    1
     7    20    15   ar
     8    17    16   ar
     9    25    24   ar
    10    25    26   ar
    11    24    23   ar
    12     3     2    1
    13     3     7    1
    14     2     1    1
    15    15    16   ar
    16    15    14    1
    17    26    21   ar
    18    23    22   ar
    19    21    22   ar
    20    21    14    1
    21    14     7    1
    22    14    13    1
    23     8    13   ar
    24     8     9   ar
    25    13    12   ar
    26     9    10   ar
    27    12    11   ar
    28    10    11   ar
