@<TRIPOS>MOLECULE
2woj_ADP_A_1.pdb
 27 29 0 0 0
SMALL
GASTEIGER

@<TRIPOS>ATOM
      1  PB        12.7420   44.4150   57.5410 P.3   401  ADP401      0.5373
      2  O1B       13.0100   44.1780   59.0590 O.3   401  ADP401     -0.1143
      3  O2B       12.2210   43.0290   57.0290 O.3   401  ADP401     -0.1143
      4  O3B       13.7360   45.0720   56.7250 O.2   401  ADP401     -0.2221
      5  PA         9.8010   45.1060   57.6590 P.3   401  ADP401      0.2231
      6  O1A        9.4040   44.6890   56.1950 O.2   401  ADP401     -0.5169
      7  O2A        9.4910   44.1190   58.7200 O.3   401  ADP401     -0.4370
      8  O3A       11.3750   45.2750   57.5840 O.3   401  ADP401     -0.2261
      9  O5'        9.1510   46.5510   57.8570 O.3   401  ADP401     -0.3111
     10  C5'        9.3400   47.2040   59.1020 C.3   401  ADP401      0.1813
     11  C4'        8.0120   47.8310   59.5240 C.3   401  ADP401      0.1821
     12  O4'        7.6160   48.8510   58.5880 O.3   401  ADP401     -0.3135
     13  C3'        6.8650   46.7620   59.5070 C.3   401  ADP401      0.2184
     14  O3'        6.0120   46.9660   60.6310 O.3   401  ADP401     -0.2174
     15  C2'        6.1430   47.0060   58.1620 C.3   401  ADP401      0.2570
     16  O2'        4.7750   46.6830   58.1520 O.3   401  ADP401     -0.2130
     17  C1'        6.3120   48.5270   58.0010 C.3   401  ADP401      0.3186
     18  N9         6.5110   48.9430   56.6530 N.pl3 401  ADP401     -0.1439
     19  C8         7.5410   48.6620   55.7470 C.3   401  ADP401      0.3377
     20  N7         7.5490   49.4760   54.6730 N.2   401  ADP401     -0.2095
     21  C5         6.4870   50.3520   54.9340 C.2   401  ADP401      0.2526
     22  C6         5.9160   51.4660   54.2680 C.2   401  ADP401      0.4393
     23  N6         6.4930   51.8810   53.1150 N.pl3 401  ADP401      0.2180
     24  N1         4.8430   52.1590   54.7920 N.2   401  ADP401      0.0021
     25  C2         4.3410   51.7250   55.9460 C.3   401  ADP401      0.5254
     26  N3         4.7700   50.6980   56.7040 N.2   401  ADP401     -0.0055
     27  C4         5.8280   50.0500   56.1730 C.2   401  ADP401      0.3518
@<TRIPOS>BOND
     1    23    22    1
     2    22    24    2
     3    22    21    1
     4    20    21    2
     5    20    19    1
     6    24    25    1
     7    21    27    1
     8    19    18    1
     9    25    26    1
    10    27    18    1
    11    27    26    2
    12     6     5    2
    13    18    17    1
    14     4     1    2
    15     3     1    1
    16     1     8    1
    17     1     2    1
    18     8     5    1
    19     5     9    1
    20     5     7    1
    21     9    10    1
    22    17    15    1
    23    17    12    1
    24    16    15    1
    25    15    13    1
    26    12    11    1
    27    10    11    1
    28    13    11    1
    29    13    14    1
