@<TRIPOS>MOLECULE
2wok_III_B_1.pdb
 40 42 0 0 0
SMALL
GASTEIGER

@<TRIPOS>ATOM
      1  N          9.0710   -0.4630   23.3390 N.3     1  ARG1       -0.1231
      2  CA         8.8270   -1.9180   23.5570 C.3     1  ARG1        0.1679
      3  C         10.0220   -2.5500   24.2760 C.2     1  ARG1        0.2434
      4  O         11.1260   -1.9850   24.2390 O.2     1  ARG1       -0.2733
      5  CB         8.6260   -2.6130   22.1990 C.3     1  ARG1        0.0321
      6  CG         9.7830   -2.3660   21.2380 C.3     1  ARG1        0.0489
      7  CD         9.7430   -3.2310   20.0030 C.3     1  ARG1        0.2205
      8  NE         8.5110   -3.1410   19.1950 N.pl3   1  ARG1       -0.0865
      9  CZ         8.2370   -2.1740   18.3010 C.cat   1  ARG1        0.5346
     10  NH1        9.0550   -1.1600   18.1010 N.pl3   1  ARG1        0.1354
     11  NH2        7.0930   -2.2190   17.6220 N.pl3   1  ARG1        0.1354
     12  N          9.8070   -3.7450   24.8870 N.am    2  PRO2       -0.2718
     13  CA        10.8820   -4.5890   25.4240 C.3     2  PRO2        0.1520
     14  C         11.5400   -5.3780   24.3000 C.2     2  PRO2        0.2440
     15  O         10.9610   -5.4680   23.2090 O.2     2  PRO2       -0.2731
     16  CB        10.1410   -5.5680   26.3460 C.3     2  PRO2        0.0310
     17  CG         8.7620   -5.6610   25.8040 C.3     2  PRO2        0.0237
     18  CD         8.4680   -4.3550   25.0780 C.3     2  PRO2        0.0939
     19  N         12.7300   -5.9610   24.5650 N.am    3  PRO3       -0.2716
     20  CA        13.4410   -6.7550   23.5710 C.3     3  PRO3        0.1536
     21  C         12.8170   -8.1450   23.4270 C.2     3  PRO3        0.2599
     22  O         11.8390   -8.4640   24.1200 O.2     3  PRO3       -0.2715
     23  CB        14.8580   -6.8480   24.1580 C.3     3  PRO3        0.0310
     24  CG        14.6090   -6.8660   25.6450 C.3     3  PRO3        0.0237
     25  CD        13.4710   -5.8920   25.8450 C.3     3  PRO3        0.0939
     26  N         13.3930   -8.9560   22.5350 N.am    4  GLY4       -0.1941
     27  CA        12.8410  -10.2640   22.1560 C.3     4  GLY4        0.2014
     28  C         12.6300  -11.3420   23.2190 C.2     4  GLY4        0.2638
     29  O         11.5190  -11.4790   23.7640 O.2     4  GLY4       -0.2714
     30  N         13.6940  -12.1070   23.4940 N.am    5  PHE5       -0.1973
     31  CA        13.6760  -13.3010   24.3650 C.3     5  PHE5        0.1639
     32  C         12.7390  -14.4070   23.8660 C.2     5  PHE5        0.2290
     33  O         11.5110  -14.2600   23.8720 O.2     5  PHE5       -0.2864
     34  CB        13.3830  -12.9480   25.8350 C.3     5  PHE5        0.0560
     35  CG        14.2740  -11.8630   26.3950 C.ar    5  PHE5       -0.0200
     36  CD1       13.7220  -10.7510   27.0260 C.ar    5  PHE5       -0.0042
     37  CD2       15.6680  -11.9490   26.2870 C.ar    5  PHE5       -0.0042
     38  CE1       14.5420   -9.7430   27.5450 C.ar    5  PHE5       -0.0003
     39  CE2       16.5010  -10.9410   26.8070 C.ar    5  PHE5       -0.0003
     40  CZ        15.9350   -9.8390   27.4330 C.ar    5  PHE5       -0.0000
@<TRIPOS>BOND
     1    11     9    1
     2    10     9    1
     3     9     8    2
     4     8     7    1
     5     7     6    1
     6     6     5    1
     7    27    26    1
     8    27    28    1
     9     5     2    1
    10    26    21   am
    11    15    14    2
    12    28    30   am
    13    28    29    2
    14     1     2    1
    15    21    20    1
    16    21    22    2
    17    30    31    1
    18     2     3    1
    19    20    23    1
    20    20    19    1
    21    32    33    2
    22    32    31    1
    23    23    24    1
    24     4     3    2
    25     3    12   am
    26    14    19   am
    27    14    13    1
    28    31    34    1
    29    19    25    1
    30    12    18    1
    31    12    13    1
    32    18    17    1
    33    13    16    1
    34    24    25    1
    35    17    16    1
    36    34    35    1
    37    37    35   ar
    38    37    39   ar
    39    35    36   ar
    40    39    40   ar
    41    36    38   ar
    42    40    38   ar
