@<TRIPOS>MOLECULE
2wom_ZZE_A_1.pdb
 23 24 0 0 0
SMALL
GASTEIGER

@<TRIPOS>ATOM
      1  C1         8.7470   12.4340   17.2250 C.ar  1558  ZZE1558     0.1733
      2  C2         7.4500   12.4860   16.6540 C.ar  1558  ZZE1558     0.0912
      3  C3         9.7280   12.9490   16.3110 C.ar  1558  ZZE1558     0.1140
      4  O4         8.9910   11.8820   18.5170 O.3   1558  ZZE1558    -0.4510
      5  N5         7.6890   13.0340   15.4400 N.ar  1558  ZZE1558    -0.2495
      6  C6         6.1010   12.0270   17.2660 C.3   1558  ZZE1558     0.0487
      7  N7         9.0170   13.3000   15.2500 N.ar  1558  ZZE1558    -0.1707
      8  C8        11.2270   13.0770   16.4690 C.3   1558  ZZE1558     0.0508
      9  C9         9.2740   12.4250   19.7190 C.ar  1558  ZZE1558     0.1468
     10  C10        6.7160   13.3130   14.4690 C.3   1558  ZZE1558     0.1626
     11  C11        6.1550   10.7250   17.8220 C.3   1558  ZZE1558     0.0068
     12  C12       11.8970   13.2610   15.0900 C.3   1558  ZZE1558     0.0069
     13  C13        9.2100   11.5990   20.9370 C.ar  1558  ZZE1558     0.0478
     14  C14        9.6330   13.7730   19.7580 C.ar  1558  ZZE1558     0.0478
     15  C15        6.2630   11.9100   13.9040 C.3   1558  ZZE1558     0.2083
     16  C16        9.5280   12.2340   22.2040 C.ar  1558  ZZE1558     0.0722
     17  C17        9.9050   14.3670   21.0060 C.ar  1558  ZZE1558     0.0722
     18  O18        5.6240   11.9750   12.6030 O.3   1558  ZZE1558    -0.2182
     19  C19        9.8650   13.6310   22.2780 C.ar  1558  ZZE1558     0.0208
     20  C20        9.4740   11.4910   23.3940 C.1   1558  ZZE1558     0.1005
     21  C21       10.2090   15.7140   20.7250 C.1   1558  ZZE1558     0.1005
     22  N22        9.4290   10.8610   24.4020 N.1   1558  ZZE1558    -0.1908
     23  N23       10.4680   16.8600   20.4840 N.1   1558  ZZE1558    -0.1908
@<TRIPOS>BOND
     1    18    15    1
     2    15    10    1
     3    10     5    1
     4    12     8    1
     5     7     5   ar
     6     7     3   ar
     7     5     2   ar
     8     3     8    1
     9     3     1   ar
    10     2     1   ar
    11     2     6    1
    12     1     4    1
    13     6    11    1
    14     4     9    1
    15     9    14   ar
    16     9    13   ar
    17    14    17   ar
    18    23    21    3
    19    21    17    1
    20    13    16   ar
    21    17    19   ar
    22    16    19   ar
    23    16    20    1
    24    20    22    3
