@<TRIPOS>MOLECULE
2won_ZZE_A_1.pdb
 23 24 0 0 0
SMALL
GASTEIGER

@<TRIPOS>ATOM
      1  C1         8.9060   12.3050   16.8610 C.ar  1558  ZZE1558     0.1733
      2  C2         7.6130   12.3400   16.3050 C.ar  1558  ZZE1558     0.0912
      3  C3         9.8860   12.8350   15.9560 C.ar  1558  ZZE1558     0.1140
      4  O4         9.1330   11.7450   18.1580 O.3   1558  ZZE1558    -0.4510
      5  N5         7.8440   12.9030   15.0950 N.ar  1558  ZZE1558    -0.2495
      6  C6         6.2870   11.8620   16.9350 C.3   1558  ZZE1558     0.0487
      7  N7         9.1680   13.2000   14.9110 N.ar  1558  ZZE1558    -0.1707
      8  C8        11.3890   12.9580   16.1130 C.3   1558  ZZE1558     0.0508
      9  C9         9.4200   12.2800   19.3710 C.ar  1558  ZZE1558     0.1468
     10  C10        6.8640   13.1720   14.1140 C.3   1558  ZZE1558     0.1626
     11  C11        6.3670   10.5610   17.4870 C.3   1558  ZZE1558     0.0068
     12  C12       12.0720   13.1480   14.7200 C.3   1558  ZZE1558     0.0069
     13  C13        9.3580   11.4180   20.5890 C.ar  1558  ZZE1558     0.0478
     14  C14        9.7800   13.6340   19.3940 C.ar  1558  ZZE1558     0.0478
     15  C15        6.4340   11.7640   13.5310 C.3   1558  ZZE1558     0.2083
     16  C16        9.6860   12.0650   21.8480 C.ar  1558  ZZE1558     0.0722
     17  C17       10.0580   14.2060   20.6450 C.ar  1558  ZZE1558     0.0722
     18  O18        5.7710   11.8370   12.2360 O.3   1558  ZZE1558    -0.2182
     19  C19       10.0220   13.4650   21.9210 C.ar  1558  ZZE1558     0.0208
     20  C20        9.6320   11.3230   23.0320 C.1   1558  ZZE1558     0.1005
     21  C21       10.3710   15.5490   20.3560 C.1   1558  ZZE1558     0.1005
     22  N22        9.5840   10.6950   24.0360 N.1   1558  ZZE1558    -0.1908
     23  N23       10.6350   16.6900   20.1090 N.1   1558  ZZE1558    -0.1908
@<TRIPOS>BOND
     1    18    15    1
     2    15    10    1
     3    10     5    1
     4    12     8    1
     5     7     5   ar
     6     7     3   ar
     7     5     2   ar
     8     3     8    1
     9     3     1   ar
    10     2     1   ar
    11     2     6    1
    12     1     4    1
    13     6    11    1
    14     4     9    1
    15     9    14   ar
    16     9    13   ar
    17    14    17   ar
    18    23    21    3
    19    21    17    1
    20    13    16   ar
    21    17    19   ar
    22    16    19   ar
    23    16    20    1
    24    20    22    3
