@<TRIPOS>MOLECULE
2wop_ARG_A_1.pdb
 12 11 0 0 0
SMALL
GASTEIGER

@<TRIPOS>ATOM
      1  N        -15.5310    0.2840   23.3830 N.3   563  ARG563     -0.1208
      2  CA       -15.7950   -1.1490   23.6710 C.3   563  ARG563      0.1944
      3  C        -14.6360   -1.7770   24.4410 C.2   563  ARG563      0.3819
      4  O        -13.5200   -1.2390   24.5350 O.co2 563  ARG563     -0.2441
      5  CB       -16.0230   -1.9090   22.3680 C.3   563  ARG563      0.0343
      6  CG       -14.8380   -1.7930   21.4030 C.3   563  ARG563      0.0490
      7  CD       -14.9270   -2.8270   20.3060 C.3   563  ARG563      0.2205
      8  NE       -16.1390   -2.7000   19.4900 N.pl3 563  ARG563     -0.0865
      9  CZ       -16.3700   -1.7110   18.6220 C.cat 563  ARG563      0.5346
     10  NH1      -15.4840   -0.7280   18.4560 N.pl3 563  ARG563      0.1354
     11  NH2      -17.4890   -1.7080   17.9140 N.pl3 563  ARG563      0.1354
     12  OXT      -14.8130   -2.8740   24.9550 O.co2 563  ARG563     -0.2441
@<TRIPOS>BOND
     1    11     9    1
     2    10     9    1
     3     9     8    2
     4     8     7    1
     5     7     6    1
     6     6     5    1
     7     5     2    1
     8     1     2    1
     9     2     3    1
    10     3     4   ar
    11     3    12   ar
