@<TRIPOS>MOLECULE
2woq_AYC_A_1.pdb
 12 11 0 0 0
SMALL
GASTEIGER

@<TRIPOS>ATOM
      1  OAD      -21.7200   23.3840   17.5290 O.2   1333  AYC1333    -0.2733
      2  CAQ      -22.6370   23.3800   18.3550 C.2   1333  AYC1333     0.2418
      3  CAB      -22.7510   24.4750   19.3680 C.3   1333  AYC1333     0.0964
      4  NAP      -23.5380   22.4100   18.5320 N.am  1333  AYC1333    -0.2072
      5  CAR      -23.7490   21.2060   17.7170 C.3   1333  AYC1333     0.0954
      6  CAA      -23.4440   19.9110   18.4340 C.3   1333  AYC1333     0.0234
      7  CAU      -23.2600   21.2830   16.2730 C.3   1333  AYC1333     0.0222
      8  CAM      -23.9490   22.2770   15.3870 C.3   1333  AYC1333     0.0136
      9  CAL      -25.0880   21.5700   14.5930 C.3   1333  AYC1333     0.1141
     10  CAS      -25.6840   22.4950   13.5360 C.2   1333  AYC1333     0.3649
     11  OAG      -25.1650   23.5950   13.2360 O.co2 1333  AYC1333    -0.2457
     12  OAE      -26.7020   22.0900   12.9950 O.co2 1333  AYC1333    -0.2457
@<TRIPOS>BOND
     1    12    10   ar
     2    11    10   ar
     3    10     9    1
     4     9     8    1
     5     8     7    1
     6     7     5    1
     7     1     2    2
     8     5     6    1
     9     5     4    1
    10     2     4   am
    11     2     3    1
