@<TRIPOS>MOLECULE
2wor_2AN_A_1.pdb
 21 23 0 0 0
SMALL
GASTEIGER

@<TRIPOS>ATOM
      1  C1         2.7420    5.4730    7.0170 C.ar  1098  2AN1098     0.0717
      2  C2         4.0790    5.6850    7.4370 C.ar  1098  2AN1098     0.0165
      3  C3         5.1890    5.8660    6.5310 C.ar  1098  2AN1098     0.0013
      4  C4         4.8820    5.8110    5.1890 C.ar  1098  2AN1098     0.0001
      5  C5         3.5890    5.6290    4.6960 C.ar  1098  2AN1098     0.0025
      6  C6         3.3390    5.6160    3.2950 C.ar  1098  2AN1098     0.0001
      7  C7         2.0380    5.4090    2.8080 C.ar  1098  2AN1098     0.0013
      8  C8         0.8440    5.2630    3.6220 C.ar  1098  2AN1098     0.0189
      9  N          1.7350    5.1920    7.9830 N.pl3 1098  2AN1098    -0.2124
     10  S         -0.4460    5.3380    5.8990 S.3   1098  2AN1098     0.0421
     11  C9         1.0050    5.3260    5.0090 C.ar  1098  2AN1098     0.1135
     12  C10        2.3970    5.4450    5.5910 C.ar  1098  2AN1098     0.0329
     13  C11        1.4100    5.9290    9.0630 C.ar  1098  2AN1098     0.0705
     14  C12        0.5460    5.2470    9.9960 C.ar  1098  2AN1098     0.0165
     15  C13        0.2290    6.0010   11.2000 C.ar  1098  2AN1098     0.0013
     16  C14        0.6590    7.3020   11.3020 C.ar  1098  2AN1098     0.0001
     17  C15        1.4980    7.9740   10.3410 C.ar  1098  2AN1098     0.0013
     18  C16        1.8870    7.2270    9.1940 C.ar  1098  2AN1098     0.0165
     19  O1        -1.5950    5.4450    4.9360 O.3   1098  2AN1098    -0.0650
     20  O2        -0.4240    6.5940    6.6020 O.3   1098  2AN1098    -0.0650
     21  O3        -0.6040    4.1700    6.7980 O.3   1098  2AN1098    -0.0650
@<TRIPOS>BOND
     1     7     6   ar
     2     7     8   ar
     3     6     5   ar
     4     8    11   ar
     5     5     4   ar
     6     5    12   ar
     7    19    10    1
     8    11    12   ar
     9    11    10    1
    10     4     3   ar
    11    12     1   ar
    12    10    20    1
    13    10    21    1
    14     3     2   ar
    15     1     2   ar
    16     1     9    1
    17     9    13    1
    18    13    18   ar
    19    13    14   ar
    20    18    17   ar
    21    14    15   ar
    22    17    16   ar
    23    15    16   ar
