@<TRIPOS>MOLECULE
2wos_6AN_A_1.pdb
 21 23 0 0 0
SMALL
GASTEIGER

@<TRIPOS>ATOM
      1  C7        21.7430   20.0510    3.6320 C.ar  1098  6AN1098     0.0165
      2  C8        23.1010   20.4280    3.3970 C.ar  1098  6AN1098     0.0014
      3  C16       23.6420   20.8160    2.0970 C.ar  1098  6AN1098     0.0014
      4  C15       24.9780   21.1090    1.9090 C.ar  1098  6AN1098     0.0189
      5  C14       25.7920   21.0550    3.0940 C.ar  1098  6AN1098     0.1123
      6  S         27.4970   21.4090    2.9340 S.3   1098  6AN1098     0.0421
      7  O3        27.7050   22.4810    1.8490 O.3   1098  6AN1098    -0.0650
      8  O1        28.1410   20.1610    2.3170 O.3   1098  6AN1098    -0.0650
      9  O2        28.1470   21.7150    4.2930 O.3   1098  6AN1098    -0.0650
     10  C13       25.2690   20.7540    4.3780 C.ar  1098  6AN1098     0.0189
     11  C12       23.9310   20.4170    4.5250 C.ar  1098  6AN1098     0.0014
     12  C11       23.3880   20.1240    5.8140 C.ar  1098  6AN1098     0.0014
     13  C10       22.0530   19.8140    6.0620 C.ar  1098  6AN1098     0.0165
     14  C9        21.2090   19.7340    4.9330 C.ar  1098  6AN1098     0.0705
     15  N         19.9750   19.4480    5.1920 N.pl3 1098  6AN1098    -0.2125
     16  C6        19.0140   19.0120    4.2120 C.ar  1098  6AN1098     0.0705
     17  C1        17.6080   19.1710    4.3660 C.ar  1098  6AN1098     0.0165
     18  C2        16.5980   18.7750    3.4930 C.ar  1098  6AN1098     0.0013
     19  C3        16.9460   18.1280    2.3200 C.ar  1098  6AN1098     0.0001
     20  C4        18.3380   17.9360    2.0720 C.ar  1098  6AN1098     0.0013
     21  C5        19.3520   18.3270    3.0210 C.ar  1098  6AN1098     0.0165
@<TRIPOS>BOND
     1     7     6    1
     2     4     3   ar
     3     4     5   ar
     4    20    19   ar
     5    20    21   ar
     6     3     2   ar
     7     8     6    1
     8    19    18   ar
     9     6     5    1
    10     6     9    1
    11    21    16   ar
    12     5    10   ar
    13     2     1   ar
    14     2    11   ar
    15    18    17   ar
    16     1    14   ar
    17    16    17   ar
    18    16    15    1
    19    10    11   ar
    20    11    12   ar
    21    14    15    1
    22    14    13   ar
    23    12    13   ar
