@<TRIPOS>MOLECULE
2wot_ZZG_A_1.pdb
 34 37 0 0 0
SMALL
GASTEIGER

@<TRIPOS>ATOM
      1  C1        -2.8880    5.9580    1.2510 C.3   1500  ZZG1500     0.2526
      2  O2        -2.7310    5.9440    2.6750 O.3   1500  ZZG1500    -0.4682
      3  C3        -1.4730    6.1000    3.1800 C.ar  1500  ZZG1500     0.1767
      4  C4        -0.3270    6.2740    2.3960 C.ar  1500  ZZG1500     0.0568
      5  C5         0.9250    6.4250    2.9850 C.ar  1500  ZZG1500     0.0784
      6  N6         2.0400    6.5880    2.1330 N.pl3 1500  ZZG1500    -0.1938
      7  C7         3.2800    7.1530    2.4490 C.ar  1500  ZZG1500     0.1548
      8  C8         3.3560    8.1050    3.4610 C.ar  1500  ZZG1500     0.0736
      9  C9         4.5980    8.6530    3.7440 C.ar  1500  ZZG1500     0.1498
     10  O10        4.7060    9.5910    4.7500 O.3   1500  ZZG1500    -0.4510
     11  C11        5.9160   10.1870    4.9920 C.2   1500  ZZG1500     0.1722
     12  C12        6.4100   11.1080    4.0880 C.2   1500  ZZG1500     0.0204
     13  C13        7.6210   11.7310    4.3320 C.3   1500  ZZG1500     0.0733
     14  C14        8.1870   12.7330    3.3440 C.3   1500  ZZG1500     0.0119
     15  C15        8.2830   11.3910    5.5220 C.2   1500  ZZG1500     0.0910
     16  C16        9.6110   12.0100    5.8970 C.3   1500  ZZG1500     0.0618
     17  N17        7.7980   10.5110    6.4060 N.2   1500  ZZG1500    -0.4056
     18  C18        6.6270    9.9100    6.1510 C.2   1500  ZZG1500     0.1820
     19  C19        6.1360    8.9740    7.2070 C.ar  1500  ZZG1500     0.1138
     20  C20        5.4370    7.8090    6.8780 C.ar  1500  ZZG1500     0.0219
     21  C21        4.9790    6.9850    7.8970 C.ar  1500  ZZG1500     0.0032
     22  C22        5.2410    7.3560    9.2110 C.ar  1500  ZZG1500     0.0207
     23  C23        5.9370    8.5320    9.4410 C.ar  1500  ZZG1500     0.0989
     24  N24        6.3730    9.3330    8.4780 N.ar  1500  ZZG1500    -0.2412
     25  C25        5.7310    8.2490    3.0220 C.ar  1500  ZZG1500     0.0582
     26  C26        5.5310    7.3000    2.0290 C.ar  1500  ZZG1500     0.1035
     27  N27        4.3420    6.7570    1.7310 N.ar  1500  ZZG1500    -0.2272
     28  C28        1.0210    6.3970    4.3770 C.ar  1500  ZZG1500     0.0568
     29  C29       -0.1110    6.2230    5.1760 C.ar  1500  ZZG1500     0.1767
     30  O30       -0.0310    6.2010    6.5440 O.3   1500  ZZG1500    -0.4682
     31  C31        1.2610    6.3510    7.1450 C.3   1500  ZZG1500     0.2526
     32  C32       -1.3700    6.0830    4.5790 C.ar  1500  ZZG1500     0.2061
     33  O33       -2.4870    5.8950    5.3630 O.3   1500  ZZG1500    -0.4654
     34  C34       -2.8500    7.0800    6.0860 C.3   1500  ZZG1500     0.2528
@<TRIPOS>BOND
     1     1     2    1
     2    27    26   ar
     3    27     7   ar
     4    26    25   ar
     5     6     7    1
     6     6     5    1
     7     4     5   ar
     8     4     3   ar
     9     7     8   ar
    10     2     3    1
    11     5    28   ar
    12    25     9   ar
    13     3    32   ar
    14    14    13    1
    15     8     9   ar
    16     9    10    1
    17    12    13    1
    18    12    11    2
    19    13    15    1
    20    28    29   ar
    21    32    29   ar
    22    32    33    1
    23    10    11    1
    24    11    18    1
    25    29    30    1
    26    33    34    1
    27    15    16    1
    28    15    17    2
    29    18    17    2
    30    18    19    1
    31    30    31    1
    32    20    19   ar
    33    20    21   ar
    34    19    24   ar
    35    21    22   ar
    36    24    23   ar
    37    22    23   ar
