@<TRIPOS>MOLECULE
2wou_ZZF_A_1.pdb
 26 28 0 0 0
SMALL
GASTEIGER

@<TRIPOS>ATOM
      1  C1         9.2100   11.7400    5.1300 C.3   1500  ZZF1500     0.0618
      2  C2         7.8490   11.1780    4.9490 C.2   1500  ZZF1500     0.0912
      3  C3         6.9910   11.7310    4.0230 C.3   1500  ZZF1500     0.0836
      4  C4         5.7310   11.1900    3.8690 C.2   1500  ZZF1500     0.0207
      5  C5         5.3730   10.1170    4.6500 C.2   1500  ZZF1500     0.1666
      6  C6         6.2680    9.6090    5.5680 C.2   1500  ZZF1500     0.1425
      7  N7         7.4920   10.1350    5.7060 N.2   1500  ZZF1500    -0.4114
      8  C8         5.8940    8.4420    6.4340 C.3   1500  ZZF1500     0.0697
      9  O9         4.1140    9.5600    4.5180 O.3   1500  ZZF1500    -0.4514
     10  C10        4.0120    8.5190    3.6060 C.ar  1500  ZZF1500     0.1498
     11  C11        5.0920    8.0310    2.9060 C.ar  1500  ZZF1500     0.0582
     12  C12        4.8660    6.9980    2.0250 C.ar  1500  ZZF1500     0.1035
     13  N13        3.6690    6.4400    1.8090 N.ar  1500  ZZF1500    -0.2272
     14  C14        2.6390    6.9260    2.5090 C.ar  1500  ZZF1500     0.1548
     15  C15        2.7690    7.9640    3.4100 C.ar  1500  ZZF1500     0.0736
     16  N16        1.4210    6.3170    2.2640 N.pl3 1500  ZZF1500    -0.1940
     17  C17        0.2840    6.2280    3.0980 C.ar  1500  ZZF1500     0.0722
     18  C18       -0.9450    6.0610    2.4980 C.ar  1500  ZZF1500     0.0179
     19  C19       -2.0860    5.9600    3.2630 C.ar  1500  ZZF1500     0.0213
     20  C20       -2.0030    6.0270    4.6380 C.ar  1500  ZZF1500     0.1251
     21  C21       -0.7880    6.1960    5.2550 C.ar  1500  ZZF1500     0.0213
     22  C22        0.3500    6.2900    4.4810 C.ar  1500  ZZF1500     0.0179
     23  S23       -3.5140    5.8900    5.5870 S.O2  1500  ZZF1500     0.0935
     24  O24       -3.8080    7.2010    6.1360 O.2   1500  ZZF1500    -0.1503
     25  O25       -4.3650    5.1960    4.6410 O.2   1500  ZZF1500    -0.1503
     26  N26       -3.2930    4.9990    6.7100 N.3   1500  ZZF1500     0.0392
@<TRIPOS>BOND
     1    13    12   ar
     2    13    14   ar
     3    12    11   ar
     4    16    14    1
     5    16    17    1
     6    18    17   ar
     7    18    19   ar
     8    14    15   ar
     9    11    10   ar
    10    17    22   ar
    11    19    20   ar
    12    15    10   ar
    13    10     9    1
    14     4     3    1
    15     4     5    2
    16     3     2    1
    17    22    21   ar
    18     9     5    1
    19    20    21   ar
    20    20    23    1
    21    25    23    2
    22     5     6    1
    23     2     1    1
    24     2     7    2
    25     6     7    2
    26     6     8    1
    27    23    24    2
    28    23    26    1
