@<TRIPOS>MOLECULE
2wov_NDP_A_1.pdb
 48 52 0 0 0
SMALL
GASTEIGER

@<TRIPOS>ATOM
      1  PA        15.6790    7.0450   51.5130 P.3   800  NDP800      0.2189
      2  O1A       15.3160    6.4890   52.9950 O.3   800  NDP800     -0.4371
      3  O2A       15.0000    6.3240   50.3690 O.2   800  NDP800     -0.5170
      4  O5B       15.3530    8.6500   51.4930 O.3   800  NDP800     -0.3112
      5  C5B       15.8640    9.4260   50.3790 C.3   800  NDP800      0.1813
      6  C4B       15.5030   10.9160   50.5080 C.3   800  NDP800      0.1820
      7  O4B       15.9650   11.5730   49.2650 O.3   800  NDP800     -0.3136
      8  C3B       14.0000   11.1830   50.5800 C.3   800  NDP800      0.2157
      9  O3B       13.8110   12.3510   51.3380 O.3   800  NDP800     -0.2175
     10  C2B       13.6340   11.4560   49.1100 C.3   800  NDP800      0.2314
     11  O2B       12.4860   12.2930   48.9620 O.3   800  NDP800     -0.2630
     12  C1B       14.8410   12.2570   48.6880 C.3   800  NDP800      0.3158
     13  N9A       15.0630   12.0480   47.2830 N.pl3 800  NDP800     -0.1439
     14  C8A       14.8500   10.9170   46.5980 C.3   800  NDP800      0.3377
     15  N7A       15.1690   11.1540   45.3230 N.2   800  NDP800     -0.2095
     16  C5A       15.5990   12.3940   45.2030 C.2   800  NDP800      0.2526
     17  C6A       16.0720   13.1420   44.1320 C.2   800  NDP800      0.4393
     18  N6A       16.1700   12.6010   42.9040 N.pl3 800  NDP800      0.2180
     19  N1A       16.4170   14.4240   44.3710 N.2   800  NDP800      0.0021
     20  C2A       16.3250   14.9590   45.5950 C.3   800  NDP800      0.5254
     21  N3A       15.8980   14.2700   46.6330 N.2   800  NDP800     -0.0055
     22  C4A       15.5270   12.9860   46.4520 C.2   800  NDP800      0.3518
     23  O3        17.2320    6.9290   51.1830 O.3   800  NDP800     -0.2703
     24  PN        18.5550    6.9740   52.0690 P.3   800  NDP800      0.2189
     25  O1N       18.5500    8.0580   53.3100 O.3   800  NDP800     -0.4371
     26  O2N       19.6520    7.1860   51.0860 O.2   800  NDP800     -0.5170
     27  O5D       18.6740    5.4490   52.6970 O.3   800  NDP800     -0.3112
     28  C5D       18.2810    4.3620   51.8110 C.3   800  NDP800      0.1813
     29  C4D       17.6670    3.1990   52.4990 C.3   800  NDP800      0.1799
     30  O4D       18.7120    2.6750   53.3330 O.3   800  NDP800     -0.3327
     31  C3D       16.6360    3.7190   53.4770 C.3   800  NDP800      0.2158
     32  O3D       15.3510    3.8390   52.8750 O.3   800  NDP800     -0.2175
     33  C2D       16.6180    2.6070   54.5340 C.3   800  NDP800      0.2309
     34  O2D       15.9070    1.5020   54.0300 O.3   800  NDP800     -0.2158
     35  C1D       18.0930    2.2510   54.6390 C.3   800  NDP800      0.2263
     36  N1N       18.6590    2.8830   55.8850 N.pl3 800  NDP800     -0.2787
     37  C2N       18.1740    2.5040   57.1560 C.3   800  NDP800      0.1244
     38  C3N       18.7250    3.0640   58.3180 C.2   800  NDP800      0.0544
     39  C7N       18.1460    2.6200   59.6390 C.2   800  NDP800      0.2818
     40  O7N       17.2450    1.7930   59.6560 O.2   800  NDP800     -0.2670
     41  N7N       18.6560    3.1660   60.7360 N.am  800  NDP800     -0.0839
     42  C4N       19.8740    4.1040   58.2660 C.2   800  NDP800      0.0033
     43  C5N       20.3060    4.3860   56.9590 C.2   800  NDP800      0.0157
     44  C6N       19.7400    3.7960   55.8030 C.2   800  NDP800      0.0633
     45  P2B       10.9950   11.6940   48.7040 P.3   800  NDP800      0.5328
     46  O1X       10.3120   12.8950   47.9350 O.3   800  NDP800     -0.1145
     47  O2X       11.1550   10.5270   47.6800 O.2   800  NDP800     -0.2224
     48  O3X       10.2270   11.3400   49.8830 O.3   800  NDP800     -0.1145
@<TRIPOS>BOND
     1    18    17    1
     2    17    19    2
     3    17    16    1
     4    19    20    1
     5    16    15    2
     6    16    22    1
     7    15    14    1
     8    20    21    1
     9    22    21    2
    10    22    13    1
    11    14    13    1
    12    13    12    1
    13    47    45    2
    14    46    45    1
    15    12    10    1
    16    12     7    1
    17    45    11    1
    18    45    48    1
    19    11    10    1
    20    10     8    1
    21     7     6    1
    22     3     1    2
    23     5     6    1
    24     5     4    1
    25     6     8    1
    26     8     9    1
    27    26    24    2
    28    23     1    1
    29    23    24    1
    30     4     1    1
    31     1     2    1
    32    28    29    1
    33    28    27    1
    34    24    27    1
    35    24    25    1
    36    29    30    1
    37    29    31    1
    38    32    31    1
    39    30    35    1
    40    31    33    1
    41    34    33    1
    42    33    35    1
    43    35    36    1
    44    44    36    1
    45    44    43    2
    46    36    37    1
    47    43    42    1
    48    37    38    1
    49    42    38    2
    50    38    39    1
    51    39    40    2
    52    39    41   am
