@<TRIPOS>MOLECULE
2wow_GCG_A_1.pdb
 48 47 0 0 0
SMALL
GASTEIGER

@<TRIPOS>ATOM
      1  C1        23.6870   -9.6670   67.4700 C.2   1001  GCG1001     0.3819
      2  CA1       23.4440  -10.5570   66.2200 C.3   1001  GCG1001     0.1948
      3  O11       22.6960   -9.2120   68.0710 O.co2 1001  GCG1001    -0.2441
      4  O21       24.8740   -9.4300   67.7860 O.co2 1001  GCG1001    -0.2441
      5  CB1       23.1580   -9.6440   65.0300 C.3   1001  GCG1001     0.0402
      6  N1        22.2960  -11.4410   66.4260 N.3   1001  GCG1001    -0.1208
      7  CG1       24.4310   -8.8450   64.7440 C.3   1001  GCG1001     0.0889
      8  CD1       24.5560   -8.5460   63.2910 C.2   1001  GCG1001     0.2418
      9  OD1       23.5560   -8.1740   62.7050 O.2   1001  GCG1001    -0.2733
     10  N2        25.7530   -8.6610   62.7120 N.am  1001  GCG1001    -0.1968
     11  CA2       25.8440   -8.3560   61.2800 C.3   1001  GCG1001     0.1843
     12  C2        25.6280   -9.5170   60.2890 C.2   1001  GCG1001     0.2626
     13  O2        25.6210   -9.2610   59.0820 O.2   1001  GCG1001    -0.2714
     14  CB2       27.1520   -7.7210   60.8710 C.3   1001  GCG1001     0.0997
     15  SG2       27.1530   -5.9710   61.3960 S.3   1001  GCG1001    -0.0797
     16  N3        25.4550  -10.7490   60.7230 N.am  1001  GCG1001    -0.1940
     17  CA3       25.2610  -11.7900   59.6950 C.3   1001  GCG1001     0.2014
     18  C3        26.2760  -12.8540   59.9110 C.2   1001  GCG1001     0.2635
     19  O3        27.4590  -12.5700   60.1440 O.2   1001  GCG1001    -0.2714
     20  N1S       25.8040  -14.0910   59.8570 N.am  1001  GCG1001    -0.2039
     21  C2S       26.7530  -15.2170   59.9440 C.3   1001  GCG1001     0.1152
     22  C3S       27.2630  -15.4690   61.3330 C.3   1001  GCG1001     0.0249
     23  C4S       26.2080  -16.2490   62.0840 C.3   1001  GCG1001     0.0206
     24  C5S       26.4830  -16.4170   63.5680 C.3   1001  GCG1001     0.0888
     25  N6S       25.1730  -16.5120   64.2300 N.3   1001  GCG1001    -0.2180
     26  C7S       25.2980  -16.3240   65.6830 C.3   1001  GCG1001     0.0905
     27  C8S       24.1320  -15.4540   66.1790 C.3   1001  GCG1001     0.0422
     28  C9S       24.6480  -14.2400   66.9470 C.3   1001  GCG1001     0.1167
     29  N11       24.8060  -13.1520   65.9710 N.am  1001  GCG1001    -0.2039
     30  C5        25.1750  -11.9120   66.2870 C.2   1001  GCG1001     0.2635
     31  N5        26.8080  -12.0820   68.1800 N.am  1001  GCG1001    -0.1940
     32  CA5       25.4570  -11.6380   67.7840 C.3   1001  GCG1001     0.2014
     33  O5        25.2930  -11.0210   65.4440 O.2   1001  GCG1001    -0.2714
     34  C6        27.1820  -12.1150   69.4550 C.2   1001  GCG1001     0.2626
     35  N6        26.0830  -12.4330   71.7070 N.am  1001  GCG1001    -0.1968
     36  CA6       26.0790  -11.6810   70.4360 C.3   1001  GCG1001     0.1843
     37  O6        28.2710  -12.5250   69.8370 O.2   1001  GCG1001    -0.2714
     38  CB6       25.9160  -10.1500   70.6960 C.3   1001  GCG1001     0.0997
     39  SG6       27.3020   -8.9570   70.6250 S.3   1001  GCG1001    -0.0797
     40  CD7       27.1280  -12.8780   72.3870 C.2   1001  GCG1001     0.2418
     41  C7        26.6690  -16.0810   75.2600 C.2   1001  GCG1001     0.3819
     42  CA7       26.4440  -16.0720   73.7250 C.3   1001  GCG1001     0.1948
     43  O17       26.3030  -17.1080   75.8780 O.co2 1001  GCG1001    -0.2441
     44  O27       27.2040  -15.0820   75.7880 O.co2 1001  GCG1001    -0.2441
     45  CB7       25.8340  -14.7550   73.2720 C.3   1001  GCG1001     0.0402
     46  N7        25.4980  -17.1100   73.3160 N.3   1001  GCG1001    -0.1208
     47  CG7       26.7280  -13.5940   73.6500 C.3   1001  GCG1001     0.0889
     48  OD7       28.3150  -12.7650   72.0760 O.2   1001  GCG1001    -0.2733
@<TRIPOS>BOND
     1    13    12    2
     2    17    18    1
     3    17    16    1
     4    20    18   am
     5    20    21    1
     6    18    19    2
     7    21    22    1
     8    12    16   am
     9    12    11    1
    10    14    11    1
    11    14    15    1
    12    11    10    1
    13    22    23    1
    14    23    24    1
    15     9     8    2
    16    10     8   am
    17     8     7    1
    18    24    25    1
    19    25    26    1
    20     7     5    1
    21     5     2    1
    22    33    30    2
    23    26    27    1
    24    29    30   am
    25    29    28    1
    26    27    28    1
    27     2     6    1
    28     2     1    1
    29    30    32    1
    30     1     4   ar
    31     1     3   ar
    32    32    31    1
    33    31    34   am
    34    34    37    2
    35    34    36    1
    36    36    38    1
    37    36    35    1
    38    39    38    1
    39    35    40   am
    40    48    40    2
    41    40    47    1
    42    45    47    1
    43    45    42    1
    44    46    42    1
    45    42    41    1
    46    41    44   ar
    47    41    43   ar
