@<TRIPOS>MOLECULE
2wow_NDP_A_1.pdb
 48 52 0 0 0
SMALL
GASTEIGER

@<TRIPOS>ATOM
      1  PA        16.2220    7.0810   51.6690 P.3   800  NDP800      0.2189
      2  O1A       15.9590    6.6680   53.0940 O.3   800  NDP800     -0.4371
      3  O2A       15.5040    6.3040   50.5840 O.2   800  NDP800     -0.5170
      4  O5B       15.9530    8.6660   51.4970 O.3   800  NDP800     -0.3112
      5  C5B       16.3770    9.3430   50.3540 C.3   800  NDP800      0.1813
      6  C4B       16.0020   10.8060   50.5680 C.3   800  NDP800      0.1820
      7  O4B       16.3900   11.6330   49.4740 O.3   800  NDP800     -0.3136
      8  C3B       14.4890   11.0940   50.7280 C.3   800  NDP800      0.2157
      9  O3B       14.4320   12.3320   51.4440 O.3   800  NDP800     -0.2175
     10  C2B       14.0830   11.2770   49.2620 C.3   800  NDP800      0.2314
     11  O2B       12.9990   12.2280   49.1220 O.3   800  NDP800     -0.2630
     12  C1B       15.2830   12.0330   48.7300 C.3   800  NDP800      0.3158
     13  N9A       15.5810   11.9180   47.2400 N.pl3 800  NDP800     -0.1439
     14  C8A       15.4130   10.8440   46.4470 C.3   800  NDP800      0.3377
     15  N7A       15.7850   11.1790   45.2000 N.2   800  NDP800     -0.2095
     16  C5A       16.2000   12.4580   45.2140 C.2   800  NDP800      0.2526
     17  C6A       16.6610   13.2980   44.2420 C.2   800  NDP800      0.4393
     18  N6A       16.8340   12.8580   42.9820 N.pl3 800  NDP800      0.2180
     19  N1A       16.9770   14.5390   44.5850 N.2   800  NDP800      0.0021
     20  C2A       16.8490   14.9830   45.8260 C.3   800  NDP800      0.5254
     21  N3A       16.3950   14.2200   46.8130 N.2   800  NDP800     -0.0055
     22  C4A       16.0620   12.9360   46.5090 C.2   800  NDP800      0.3518
     23  O3        17.8310    6.9400   51.2990 O.3   800  NDP800     -0.2703
     24  PN        19.1220    6.9790   52.2810 P.3   800  NDP800      0.2189
     25  O1N       18.7860    8.0160   53.5500 O.3   800  NDP800     -0.4371
     26  O2N       20.2710    7.4240   51.3910 O.2   800  NDP800     -0.5170
     27  O5D       19.2990    5.4380   52.8140 O.3   800  NDP800     -0.3112
     28  C5D       18.9230    4.3280   51.9220 C.3   800  NDP800      0.1813
     29  C4D       18.3170    3.1500   52.6750 C.3   800  NDP800      0.1799
     30  O4D       19.3450    2.3280   53.4190 O.3   800  NDP800     -0.3327
     31  C3D       17.3520    3.6390   53.7780 C.3   800  NDP800      0.2158
     32  O3D       16.0410    3.9760   53.2730 O.3   800  NDP800     -0.2175
     33  C2D       17.3100    2.4220   54.7200 C.3   800  NDP800      0.2309
     34  O2D       16.6090    1.3540   54.1380 O.3   800  NDP800     -0.2158
     35  C1D       18.7890    1.9940   54.7880 C.3   800  NDP800      0.2263
     36  N1N       19.2720    2.7280   56.0400 N.pl3 800  NDP800     -0.2787
     37  C2N       18.8130    2.3010   57.3020 C.3   800  NDP800      0.1244
     38  C3N       19.2520    2.9520   58.4580 C.2   800  NDP800      0.0544
     39  C7N       18.6870    2.4360   59.7260 C.2   800  NDP800      0.2818
     40  O7N       17.8790    1.4970   59.6400 O.2   800  NDP800     -0.2670
     41  N7N       19.0780    3.0880   60.8570 N.am  800  NDP800     -0.0839
     42  C4N       20.2590    4.1280   58.4300 C.2   800  NDP800      0.0033
     43  C5N       20.6480    4.4490   57.1270 C.2   800  NDP800      0.0157
     44  C6N       20.1960    3.7660   55.9840 C.2   800  NDP800      0.0633
     45  P2B       11.4920   11.7240   48.8380 P.3   800  NDP800      0.5328
     46  O1X       10.8430   12.9640   48.0640 O.3   800  NDP800     -0.1145
     47  O2X       11.5400   10.6140   47.7900 O.2   800  NDP800     -0.2224
     48  O3X       10.7450   11.4280   50.0460 O.3   800  NDP800     -0.1145
@<TRIPOS>BOND
     1    18    17    1
     2    17    19    2
     3    17    16    1
     4    19    20    1
     5    15    16    2
     6    15    14    1
     7    16    22    1
     8    20    21    1
     9    14    13    1
    10    22    21    2
    11    22    13    1
    12    13    12    1
    13    47    45    2
    14    46    45    1
    15    12    10    1
    16    12     7    1
    17    45    11    1
    18    45    48    1
    19    11    10    1
    20    10     8    1
    21     7     6    1
    22     5     6    1
    23     5     4    1
    24     6     8    1
    25     3     1    2
    26     8     9    1
    27    23     1    1
    28    23    24    1
    29    26    24    2
    30     4     1    1
    31     1     2    1
    32    28    29    1
    33    28    27    1
    34    24    27    1
    35    24    25    1
    36    29    30    1
    37    29    31    1
    38    32    31    1
    39    30    35    1
    40    31    33    1
    41    34    33    1
    42    33    35    1
    43    35    36    1
    44    44    36    1
    45    44    43    2
    46    36    37    1
    47    43    42    1
    48    37    38    1
    49    42    38    2
    50    38    39    1
    51    40    39    2
    52    39    41   am
