@<TRIPOS>MOLECULE
2wox_NDP_A_1.pdb
 48 52 0 0 0
SMALL
GASTEIGER

@<TRIPOS>ATOM
      1  PA        67.1420  -12.7870  -31.6010 P.3   1491  NDP1491     0.2189
      2  O1A       66.8050  -13.2460  -30.2090 O.3   1491  NDP1491    -0.4371
      3  O2A       66.9660  -13.7300  -32.7680 O.2   1491  NDP1491    -0.5170
      4  O5B       68.6590  -12.2480  -31.6710 O.3   1491  NDP1491    -0.3112
      5  C5B       69.4720  -11.9110  -30.5460 C.3   1491  NDP1491     0.1813
      6  C4B       70.8610  -11.6080  -31.1030 C.3   1491  NDP1491     0.1820
      7  O4B       71.4080  -12.7830  -31.7140 O.3   1491  NDP1491    -0.3136
      8  C3B       70.7950  -10.5580  -32.2010 C.3   1491  NDP1491     0.2157
      9  O3B       71.9680   -9.7380  -32.1540 O.3   1491  NDP1491    -0.2175
     10  C2B       70.8460  -11.3530  -33.4800 C.3   1491  NDP1491     0.2314
     11  O2B       71.4490  -10.5770  -34.4990 O.3   1491  NDP1491    -0.2630
     12  C1B       71.7320  -12.5170  -33.0840 C.3   1491  NDP1491     0.3158
     13  N9A       71.4940  -13.7350  -33.8900 N.pl3 1491  NDP1491    -0.1439
     14  C8A       70.3580  -14.0360  -34.5320 C.3   1491  NDP1491     0.3377
     15  N7A       70.5100  -15.2240  -35.1620 N.2   1491  NDP1491    -0.2095
     16  C5A       71.7590  -15.6560  -34.9100 C.2   1491  NDP1491     0.2526
     17  C6A       72.4570  -16.7830  -35.2880 C.2   1491  NDP1491     0.4393
     18  N6A       71.8450  -17.7000  -36.0680 N.pl3 1491  NDP1491     0.2180
     19  N1A       73.7350  -16.9510  -34.8740 N.2   1491  NDP1491     0.0021
     20  C2A       74.3230  -16.0270  -34.0990 C.3   1491  NDP1491     0.5254
     21  N3A       73.6610  -14.9230  -33.7200 N.2   1491  NDP1491    -0.0055
     22  C4A       72.3780  -14.7160  -34.1090 C.2   1491  NDP1491     0.3518
     23  O3        66.3120  -11.4530  -31.9550 O.3   1491  NDP1491    -0.2703
     24  PN        64.9380  -11.0650  -31.2120 P.3   1491  NDP1491     0.2189
     25  O1N       64.2040  -12.3360  -30.8530 O.3   1491  NDP1491    -0.4371
     26  O2N       64.2790  -10.0080  -32.0660 O.2   1491  NDP1491    -0.5170
     27  O5D       65.4820  -10.3720  -29.8600 O.3   1491  NDP1491    -0.3112
     28  C5D       64.5980  -10.1100  -28.7700 C.3   1491  NDP1491     0.1813
     29  C4D       64.7330  -11.1550  -27.6870 C.3   1491  NDP1491     0.1799
     30  O4D       65.8510  -11.1930  -26.7390 O.3   1491  NDP1491    -0.3327
     31  C3D       63.5040  -11.6620  -26.8080 C.3   1491  NDP1491     0.2158
     32  O3D       63.4080  -13.0710  -26.9520 O.3   1491  NDP1491    -0.2175
     33  C2D       63.9240  -11.3030  -25.3850 C.3   1491  NDP1491     0.2309
     34  O2D       63.2670  -12.2110  -24.4610 O.3   1491  NDP1491    -0.2158
     35  C1D       65.4510  -11.5590  -25.4320 C.3   1491  NDP1491     0.2261
     36  N1N       65.9200  -11.2770  -24.1680 N.pl3 1491  NDP1491    -0.2828
     37  C2N       66.0750   -9.9050  -23.7390 C.3   1491  NDP1491     0.1025
     38  C3N       66.5900   -9.8490  -22.3000 C.3   1491  NDP1491     0.1040
     39  C7N       66.5960   -8.4450  -21.7050 C.2   1491  NDP1491     0.2623
     40  O7N       66.1410   -8.2530  -20.5820 O.2   1491  NDP1491    -0.2716
     41  N7N       66.9550   -7.4200  -22.5360 N.am  1491  NDP1491    -0.0877
     42  C4N       67.9830  -10.5090  -22.2070 C.3   1491  NDP1491     0.0383
     43  C5N       67.9540  -11.8390  -22.9760 C.2   1491  NDP1491    -0.0098
     44  C6N       66.9490  -12.1570  -23.8180 C.2   1491  NDP1491     0.0584
     45  P2B       70.5420   -9.6750  -35.4810 P.3   1491  NDP1491     0.5328
     46  O1X       70.4830  -10.5200  -36.7340 O.2   1491  NDP1491    -0.2224
     47  O2X       69.2210   -9.4630  -34.7730 O.3   1491  NDP1491    -0.1145
     48  O3X       71.3690   -8.4260  -35.5870 O.3   1491  NDP1491    -0.1145
@<TRIPOS>BOND
     1    46    45    2
     2    18    17    1
     3    48    45    1
     4    45    47    1
     5    45    11    1
     6    17    16    1
     7    17    19    2
     8    15    16    2
     9    15    14    1
    10    16    22    1
    11    19    20    1
    12    14    13    1
    13    11    10    1
    14    22    13    1
    15    22    21    2
    16    20    21    1
    17    13    12    1
    18    10    12    1
    19    10     8    1
    20    12     7    1
    21     3     1    2
    22     8     9    1
    23     8     6    1
    24    26    24    2
    25    23     1    1
    26    23    24    1
    27     7     6    1
    28     4     1    1
    29     4     5    1
    30     1     2    1
    31    24    25    1
    32    24    27    1
    33     6     5    1
    34    27    28    1
    35    28    29    1
    36    29    31    1
    37    29    30    1
    38    32    31    1
    39    31    33    1
    40    30    35    1
    41    35    33    1
    42    35    36    1
    43    33    34    1
    44    36    44    1
    45    36    37    1
    46    44    43    2
    47    37    38    1
    48    43    42    1
    49    41    39   am
    50    38    42    1
    51    38    39    1
    52    39    40    2
