@<TRIPOS>MOLECULE
2wp5_WP5_A_1.pdb
 23 25 0 0 0
SMALL
GASTEIGER

@<TRIPOS>ATOM
      1  CAP      -22.0750  -30.2190   64.5950 C.3   1000  WP51000     0.2557
      2  OAO      -21.6650  -31.6230   64.3640 O.3   1000  WP51000    -0.4432
      3  C        -22.6430  -32.2850   63.6830 C.2   1000  WP51000     0.3376
      4  O        -23.6070  -32.7470   64.3030 O.2   1000  WP51000    -0.2482
      5  CA       -22.5450  -32.4610   62.1640 C.3   1000  WP51000     0.2040
      6  N        -23.4700  -31.5310   61.4430 N.pl3 1000  WP51000    -0.2712
      7  CAU      -24.8840  -31.8110   61.3740 C.2   1000  WP51000     0.1612
      8  CAW      -25.5270  -33.0490   62.0210 C.3   1000  WP51000     0.0837
      9  NAT      -25.7250  -30.9700   60.6320 N.2   1000  WP51000    -0.3917
     10  CAS      -25.2420  -29.7570   60.0710 C.2   1000  WP51000     0.1299
     11  CAR      -26.1540  -28.8460   59.5360 C.2   1000  WP51000     0.0284
     12  CAQ      -25.7030  -27.6560   59.0070 C.2   1000  WP51000    -0.0081
     13  CAH      -24.3520  -27.3140   59.0300 C.3   1000  WP51000     0.1008
     14 BRA       -23.8060  -25.6300   58.2890 Br    1000  WP51000    -0.0720
     15  CAI      -23.4310  -28.1940   59.5930 C.2   1000  WP51000    -0.0105
     16  CAJ      -23.8800  -29.4120   60.1110 C.2   1000  WP51000     0.0264
     17  CAK      -22.8510  -30.3720   60.7120 C.3   1000  WP51000     0.1225
     18  CAE      -21.9380  -30.9060   59.5700 C.ar  1000  WP51000    -0.0000
     19  CAF      -22.4180  -31.7260   58.5590 C.ar  1000  WP51000    -0.0023
     20  CAC      -21.5780  -32.2240   57.5490 C.ar  1000  WP51000    -0.0003
     21  CAB      -20.2300  -31.9290   57.5230 C.ar  1000  WP51000    -0.0000
     22  CAA      -19.7370  -31.0980   58.5170 C.ar  1000  WP51000    -0.0003
     23  CAD      -20.5800  -30.5890   59.5280 C.ar  1000  WP51000    -0.0023
@<TRIPOS>BOND
     1    21    20   ar
     2    21    22   ar
     3    20    19   ar
     4    14    13    1
     5    22    23   ar
     6    19    18   ar
     7    12    13    1
     8    12    11    2
     9    13    15    1
    10    23    18   ar
    11    11    10    1
    12    18    17    1
    13    15    16    2
    14    10    16    1
    15    10     9    2
    16    16    17    1
    17     9     7    2
    18    17     6    1
    19     7     6    1
    20     7     8    1
    21     6     5    1
    22     5     3    1
    23     3     4    2
    24     3     2    1
    25     2     1    1
