@<TRIPOS>MOLECULE
2wp6_WP6_A_1.pdb
 25 28 0 0 0
SMALL
GASTEIGER

@<TRIPOS>ATOM
      1  CAD      -20.0540  -30.4720   60.0150 C.ar  1000  WP61000    -0.0023
      2  CAA      -19.2810  -31.0460   58.9800 C.ar  1000  WP61000    -0.0003
      3  CAB      -19.8700  -31.8490   58.0060 C.ar  1000  WP61000    -0.0000
      4  CAC      -21.2530  -32.0660   58.1000 C.ar  1000  WP61000    -0.0003
      5  CAF      -22.0150  -31.5170   59.1450 C.ar  1000  WP61000    -0.0023
      6  CAE      -21.4300  -30.7050   60.1190 C.ar  1000  WP61000    -0.0000
      7  CAM      -22.2900  -30.0960   61.2730 C.3   1000  WP61000     0.1223
      8  CAL      -23.3470  -29.2190   60.6080 C.2   1000  WP61000     0.0268
      9  CAK      -22.9610  -28.0130   60.0310 C.2   1000  WP61000    -0.0057
     10  CAJ      -23.9360  -27.2190   59.4080 C.3   1000  WP61000     0.1236
     11 CL        -23.4840  -25.7120   58.6730 Cl    1000  WP61000    -0.1054
     12  CAR      -25.2740  -27.6270   59.3460 C.2   1000  WP61000    -0.0033
     13  CAS      -25.6670  -28.8450   59.9070 C.2   1000  WP61000     0.0288
     14  CAT      -24.6920  -29.6450   60.5240 C.2   1000  WP61000     0.1299
     15  NAU      -25.1120  -30.8480   61.1600 N.2   1000  WP61000    -0.3917
     16  CAV      -24.2500  -31.6050   61.9660 C.2   1000  WP61000     0.1611
     17  CAW      -24.8370  -32.8000   62.7630 C.3   1000  WP61000     0.0837
     18  NAN      -22.8880  -31.2380   62.0530 N.pl3 1000  WP61000    -0.2769
     19  CAO      -22.0310  -32.1030   62.8830 C.3   1000  WP61000     0.1201
     20  CAP      -21.9550  -31.6400   64.3270 C.ar  1000  WP61000    -0.0023
     21  CAX      -22.1010  -30.2830   64.6650 C.ar  1000  WP61000    -0.0026
     22  CAY      -22.0300  -29.8600   65.9960 C.ar  1000  WP61000    -0.0003
     23  CAQ      -21.8000  -30.8380   66.9850 C.ar  1000  WP61000    -0.0000
     24  CAH      -21.6430  -32.2030   66.6560 C.ar  1000  WP61000    -0.0003
     25  CAG      -21.7200  -32.6070   65.3190 C.ar  1000  WP61000    -0.0026
@<TRIPOS>BOND
     1     3     4   ar
     2     3     2   ar
     3     4     5   ar
     4    11    10    1
     5     2     1   ar
     6     5     6   ar
     7    12    10    1
     8    12    13    2
     9    10     9    1
    10    13    14    1
    11     1     6   ar
    12     9     8    2
    13     6     7    1
    14    14     8    1
    15    14    15    2
    16     8     7    1
    17    15    16    2
    18     7    18    1
    19    16    18    1
    20    16    17    1
    21    18    19    1
    22    19    20    1
    23    20    21   ar
    24    20    25   ar
    25    21    22   ar
    26    25    24   ar
    27    22    23   ar
    28    24    23   ar
