@<TRIPOS>MOLECULE
2wp9_HEM_C_1.pdb
 43 50 0 0 0
SMALL
GASTEIGER

@<TRIPOS>ATOM
      1  CHA       55.6500  -14.3320  -34.4440 C.2   1129  HEM1129     0.0000
      2  CHB       59.7240  -13.0840  -36.8940 C.2   1129  HEM1129     0.0000
      3  CHC       62.5120  -14.4920  -33.1520 C.2   1129  HEM1129     0.0000
      4  CHD       58.4350  -14.8070  -30.4890 C.2   1129  HEM1129     0.0000
      5  C1A       56.5430  -13.8820  -35.4140 C.ar  1129  HEM1129     0.0000
      6  C2A       56.1380  -13.3550  -36.7030 C.ar  1129  HEM1129     0.0000
      7  C3A       57.2530  -13.0090  -37.3840 C.ar  1129  HEM1129     0.0000
      8  C4A       58.4090  -13.3050  -36.5430 C.ar  1129  HEM1129     0.0000
      9  CMA       57.3210  -12.3900  -38.8020 C.3   1129  HEM1129     0.0000
     10  CAA       54.6610  -13.2300  -37.1580 C.3   1129  HEM1129     0.0000
     11  CBA       54.1220  -11.8600  -36.7650 C.3   1129  HEM1129     0.0000
     12  CGA       52.6250  -11.8220  -36.6040 C.2   1129  HEM1129     0.0000
     13  O1A       52.1700  -10.7160  -36.2210 O.co2 1129  HEM1129     0.0000
     14  O2A       51.9140  -12.8510  -36.8320 O.co2 1129  HEM1129     0.0000
     15  C1B       60.8470  -13.3680  -36.1410 C.2   1129  HEM1129     0.0000
     16  C2B       62.2380  -13.2390  -36.5520 C.2   1129  HEM1129     0.0000
     17  C3B       63.0050  -13.6380  -35.5420 C.2   1129  HEM1129     0.0000
     18  C4B       62.1510  -14.0230  -34.4160 C.2   1129  HEM1129     0.0000
     19  CMB       62.7880  -12.7600  -37.9040 C.3   1129  HEM1129     0.0000
     20  CAB       64.5510  -13.6190  -35.6520 C.2   1129  HEM1129     0.0000
     21  CBB       65.3370  -14.3130  -34.8320 C.2   1129  HEM1129     0.0000
     22  C1C       61.6470  -14.6790  -32.0730 C.ar  1129  HEM1129     0.0000
     23  C2C       62.0010  -15.0320  -30.6880 C.ar  1129  HEM1129     0.0000
     24  C3C       60.8610  -15.0970  -29.9950 C.ar  1129  HEM1129     0.0000
     25  C4C       59.7500  -14.8160  -30.8750 C.ar  1129  HEM1129     0.0000
     26  CMC       63.3880  -15.2840  -30.0370 C.3   1129  HEM1129     0.0000
     27  CAC       60.7480  -15.4520  -28.5070 C.2   1129  HEM1129     0.0000
     28  CBC       60.0820  -14.6300  -27.7240 C.2   1129  HEM1129     0.0000
     29  C1D       57.3380  -14.9370  -31.3020 C.2   1129  HEM1129     0.0000
     30  C2D       56.0970  -15.5800  -30.9750 C.2   1129  HEM1129     0.0000
     31  C3D       55.1970  -15.4260  -32.1840 C.2   1129  HEM1129     0.0000
     32  C4D       55.9880  -14.7010  -33.1570 C.2   1129  HEM1129     0.0000
     33  CMD       55.6870  -16.2860  -29.6840 C.3   1129  HEM1129     0.0000
     34  CAD       53.8030  -16.0810  -32.2240 C.3   1129  HEM1129     0.0000
     35  CBD       52.5780  -15.2260  -32.3940 C.3   1129  HEM1129     0.0000
     36  CGD       51.6800  -16.0330  -33.3110 C.2   1129  HEM1129     0.0000
     37  O1D       51.0000  -15.2830  -34.0850 O.co2 1129  HEM1129     0.0000
     38  O2D       51.6870  -17.3280  -33.2710 O.co2 1129  HEM1129     0.0000
     39  NA        57.9510  -13.8380  -35.3500 N.ar  1129  HEM1129     0.0000
     40  NB        60.8360  -13.8440  -34.8430 N.2   1129  HEM1129     0.0000
     41  NC        60.2510  -14.5640  -32.1240 N.ar  1129  HEM1129     0.0000
     42  ND        57.2350  -14.4380  -32.5810 N.2   1129  HEM1129     0.0000
     43 FE         59.0730  -14.2320  -33.6560 Fe    1129  HEM1129     0.0000
@<TRIPOS>BOND
     1     9     7    1
     2    19    16    1
     3     7     6   ar
     4     7     8   ar
     5    10    11    1
     6    10     6    1
     7     2     8    2
     8     2    15    1
     9    14    12   ar
    10    11    12    1
    11     6     5   ar
    12    12    13   ar
    13    16    15    1
    14    16    17    2
    15     8    39   ar
    16    15    40    2
    17    20    17    1
    18    20    21    2
    19    17    18    1
    20     5    39   ar
    21     5     1    2
    22    39    43    1
    23    40    18    1
    24    40    43    1
    25     1    32    1
    26    18     3    2
    27    37    36   ar
    28    43    42    1
    29    43    41    1
    30    36    38   ar
    31    36    35    1
    32    32    42    2
    33    32    31    1
    34     3    22    1
    35    42    29    1
    36    35    34    1
    37    34    31    1
    38    31    30    2
    39    41    22   ar
    40    41    25   ar
    41    22    23   ar
    42    29    30    1
    43    29     4    2
    44    30    33    1
    45    25     4    1
    46    25    24   ar
    47    23    26    1
    48    23    24   ar
    49    24    27    1
    50    27    28    2
