@<TRIPOS>MOLECULE
2wp9_CBE_C_1.pdb
 16 17 0 0 0
SMALL
GASTEIGER

@<TRIPOS>ATOM
      1  C1        45.9500   -9.4250  -37.1890 C.3   1130  CBE1130     0.0725
      2  C2        47.1000   -9.1870  -36.2340 C.2   1130  CBE1130     0.1265
      3  C3        47.5130   -7.8700  -35.9740 C.2   1130  CBE1130     0.1105
      4  S4        48.8020   -7.5160  -34.8670 S.3   1130  CBE1130    -0.1026
      5  C5        48.9860   -9.1420  -34.0450 C.3   1130  CBE1130     0.1096
      6  C6        49.0280  -10.2200  -35.1120 C.3   1130  CBE1130     0.2169
      7  O7        47.6920  -10.3110  -35.6730 O.2   1130  CBE1130    -0.4781
      8  C8        46.8010   -6.6320  -36.4950 C.2   1130  CBE1130     0.2773
      9  O9        46.6520   -6.4350  -37.6980 O.2   1130  CBE1130    -0.2674
     10  N10       46.8240   -5.6490  -35.5960 N.am  1130  CBE1130    -0.1750
     11  C11       46.3650   -4.4260  -35.9140 C.ar  1130  CBE1130     0.0737
     12  C12       45.8840   -3.5730  -34.8970 C.ar  1130  CBE1130     0.0166
     13  C13       45.3910   -2.3140  -35.2420 C.ar  1130  CBE1130     0.0013
     14  C14       45.4110   -1.8960  -36.5820 C.ar  1130  CBE1130     0.0001
     15  C15       45.9160   -2.7450  -37.5800 C.ar  1130  CBE1130     0.0013
     16  C16       46.3800   -4.0240  -37.2540 C.ar  1130  CBE1130     0.0166
@<TRIPOS>BOND
     1     9     8    2
     2    15    16   ar
     3    15    14   ar
     4    16    11   ar
     5     1     2    1
     6    14    13   ar
     7     8     3    1
     8     8    10   am
     9     2     3    2
    10     2     7    1
    11     3     4    1
    12    11    10    1
    13    11    12   ar
    14     7     6    1
    15    13    12   ar
    16     6     5    1
    17     4     5    1
