@<TRIPOS>MOLECULE
2wpa_889_A_1.pdb
 26 28 0 0 0
SMALL
GASTEIGER

@<TRIPOS>ATOM
      1  O26      -15.9880  206.3540  114.0880 O.2   1301  8891301    -0.2745
      2  C25      -14.9070  206.8760  114.3700 C.2   1301  8891301     0.2292
      3  C14      -14.4910  207.0770  115.8640 C.3   1301  8891301     0.0798
      4  C20      -14.8150  208.5470  116.3300 C.3   1301  8891301     0.0265
      5  C19      -14.4070  208.8460  117.8080 C.3   1301  8891301     0.0726
      6  N17      -15.1010  207.7610  118.7960 N.3   1301  8891301    -0.2715
      7  C18      -14.7170  208.0270  120.1370 C.3   1301  8891301     0.0896
      8  C16      -14.8050  206.3440  118.3020 C.3   1301  8891301     0.0726
      9  C15      -15.2390  206.1370  116.8460 C.3   1301  8891301     0.0265
     10  N24      -14.0060  207.3120  113.3690 N.am  1301  8891301    -0.2551
     11  C1       -12.7280  207.9500  113.6640 C.2   1301  8891301     0.0767
     12  C21      -14.2950  207.1690  111.8890 C.3   1301  8891301     0.1036
     13  C22      -15.5020  207.9220  111.3960 C.3   1301  8891301     0.0265
     14  C23      -14.4300  205.6920  111.5120 C.3   1301  8891301     0.0265
     15  C3       -13.0440  207.8030  111.3540 C.2   1301  8891301     0.1303
     16  N4       -12.5440  208.0710  110.1190 N.2   1301  8891301    -0.0366
     17  N5       -11.3160  208.7180  110.3090 N.2   1301  8891301     0.0844
     18  C6       -11.1160  208.8140  111.5900 C.2   1301  8891301     0.3976
     19  C2       -12.2170  208.2200  112.3330 C.2   1301  8891301     0.1223
     20  N7       -10.0440  209.4350  112.1840 N.am  1301  8891301     0.0340
     21  C8        -9.2720  209.0490  113.2270 C.2   1301  8891301     0.3525
     22  O13       -9.3910  208.0150  113.8270 O.2   1301  8891301    -0.2429
     23  C9        -8.2970  210.1290  113.6760 C.3   1301  8891301     0.1167
     24  C10       -7.3950  209.9080  114.8800 C.3   1301  8891301     0.0117
     25  C12       -6.3270  208.9190  114.4830 C.3   1301  8891301     0.0006
     26  C11       -6.6640  211.1690  115.2020 C.3   1301  8891301     0.0006
@<TRIPOS>BOND
     1    16    17    1
     2    16    15    2
     3    17    18    2
     4    15    12    1
     5    15    19    1
     6    13    12    1
     7    14    12    1
     8    18    20    1
     9    18    19    1
    10    12    10    1
    11    20    21   am
    12    19    11    2
    13    21    23    1
    14    21    22    2
    15    10    11    1
    16    10     2   am
    17    23    24    1
    18     1     2    2
    19     2     3    1
    20    25    24    1
    21    24    26    1
    22     3     4    1
    23     3     9    1
    24     4     5    1
    25     9     8    1
    26     5     6    1
    27     8     6    1
    28     6     7    1
