@<TRIPOS>MOLECULE
2wpb_ZZI_A_1.pdb
 15 14 0 0 0
SMALL
GASTEIGER

@<TRIPOS>ATOM
      1  CAA        4.5120  -12.6610   27.5690 C.3   1298  ZZI1298     0.0018
      2  CAB        4.6290  -11.4100   28.4740 C.3   1298  ZZI1298     0.0215
      3  CAC        4.4550  -11.6820   29.9860 C.3   1298  ZZI1298     0.0935
      4  NAH        4.1590  -10.4850   30.8390 N.am  1298  ZZI1298    -0.2774
      5  CAG        4.3540   -9.1070   30.2970 C.3   1298  ZZI1298     0.0935
      6  CAF        5.3390   -8.2580   31.1160 C.3   1298  ZZI1298     0.0215
      7  CAE        6.7620   -8.8290   31.0350 C.3   1298  ZZI1298     0.0018
      8  CAI        3.6600  -10.7050   32.0760 C.2   1298  ZZI1298     0.2588
      9  OAD        3.4760  -11.8310   32.5260 O.2   1298  ZZI1298    -0.2720
     10  CAJ        3.3580   -9.5030   32.9890 C.3   1298  ZZI1298     0.2601
     11  OAN        3.7640   -9.7730   34.3670 O.3   1298  ZZI1298    -0.2104
     12  CAK        1.8770   -9.0980   32.8830 C.3   1298  ZZI1298     0.2238
     13  OAO        1.7160   -8.5080   31.5990 O.3   1298  ZZI1298    -0.2170
     14  CAL        1.4980   -8.0660   33.9490 C.3   1298  ZZI1298     0.2179
     15  OAM        2.2510   -6.8610   33.7640 O.3   1298  ZZI1298    -0.2175
@<TRIPOS>BOND
     1     1     2    1
     2     2     3    1
     3     3     4    1
     4     5     4    1
     5     5     6    1
     6     4     8   am
     7     7     6    1
     8    13    12    1
     9     8     9    2
    10     8    10    1
    11    12    10    1
    12    12    14    1
    13    10    11    1
    14    15    14    1
