@<TRIPOS>MOLECULE
2wpc_WP7_A_1.pdb
 33 37 0 0 0
SMALL
GASTEIGER

@<TRIPOS>ATOM
      1  CAD      -23.2330  -31.5430   58.5720 C.ar  1000  WP71000    -0.0023
      2  CAA      -22.3280  -32.1600   57.6710 C.ar  1000  WP71000    -0.0003
      3  CAB      -20.9810  -31.8340   57.7520 C.ar  1000  WP71000    -0.0000
      4  CAC      -20.5810  -30.9040   58.7250 C.ar  1000  WP71000    -0.0003
      5  CAF      -21.4760  -30.2820   59.6190 C.ar  1000  WP71000    -0.0023
      6  CAE      -22.8360  -30.6070   59.5300 C.ar  1000  WP71000    -0.0000
      7  CAN      -23.8600  -29.9920   60.5140 C.3   1000  WP71000     0.1221
      8  CAM      -24.7710  -29.0330   59.8100 C.2   1000  WP71000     0.0265
      9  CAL      -24.2460  -27.8600   59.3670 C.2   1000  WP71000     0.0109
     10  CAK      -25.1040  -26.9780   58.7420 C.2   1000  WP71000     0.0537
     11 CLA       -24.5540  -25.4740   58.1330 Cl    1000  WP71000    -0.0826
     12  CAX      -26.4090  -27.2570   58.5460 C.2   1000  WP71000    -0.0073
     13  CAY      -26.9430  -28.4290   59.0140 C.3   1000  WP71000     0.0856
     14  CAZ      -26.1220  -29.3380   59.6330 C.2   1000  WP71000     0.1125
     15  NBA      -26.7050  -30.5460   60.1270 N.2   1000  WP71000    -0.3957
     16  CBB      -25.9720  -31.4100   60.8410 C.2   1000  WP71000     0.1605
     17  CBC      -26.6960  -32.6490   61.4390 C.3   1000  WP71000     0.0836
     18  NAO      -24.6120  -31.1320   61.1040 N.pl3 1000  WP71000    -0.2796
     19  CAP      -23.8240  -32.1300   61.8840 C.3   1000  WP71000     0.1107
     20  CAQ      -23.6680  -31.5560   63.2790 C.3   1000  WP71000     0.0939
     21  NAR      -23.1440  -32.6420   64.0730 N.3   1000  WP71000    -0.2683
     22  CAG      -21.7620  -32.5160   64.5820 C.3   1000  WP71000     0.0940
     23  CAH      -21.2630  -33.8280   65.2850 C.3   1000  WP71000     0.1111
     24  CBD      -24.0940  -32.8890   65.1510 C.3   1000  WP71000     0.0940
     25  CBE      -23.8620  -34.3440   65.6390 C.3   1000  WP71000     0.1111
     26  NAS      -22.3960  -34.7640   65.7120 N.am  1000  WP71000    -0.2707
     27  CAT      -22.1160  -36.0330   66.1470 C.2   1000  WP71000     0.2838
     28  OAI      -20.9410  -36.4030   66.2080 O.2   1000  WP71000    -0.2666
     29  CAU      -23.2200  -37.0330   66.6160 C.ar  1000  WP71000     0.1987
     30  CBF      -23.9510  -37.8390   65.8350 C.ar  1000  WP71000     0.0455
     31  CBG      -24.7700  -38.5460   66.6270 C.ar  1000  WP71000     0.0440
     32  CAW      -24.5740  -38.2110   67.9100 C.ar  1000  WP71000     0.1798
     33  OAV      -23.5800  -37.2420   67.9380 O.2   1000  WP71000    -0.4458
@<TRIPOS>BOND
     1     2     3   ar
     2     2     1   ar
     3     3     4   ar
     4    11    10    1
     5    12    10    2
     6    12    13    1
     7     1     6   ar
     8     4     5   ar
     9    10     9    1
    10    13    14    1
    11     9     8    2
    12     6     5   ar
    13     6     7    1
    14    14     8    1
    15    14    15    2
    16     8     7    1
    17    15    16    2
    18     7    18    1
    19    16    18    1
    20    16    17    1
    21    18    19    1
    22    19    20    1
    23    20    21    1
    24    21    22    1
    25    21    24    1
    26    22    23    1
    27    24    25    1
    28    23    26    1
    29    25    26    1
    30    26    27   am
    31    30    29   ar
    32    30    31   ar
    33    27    28    2
    34    27    29    1
    35    29    33   ar
    36    31    32   ar
    37    32    33   ar
