@<TRIPOS>MOLECULE
2wpd_ADP_D_1.pdb
 27 29 0 0 0
SMALL
GASTEIGER

@<TRIPOS>ATOM
      1  PB         5.9910   -2.4300   -7.2020 P.3   600  ADP600      0.5373
      2  O1B        5.3480   -3.7910   -7.2770 O.2   600  ADP600     -0.2221
      3  O2B        5.0460   -1.2940   -6.8970 O.3   600  ADP600     -0.1143
      4  O3B        7.2740   -2.3840   -6.4100 O.3   600  ADP600     -0.1143
      5  PA         5.4670   -1.7300   -9.8990 P.3   600  ADP600      0.2231
      6  O1A        5.2230   -2.9200  -10.7960 O.2   600  ADP600     -0.5169
      7  O2A        4.2920   -0.9600   -9.3420 O.3   600  ADP600     -0.4370
      8  O3A        6.4670   -2.1570   -8.7140 O.3   600  ADP600     -0.2261
      9  O5'        6.4580   -0.7100  -10.6520 O.3   600  ADP600     -0.3111
     10  C5'        6.1080   -0.0670  -11.8730 C.3   600  ADP600      0.1813
     11  C4'        7.3560    0.5100  -12.5390 C.3   600  ADP600      0.1821
     12  O4'        8.3480   -0.4960  -12.7830 O.3   600  ADP600     -0.3135
     13  C3'        7.0060    1.1080  -13.8880 C.3   600  ADP600      0.2184
     14  O3'        6.8780    2.5260  -13.7870 O.3   600  ADP600     -0.2174
     15  C2'        8.1660    0.7600  -14.7900 C.3   600  ADP600      0.2570
     16  O2'        9.0180    1.9010  -14.8980 O.3   600  ADP600     -0.2130
     17  C1'        8.9090   -0.3650  -14.0950 C.3   600  ADP600      0.3186
     18  N9         8.6990   -1.5880  -14.9170 N.pl3 600  ADP600     -0.1439
     19  C8         7.7890   -2.5540  -14.6910 C.3   600  ADP600      0.3377
     20  N7         7.8510   -3.5250  -15.6390 N.2   600  ADP600     -0.2095
     21  C5         8.8210   -3.1810  -16.5080 C.2   600  ADP600      0.2526
     22  C6         9.4120   -3.7560  -17.7440 C.2   600  ADP600      0.4393
     23  N6         8.9690   -4.9300  -18.2630 N.pl3 600  ADP600      0.2180
     24  N1        10.4110   -3.0720  -18.3440 N.2   600  ADP600      0.0021
     25  C2        10.8660   -1.9050  -17.8450 C.3   600  ADP600      0.5254
     26  N3        10.3780   -1.3280  -16.7320 N.2   600  ADP600     -0.0055
     27  C4         9.3720   -1.9030  -16.0280 C.2   600  ADP600      0.3518
@<TRIPOS>BOND
     1    24    25    1
     2    24    22    2
     3    23    22    1
     4    25    26    1
     5    22    21    1
     6    26    27    2
     7    21    27    1
     8    21    20    2
     9    27    18    1
    10    20    19    1
    11    18    19    1
    12    18    17    1
    13    16    15    1
    14    15    17    1
    15    15    13    1
    16    17    12    1
    17    13    14    1
    18    13    11    1
    19    12    11    1
    20    11    10    1
    21    10     9    1
    22     6     5    2
    23     9     5    1
    24     5     7    1
    25     5     8    1
    26     8     1    1
    27     2     1    2
    28     1     3    1
    29     1     4    1
