@<TRIPOS>MOLECULE
2wpd_ATP_A_1.pdb
 31 33 0 0 0
SMALL
GASTEIGER

@<TRIPOS>ATOM
      1  PG        14.2990  -23.4660    3.7050 P.3   600  ATP600      0.5373
      2  O1G       14.5760  -22.9090    5.0800 O.3   600  ATP600     -0.1143
      3  O2G       13.5710  -24.7860    3.6920 O.3   600  ATP600     -0.1143
      4  O3G       13.7410  -22.4700    2.7140 O.2   600  ATP600     -0.2221
      5  PB        16.3740  -25.3190    3.3830 P.3   600  ATP600      0.2277
      6  O1B       17.4060  -25.2840    4.4850 O.3   600  ATP600     -0.4368
      7  O2B       15.2540  -26.3260    3.4840 O.2   600  ATP600     -0.5168
      8  O3B       15.7650  -23.8440    3.1550 O.3   600  ATP600     -0.2258
      9  PA        16.8810  -26.8910    1.1450 P.3   600  ATP600      0.2189
     10  O1A       18.0230  -27.8160    1.4880 O.3   600  ATP600     -0.4371
     11  O2A       15.4710  -27.3560    1.4020 O.2   600  ATP600     -0.5170
     12  O3A       17.1380  -25.5430    1.9840 O.3   600  ATP600     -0.2700
     13  O5'       16.9800  -26.4940   -0.4130 O.3   600  ATP600     -0.3112
     14  C5'       15.8780  -26.6970   -1.3070 C.3   600  ATP600      0.1813
     15  C4'       16.4440  -26.5800   -2.7140 C.3   600  ATP600      0.1821
     16  O4'       17.8250  -26.8900   -2.5990 O.3   600  ATP600     -0.3135
     17  C3'       15.8490  -27.5340   -3.7400 C.3   600  ATP600      0.2184
     18  O3'       15.2670  -26.7760   -4.8090 O.3   600  ATP600     -0.2174
     19  C2'       17.0120  -28.3560   -4.2730 C.3   600  ATP600      0.2570
     20  O2'       17.0740  -28.2240   -5.6950 O.3   600  ATP600     -0.2130
     21  C1'       18.2550  -27.7070   -3.6820 C.3   600  ATP600      0.3186
     22  N9        19.3220  -28.5950   -3.1450 N.pl3 600  ATP600     -0.1439
     23  C8        19.6060  -28.7060   -1.8320 C.3   600  ATP600      0.3377
     24  N7        20.6470  -29.5440   -1.6170 N.2   600  ATP600     -0.2095
     25  C5        21.0560  -29.9710   -2.8190 C.2   600  ATP600      0.2526
     26  C6        22.1190  -30.8780   -3.2880 C.2   600  ATP600      0.4393
     27  N6        22.9300  -31.4760   -2.3810 N.pl3 600  ATP600      0.2180
     28  N1        22.2370  -31.0740   -4.6190 N.2   600  ATP600      0.0021
     29  C2        21.4130  -30.4630   -5.4940 C.3   600  ATP600      0.5254
     30  N3        20.4220  -29.6240   -5.1370 N.2   600  ATP600     -0.0055
     31  C4        20.1960  -29.3390   -3.8300 C.2   600  ATP600      0.3518
@<TRIPOS>BOND
     1    20    19    1
     2    29    30    1
     3    29    28    1
     4    30    31    2
     5    18    17    1
     6    28    26    2
     7    19    17    1
     8    19    21    1
     9    31    22    1
    10    31    25    1
    11    17    15    1
    12    21    22    1
    13    21    16    1
    14    26    25    1
    15    26    27    1
    16    22    23    1
    17    25    24    2
    18    15    16    1
    19    15    14    1
    20    23    24    1
    21    14    13    1
    22    13     9    1
    23     9    11    2
    24     9    10    1
    25     9    12    1
    26    12     5    1
    27     4     1    2
    28     8     5    1
    29     8     1    1
    30     5     7    2
    31     5     6    1
    32     3     1    1
    33     1     2    1
