@<TRIPOS>MOLECULE
2wpe_WPE_A_1.pdb
 28 31 0 0 0
SMALL
GASTEIGER

@<TRIPOS>ATOM
      1  CAD      -20.6200  -30.2620   59.6050 C.ar  1000  WPE1000    -0.0027
      2  CAA      -19.7470  -30.9060   58.6430 C.ar  1000  WPE1000    -0.0003
      3  CAB      -20.2370  -31.8150   57.6710 C.ar  1000  WPE1000    -0.0000
      4  CAC      -21.6410  -32.1010   57.6490 C.ar  1000  WPE1000    -0.0003
      5  CAF      -22.4980  -31.4590   58.6270 C.ar  1000  WPE1000    -0.0027
      6  CAE      -22.0030  -30.5360   59.5720 C.ar  1000  WPE1000    -0.0036
      7  CAK      -23.0080  -29.8720   60.6150 C.3   1000  WPE1000     0.1079
      8  CAJ      -23.9900  -28.9860   59.9280 C.3   1000  WPE1000     0.0975
      9  CAI      -23.5270  -27.7790   59.4510 C.2   1000  WPE1000    -0.0060
     10  CAH      -24.4780  -26.9670   58.8160 C.2   1000  WPE1000     0.0540
     11 CL        -23.9930  -25.4780   58.1510 Cl    1000  WPE1000    -0.0826
     12  CAR      -25.8000  -27.3150   58.6590 C.2   1000  WPE1000     0.0134
     13  CAS      -26.2570  -28.5170   59.1690 C.2   1000  WPE1000     0.0288
     14  CAT      -25.3420  -29.3470   59.7700 C.2   1000  WPE1000     0.1158
     15  NAU      -25.8540  -30.5270   60.2780 N.2   1000  WPE1000    -0.3954
     16  CAV      -25.0480  -31.2990   61.0640 C.2   1000  WPE1000     0.1603
     17  CAW      -25.6820  -32.5010   61.7960 C.3   1000  WPE1000     0.0836
     18  NAL      -23.7220  -30.9930   61.2540 N.pl3 1000  WPE1000    -0.2823
     19  CAM      -22.8890  -31.9570   62.0600 C.3   1000  WPE1000     0.1165
     20  CAN      -22.6980  -31.3710   63.4280 C.3   1000  WPE1000     0.1370
     21  NAO      -21.8300  -32.3310   64.1340 N.am  1000  WPE1000    -0.1972
     22  CAP      -22.3650  -33.4360   64.6320 C.2   1000  WPE1000     0.2995
     23  OAQ      -23.5600  -33.6810   64.4810 O.2   1000  WPE1000    -0.2650
     24  CAY      -21.4060  -34.3990   65.4010 C.ar  1000  WPE1000     0.2002
     25  CAX      -21.8070  -35.4430   66.1430 C.ar  1000  WPE1000     0.0455
     26  CBA      -20.7090  -36.0230   66.6450 C.ar  1000  WPE1000     0.0440
     27  CBB      -19.6230  -35.3640   66.2220 C.ar  1000  WPE1000     0.1798
     28  OAZ      -20.0270  -34.3190   65.4310 O.2   1000  WPE1000    -0.4458
@<TRIPOS>BOND
     1     4     3   ar
     2     4     5   ar
     3     3     2   ar
     4    11    10    1
     5     5     6   ar
     6     2     1   ar
     7    12    10    1
     8    12    13    2
     9    10     9    2
    10    13    14    1
    11     9     8    1
    12     6     1   ar
    13     6     7    1
    14    14     8    1
    15    14    15    2
    16     8     7    1
    17    15    16    2
    18     7    18    1
    19    16    18    1
    20    16    17    1
    21    18    19    1
    22    19    20    1
    23    20    21    1
    24    21    22   am
    25    23    22    2
    26    22    24    1
    27    24    28   ar
    28    24    25   ar
    29    28    27   ar
    30    25    26   ar
    31    27    26   ar
