@<TRIPOS>MOLECULE
2wpf_WPF_A_1.pdb
 25 27 0 0 0
SMALL
GASTEIGER

@<TRIPOS>ATOM
      1  CAR      -23.3400  -33.4670   64.8880 C.3   1000  WPF1000     0.0897
      2  NAQ      -22.3320  -32.3940   64.9830 N.3   1000  WPF1000    -0.2703
      3  CAY      -21.2260  -32.7300   65.9180 C.3   1000  WPF1000     0.0897
      4  CAP      -21.8190  -32.1400   63.6330 C.3   1000  WPF1000     0.0739
      5  CAO      -22.7070  -31.0710   63.0140 C.3   1000  WPF1000     0.0388
      6  CAN      -23.1690  -31.6020   61.6940 C.3   1000  WPF1000     0.0948
      7  NAM      -23.8280  -30.5260   60.8770 N.pl3 1000  WPF1000    -0.2810
      8  CAW      -25.1270  -30.8030   60.4890 C.2   1000  WPF1000     0.1608
      9  CAX      -25.7940  -32.0780   61.0930 C.3   1000  WPF1000     0.0836
     10  NAV      -25.8680  -29.8950   59.7150 N.2   1000  WPF1000    -0.3917
     11  CAU      -25.3000  -28.7020   59.2460 C.2   1000  WPF1000     0.1299
     12  CAT      -26.1050  -27.8340   58.5030 C.2   1000  WPF1000     0.0288
     13  CAS      -25.5690  -26.6310   58.0500 C.2   1000  WPF1000    -0.0033
     14  CAI      -24.2390  -26.3140   58.3500 C.3   1000  WPF1000     0.1236
     15 CL1       -23.6000  -24.8130   57.7770 Cl    1000  WPF1000    -0.1054
     16  CAJ      -23.4140  -27.1820   59.1170 C.2   1000  WPF1000    -0.0057
     17  CAK      -23.9510  -28.3820   59.5600 C.2   1000  WPF1000     0.0268
     18  CAL      -23.0800  -29.3520   60.3880 C.3   1000  WPF1000     0.1220
     19  CAF      -21.9890  -29.9900   59.5280 C.ar  1000  WPF1000    -0.0001
     20  CAG      -22.3070  -30.7620   58.4110 C.ar  1000  WPF1000    -0.0027
     21  CAD      -21.2900  -31.3680   57.6270 C.ar  1000  WPF1000    -0.0045
     22  CAC      -19.9350  -31.2300   58.0440 C.ar  1000  WPF1000    -0.0219
     23  CAA      -18.7630  -31.8400   57.2590 C.3   1000  WPF1000     0.0310
     24  CAB      -19.6520  -30.4450   59.1800 C.ar  1000  WPF1000    -0.0045
     25  CAE      -20.6620  -29.8280   59.9270 C.ar  1000  WPF1000    -0.0027
@<TRIPOS>BOND
     1    23    22    1
     2    21    22   ar
     3    21    20   ar
     4    15    14    1
     5    22    24   ar
     6    13    14    1
     7    13    12    2
     8    14    16    1
     9    20    19   ar
    10    12    11    1
    11    16    17    2
    12    24    25   ar
    13    11    17    1
    14    11    10    2
    15    19    25   ar
    16    19    18    1
    17    17    18    1
    18    10     8    2
    19    18     7    1
    20     8     7    1
    21     8     9    1
    22     7     6    1
    23     6     5    1
    24     5     4    1
    25     4     2    1
    26     1     2    1
    27     2     3    1
