@<TRIPOS>MOLECULE
2wph_III_L_1.pdb
 30 31 0 0 0
SMALL
GASTEIGER

@<TRIPOS>ATOM
      1  N          4.6010  -23.8870   -0.9380 N.3     1  DPN1       -0.1228
      2  CA         3.6080  -22.8070   -1.0770 C.3     1  DPN1        0.1721
      3  C          3.9720  -22.0820   -2.3580 C.2     1  DPN1        0.2437
      4  O          4.4970  -22.7070   -3.2760 O.2     1  DPN1       -0.2733
      5  CB         2.1940  -23.3980   -1.1080 C.3     1  DPN1        0.0547
      6  CG         1.7990  -24.0280    0.1940 C.ar    1  DPN1       -0.0202
      7  CD1        1.3520  -23.2330    1.2450 C.ar    1  DPN1       -0.0042
      8  CD2        1.9510  -25.3930    0.3980 C.ar    1  DPN1       -0.0042
      9  CE1        1.0650  -23.7920    2.4800 C.ar    1  DPN1       -0.0003
     10  CE2        1.6690  -25.9640    1.6410 C.ar    1  DPN1       -0.0003
     11  CZ         1.2280  -25.1580    2.6790 C.ar    1  DPN1       -0.0000
     12  N          3.7090  -20.7690   -2.4120 N.am    2  PRO2       -0.2718
     13  CA         4.0340  -19.9940   -3.6030 C.3     2  PRO2        0.1535
     14  C          5.5280  -19.9530   -3.7770 C.2     2  PRO2        0.2596
     15  O          6.2700  -19.8630   -2.8060 O.2     2  PRO2       -0.2715
     16  CB         3.4220  -18.6210   -3.3040 C.3     2  PRO2        0.0310
     17  CG         3.5250  -18.5430   -1.7630 C.3     2  PRO2        0.0237
     18  CD         3.0840  -19.9220   -1.3730 C.3     2  PRO2        0.0939
     19  N          5.9840  -20.0120   -5.0260 N.am    3  ARG3       -0.1977
     20  CA         7.4040  -19.9900   -5.2930 C.3     3  ARG3        0.1871
     21  C          7.8100  -18.6350   -5.9540 C.3     3  ARG3        0.4452
     22  O          9.2010  -18.4920   -5.7860 O.2     3  ARG3       -0.2650
     23  CB         7.7310  -21.1430   -6.2500 C.3     3  ARG3        0.0335
     24  CG         7.5980  -22.5520   -5.5830 C.3     3  ARG3        0.0490
     25  CD         7.6490  -23.6570   -6.6050 C.3     3  ARG3        0.2205
     26  NE         7.6900  -24.9650   -5.9620 N.pl3   3  ARG3       -0.0865
     27  CZ         7.7410  -26.1060   -6.6430 C.cat   3  ARG3        0.5346
     28  NH1        7.7760  -27.2450   -5.9850 N.pl3   3  ARG3        0.1354
     29  NH2        7.7530  -26.1100   -7.9790 N.pl3   3  ARG3        0.1354
     30  OXT        7.1270  -17.4340   -5.2880 O.2     3  ARG3       -0.2650
@<TRIPOS>BOND
     1    29    27    1
     2    27    28    1
     3    27    26    2
     4    25    26    1
     5    25    24    1
     6    23    24    1
     7    23    20    1
     8    21    22    1
     9    21    20    1
    10    21    30    1
    11    20    19    1
    12    19    14   am
    13    14    13    1
    14    14    15    2
    15    13    16    1
    16    13    12    1
    17    16    17    1
    18     4     3    2
    19    12     3   am
    20    12    18    1
    21     3     2    1
    22    17    18    1
    23     5     2    1
    24     5     6    1
    25     2     1    1
    26     6     8   ar
    27     6     7   ar
    28     8    10   ar
    29     7     9   ar
    30    10    11   ar
    31     9    11   ar
