@<TRIPOS>MOLECULE
2wpi_III_L_1.pdb
 30 31 0 0 0
SMALL
GASTEIGER

@<TRIPOS>ATOM
      1  N          4.3840  -24.2720   -1.0390 N.3     1  DPN1       -0.1228
      2  CA         3.5140  -23.0860   -1.2850 C.3     1  DPN1        0.1721
      3  C          3.9250  -22.3640   -2.5560 C.2     1  DPN1        0.2437
      4  O          4.5720  -22.9520   -3.4230 O.2     1  DPN1       -0.2733
      5  CB         2.0560  -23.5320   -1.3650 C.3     1  DPN1        0.0547
      6  CG         1.5820  -24.1840   -0.1050 C.ar    1  DPN1       -0.0202
      7  CD1        1.4480  -23.4400    1.0640 C.ar    1  DPN1       -0.0042
      8  CD2        1.3490  -25.5550   -0.0630 C.ar    1  DPN1       -0.0042
      9  CE1        1.0920  -24.0560    2.2640 C.ar    1  DPN1       -0.0003
     10  CE2        0.9950  -26.1810    1.1210 C.ar    1  DPN1       -0.0003
     11  CZ         0.8670  -25.4300    2.2910 C.ar    1  DPN1       -0.0000
     12  N          3.5550  -21.0720   -2.6800 N.am    2  PRO2       -0.2718
     13  CA         3.9180  -20.3080   -3.8760 C.3     2  PRO2        0.1535
     14  C          5.4310  -20.2690   -3.9790 C.2     2  PRO2        0.2596
     15  O          6.1290  -20.1930   -2.9680 O.2     2  PRO2       -0.2715
     16  CB         3.3060  -18.9340   -3.6100 C.3     2  PRO2        0.0310
     17  CG         3.4310  -18.8120   -2.1230 C.3     2  PRO2        0.0237
     18  CD         3.0150  -20.1840   -1.6340 C.3     2  PRO2        0.0939
     19  N          5.9450  -20.3340   -5.1990 N.am    3  ARG3       -0.1977
     20  CA         7.3910  -20.3270   -5.4170 C.3     3  ARG3        0.1871
     21  C          7.7530  -18.9780   -6.0710 C.3     3  ARG3        0.4452
     22  O          9.1480  -18.7360   -5.9760 O.2     3  ARG3       -0.2650
     23  CB         7.7790  -21.5090   -6.3280 C.3     3  ARG3        0.0335
     24  CG         7.4460  -22.9040   -5.7580 C.3     3  ARG3        0.0490
     25  CD         7.5240  -24.0260   -6.8250 C.3     3  ARG3        0.2205
     26  NE         7.4930  -25.3500   -6.1940 N.pl3   3  ARG3       -0.0865
     27  CZ         7.6820  -26.5110   -6.8310 C.cat   3  ARG3        0.5346
     28  NH1        7.6440  -27.6570   -6.1530 N.pl3   3  ARG3        0.1354
     29  NH2        7.9080  -26.5360   -8.1380 N.pl3   3  ARG3        0.1354
     30  OXT        7.0790  -17.7650   -5.3750 O.2     3  ARG3       -0.2650
@<TRIPOS>BOND
     1    29    27    1
     2    27    26    2
     3    27    28    1
     4    25    26    1
     5    25    24    1
     6    23    24    1
     7    23    20    1
     8    21    22    1
     9    21    20    1
    10    21    30    1
    11    20    19    1
    12    19    14   am
    13    14    13    1
    14    14    15    2
    15    13    16    1
    16    13    12    1
    17    16    17    1
    18     4     3    2
    19    12     3   am
    20    12    18    1
    21     3     2    1
    22    17    18    1
    23     5     2    1
    24     5     6    1
    25     2     1    1
    26     6     8   ar
    27     6     7   ar
    28     8    10   ar
    29     7     9   ar
    30    10    11   ar
    31     9    11   ar
