@<TRIPOS>MOLECULE
2wpj_III_L_1.pdb
 30 31 0 0 0
SMALL
GASTEIGER

@<TRIPOS>ATOM
      1  N          4.4360  -22.2670    0.1930 N.3     1  DPN1       -0.1228
      2  CA         3.4780  -22.2380   -0.9320 C.3     1  DPN1        0.1721
      3  C          4.0470  -21.8700   -2.2760 C.2     1  DPN1        0.2437
      4  O          4.7350  -22.5720   -3.0690 O.2     1  DPN1       -0.2733
      5  CB         2.6320  -23.4770   -1.0640 C.3     1  DPN1        0.0547
      6  CG         2.1170  -24.0050    0.2680 C.ar    1  DPN1       -0.0202
      7  CD1        1.8020  -23.1420    1.3180 C.ar    1  DPN1       -0.0042
      8  CD2        2.0530  -25.3790    0.4890 C.ar    1  DPN1       -0.0042
      9  CE1        1.4670  -23.6590    2.5970 C.ar    1  DPN1       -0.0003
     10  CE2        1.7290  -25.8870    1.7070 C.ar    1  DPN1       -0.0003
     11  CZ         1.4380  -25.0320    2.7720 C.ar    1  DPN1       -0.0000
     12  N          3.8680  -20.6240   -2.4790 N.am    2  PRO2       -0.2718
     13  CA         4.2420  -19.8430   -3.6100 C.3     2  PRO2        0.1535
     14  C          5.7400  -19.8300   -3.7040 C.2     2  PRO2        0.2596
     15  O          6.4690  -19.6790   -2.7060 O.2     2  PRO2       -0.2715
     16  CB         3.5780  -18.5250   -3.2830 C.3     2  PRO2        0.0310
     17  CG         3.7270  -18.4450   -1.7920 C.3     2  PRO2        0.0237
     18  CD         3.3780  -19.8060   -1.3660 C.3     2  PRO2        0.0939
     19  N          6.2160  -20.0200   -4.9310 N.am    3  ARG3       -0.1977
     20  CA         7.6360  -19.9810   -5.2100 C.3     3  ARG3        0.1871
     21  C          8.0130  -18.6440   -5.8380 C.3     3  ARG3        0.4452
     22  O          9.4270  -18.5160   -5.6750 O.2     3  ARG3       -0.2650
     23  CB         8.0370  -21.1020   -6.1690 C.3     3  ARG3        0.0335
     24  CG         7.8150  -22.5170   -5.5110 C.3     3  ARG3        0.0490
     25  CD         7.8180  -23.6420   -6.5480 C.3     3  ARG3        0.2205
     26  NE         7.8510  -24.9250   -5.8380 N.pl3   3  ARG3       -0.0865
     27  CZ         7.9920  -26.0950   -6.4680 C.cat   3  ARG3        0.5346
     28  NH1        8.0480  -27.2300   -5.7790 N.pl3   3  ARG3        0.1354
     29  NH2        8.0330  -26.1300   -7.7830 N.pl3   3  ARG3        0.1354
     30  OXT        7.3170  -17.4860   -5.1180 O.2     3  ARG3       -0.2650
@<TRIPOS>BOND
     1    29    27    1
     2    25    26    1
     3    25    24    1
     4    27    26    2
     5    27    28    1
     6    23    24    1
     7    23    20    1
     8    21    22    1
     9    21    20    1
    10    21    30    1
    11    20    19    1
    12    19    14   am
    13    14    13    1
    14    14    15    2
    15    13    16    1
    16    13    12    1
    17    16    17    1
    18     4     3    2
    19    12     3   am
    20    12    18    1
    21     3     2    1
    22    17    18    1
    23     5     2    1
    24     5     6    1
    25     2     1    1
    26     6     8   ar
    27     6     7   ar
    28     8    10   ar
    29     7     9   ar
    30    10    11   ar
    31     9    11   ar
