@<TRIPOS>MOLECULE
2wpk_III_L_1.pdb
 30 31 0 0 0
SMALL
GASTEIGER

@<TRIPOS>ATOM
      1  N          4.9880  -24.1200   -0.8730 N.3     1  DPN1       -0.1228
      2  CA         4.0380  -22.9860   -0.9920 C.3     1  DPN1        0.1721
      3  C          4.2880  -22.2270   -2.2820 C.2     1  DPN1        0.2437
      4  O          4.7670  -22.7850   -3.2560 O.2     1  DPN1       -0.2733
      5  CB         2.6120  -23.4920   -0.9370 C.3     1  DPN1        0.0547
      6  CG         2.2670  -24.1400    0.3680 C.ar    1  DPN1       -0.0202
      7  CD1        2.1060  -23.3820    1.5210 C.ar    1  DPN1       -0.0042
      8  CD2        2.1310  -25.5180    0.4530 C.ar    1  DPN1       -0.0042
      9  CE1        1.8120  -23.9980    2.7500 C.ar    1  DPN1       -0.0003
     10  CE2        1.8410  -26.1410    1.6570 C.ar    1  DPN1       -0.0003
     11  CZ         1.6820  -25.3820    2.8130 C.ar    1  DPN1       -0.0000
     12  N          3.9690  -20.9250   -2.2960 N.am    2  PRO2       -0.2718
     13  CA         4.1980  -20.1350   -3.5050 C.3     2  PRO2        0.1535
     14  C          5.7030  -20.0460   -3.7190 C.2     2  PRO2        0.2596
     15  O          6.4690  -19.9470   -2.7670 O.2     2  PRO2       -0.2715
     16  CB         3.5770  -18.7770   -3.1660 C.3     2  PRO2        0.0310
     17  CG         3.7770  -18.6850   -1.6710 C.3     2  PRO2        0.0237
     18  CD         3.4620  -20.0900   -1.1950 C.3     2  PRO2        0.0939
     19  N          6.1380  -20.1300   -4.9650 N.am    3  ARG3       -0.1977
     20  CA         7.5660  -20.0400   -5.2450 C.3     3  ARG3        0.1871
     21  C          7.9580  -18.7320   -5.9200 C.3     3  ARG3        0.4452
     22  O          9.3770  -18.7140   -5.8770 O.2     3  ARG3       -0.2650
     23  CB         8.0050  -21.2170   -6.1170 C.3     3  ARG3        0.0335
     24  CG         7.7260  -22.5690   -5.4880 C.3     3  ARG3        0.0490
     25  CD         7.8490  -23.7200   -6.4930 C.3     3  ARG3        0.2205
     26  NE         7.7980  -25.0060   -5.8090 N.pl3   3  ARG3       -0.0865
     27  CZ         7.8620  -26.1980   -6.4050 C.cat   3  ARG3        0.5346
     28  NH1        7.8110  -27.2970   -5.6650 N.pl3   3  ARG3        0.1354
     29  NH2        7.9730  -26.3060   -7.7280 N.pl3   3  ARG3        0.1354
     30  OXT        7.2770  -17.5350   -5.2120 O.2     3  ARG3       -0.2650
@<TRIPOS>BOND
     1    29    27    1
     2    25    26    1
     3    25    24    1
     4    27    26    2
     5    27    28    1
     6    23    24    1
     7    23    20    1
     8    21    22    1
     9    21    20    1
    10    21    30    1
    11    20    19    1
    12    19    14   am
    13    14    13    1
    14    14    15    2
    15    13    16    1
    16    13    12    1
    17     4     3    2
    18    16    17    1
    19    12     3   am
    20    12    18    1
    21     3     2    1
    22    17    18    1
    23     2     5    1
    24     2     1    1
    25     5     6    1
    26     6     8   ar
    27     6     7   ar
    28     8    10   ar
    29     7     9   ar
    30    10    11   ar
    31     9    11   ar
