@<TRIPOS>MOLECULE
2wpl_III_L_1.pdb
 30 31 0 0 0
SMALL
GASTEIGER

@<TRIPOS>ATOM
      1  N          4.2380  -23.9150   -0.9490 N.3     1  DPN1       -0.1228
      2  CA         3.2700  -22.7990   -1.1500 C.3     1  DPN1        0.1721
      3  C          3.5950  -21.9990   -2.4150 C.2     1  DPN1        0.2437
      4  O          4.0820  -22.5640   -3.3930 O.2     1  DPN1       -0.2733
      5  CB         1.8720  -23.3700   -1.2650 C.3     1  DPN1        0.0547
      6  CG         1.4220  -24.0860   -0.0250 C.ar    1  DPN1       -0.0202
      7  CD1        0.9990  -23.3630    1.0810 C.ar    1  DPN1       -0.0042
      8  CD2        1.4370  -25.4790    0.0470 C.ar    1  DPN1       -0.0042
      9  CE1        0.5880  -24.0170    2.2500 C.ar    1  DPN1       -0.0003
     10  CE2        1.0330  -26.1460    1.1990 C.ar    1  DPN1       -0.0003
     11  CZ         0.6090  -25.4110    2.3060 C.ar    1  DPN1       -0.0000
     12  N          3.3210  -20.6760   -2.4230 N.am    2  PRO2       -0.2718
     13  CA         3.6640  -19.9710   -3.6720 C.3     2  PRO2        0.1535
     14  C          5.1780  -19.9100   -3.8130 C.2     2  PRO2        0.2596
     15  O          5.8830  -19.8150   -2.8190 O.2     2  PRO2       -0.2715
     16  CB         3.0320  -18.6030   -3.4800 C.3     2  PRO2        0.0310
     17  CG         3.1420  -18.3730   -2.0070 C.3     2  PRO2        0.0237
     18  CD         2.7430  -19.7440   -1.4270 C.3     2  PRO2        0.0939
     19  N          5.6900  -19.9880   -5.0430 N.am    3  ARG3       -0.1977
     20  CA         7.1210  -19.9400   -5.2740 C.3     3  ARG3        0.1871
     21  C          7.5710  -18.6040   -5.9060 C.3     3  ARG3        0.4452
     22  O          8.9780  -18.4890   -5.7250 O.2     3  ARG3       -0.2650
     23  CB         7.5170  -21.1140   -6.1610 C.3     3  ARG3        0.0335
     24  CG         7.2170  -22.4690   -5.5530 C.3     3  ARG3        0.0490
     25  CD         7.3250  -23.5460   -6.6220 C.3     3  ARG3        0.2205
     26  NE         7.4000  -24.8750   -6.0140 N.pl3   3  ARG3       -0.0865
     27  CZ         7.5750  -25.9990   -6.7000 C.cat   3  ARG3        0.5346
     28  NH1        7.6540  -27.1580   -6.0540 N.pl3   3  ARG3        0.1354
     29  NH2        7.6600  -25.9690   -8.0240 N.pl3   3  ARG3        0.1354
     30  OXT        6.9030  -17.3530   -5.2410 O.2     3  ARG3       -0.2650
@<TRIPOS>BOND
     1    29    27    1
     2    27    28    1
     3    27    26    2
     4    25    26    1
     5    25    24    1
     6    23    24    1
     7    23    20    1
     8    21    22    1
     9    21    20    1
    10    21    30    1
    11    20    19    1
    12    19    14   am
    13    14    13    1
    14    14    15    2
    15    13    16    1
    16    13    12    1
    17    16    17    1
    18     4     3    2
    19    12     3   am
    20    12    18    1
    21     3     2    1
    22    17    18    1
    23     5     2    1
    24     5     6    1
    25     2     1    1
    26     6     8   ar
    27     6     7   ar
    28     8    10   ar
    29     7     9   ar
    30    10    11   ar
    31     9    11   ar
