@<TRIPOS>MOLECULE
2wpm_III_L_1.pdb
 25 24 0 0 0
SMALL
GASTEIGER

@<TRIPOS>ATOM
      1  N          2.9720  -23.6200   -0.3730 N.3     1  GLU1       -0.1231
      2  CA         4.3690  -23.1340   -0.5680 C.3     1  GLU1        0.1699
      3  C          4.4670  -22.4930   -1.9580 C.2     1  GLU1        0.2593
      4  O          4.8010  -23.1590   -2.9300 O.2     1  GLU1       -0.2718
      5  CB         5.3580  -24.3050   -0.4780 C.3     1  GLU1        0.0402
      6  CG         5.3210  -25.1170    0.8040 C.3     1  GLU1        0.1161
      7  CD         4.1010  -26.0210    0.9010 C.2     1  GLU1        0.3649
      8  OE1        3.9120  -26.6490    1.9630 O.co2   1  GLU1       -0.2457
      9  OE2        3.3380  -26.1110   -0.0830 O.co2   1  GLU1       -0.2457
     10  N          4.1540  -21.2060   -2.0490 N.am    2  GLY2       -0.1942
     11  CA         4.2390  -20.5410   -3.3290 C.3     2  GLY2        0.2014
     12  C          5.7210  -20.4230   -3.6220 C.2     2  GLY2        0.2637
     13  O          6.5140  -20.3170   -2.7180 O.2     2  GLY2       -0.2714
     14  N          6.1130  -20.4630   -4.8760 N.am    3  ARG3       -0.1976
     15  CA         7.5090  -20.3500   -5.1880 C.3     3  ARG3        0.1871
     16  C          7.7950  -18.9880   -5.8570 C.3     3  ARG3        0.4452
     17  O          9.2140  -18.9280   -5.8690 O.2     3  ARG3       -0.2650
     18  CB         7.9110  -21.5330   -6.0830 C.3     3  ARG3        0.0335
     19  CG         7.4780  -22.8950   -5.5310 C.3     3  ARG3        0.0490
     20  CD         7.6670  -24.0730   -6.5260 C.3     3  ARG3        0.2205
     21  NE         7.6600  -25.3770   -5.8450 N.pl3   3  ARG3       -0.0865
     22  CZ         7.7370  -26.5640   -6.4630 C.cat   3  ARG3        0.5346
     23  NH1        7.7310  -27.6940   -5.7480 N.pl3   3  ARG3        0.1354
     24  NH2        7.8030  -26.6360   -7.7970 N.pl3   3  ARG3        0.1354
     25  OXT        7.0740  -17.7580   -5.1700 O.2     3  ARG3       -0.2650
@<TRIPOS>BOND
     1    24    22    1
     2    20    21    1
     3    20    19    1
     4    22    21    2
     5    22    23    1
     6    18    19    1
     7    18    15    1
     8    17    16    1
     9    16    15    1
    10    16    25    1
    11    15    14    1
    12    14    12   am
    13    12    11    1
    14    12    13    2
    15    11    10    1
    16     4     3    2
    17    10     3   am
    18     3     2    1
    19     2     5    1
    20     2     1    1
    21     5     6    1
    22     9     7   ar
    23     6     7    1
    24     7     8   ar
