@<TRIPOS>MOLECULE
2wpn_FSX_A_1.pdb
 10 14 0 0 0
SMALL
GASTEIGER

@<TRIPOS>ATOM
      1 FE1        16.5420   -7.6910   20.2530 Fe    1287  FSX1287     0.0000
      2 FE2        16.9010   -5.0450   17.8660 Fe    1287  FSX1287     0.0000
      3 FE3        17.4110   -5.8990   22.1150 Fe    1287  FSX1287     0.0000
      4 FE4        15.5470   -4.2430   20.9760 Fe    1287  FSX1287     0.0000
      5  O1        18.3580   -4.7230   19.1550 O.3   1287  FSX1287     0.0000
      6  S2        18.6310   -6.9160   20.5340 S.3   1287  FSX1287     0.0000
      7  S3        15.4010   -6.3080   21.4340 S.3   1287  FSX1287     0.0000
      8  S4        17.6990   -3.7990   21.3770 S.3   1287  FSX1287     0.0000
      9  O24       15.4580   -4.5160   19.0310 O.3   1287  FSX1287     0.0000
     10  O12       16.4940   -6.8620   18.4580 O.3   1287  FSX1287     0.0000
@<TRIPOS>BOND
     1     2    10    1
     2     2     9    1
     3     2     5    1
     4    10     1    1
     5     9     4    1
     6     1     6    1
     7     1     7    1
     8     1     3    1
     9     6     3    1
    10     4     8    1
    11     4     7    1
    12     4     3    1
    13     8     3    1
    14     7     3    1
