@<TRIPOS>MOLECULE
2wpn_SBY_A_1.pdb
 11 10 0 0 0
SMALL
GASTEIGER

@<TRIPOS>ATOM
      1  C12       26.4950   11.7080   11.2080 C.3   1288  SBY1288     0.0000
      2  C11       25.3010   11.0610   10.4870 C.3   1288  SBY1288     0.0000
      3  C10       24.9700    9.6330   10.9560 C.3   1288  SBY1288     0.0000
      4  C9        23.6910    9.0520   10.3450 C.3   1288  SBY1288     0.0000
      5  C8        23.3440    7.6460   10.8460 C.3   1288  SBY1288     0.0000
      6  C7        22.2280    7.0160    9.9880 C.3   1288  SBY1288     0.0000
      7  C6        22.0310    5.5000   10.1310 C.3   1288  SBY1288     0.0000
      8  C5        20.8880    5.0650    9.2150 C.3   1288  SBY1288     0.0000
      9  C4        20.5620    3.5770    9.3040 C.3   1288  SBY1288     0.0000
     10  C3        19.1810    3.3250    9.9100 C.3   1288  SBY1288     0.0000
     11  C2        19.3870    2.5660   11.1930 C.3   1288  SBY1288     0.0000
@<TRIPOS>BOND
     1     8     9    1
     2     8     7    1
     3     9    10    1
     4    10    11    1
     5     6     7    1
     6     6     5    1
     7     4     5    1
     8     4     3    1
     9     2     3    1
    10     2     1    1
