@<TRIPOS>MOLECULE
2wpo_01E_A_1.pdb
 47 48 0 0 0
SMALL
GASTEIGER

@<TRIPOS>ATOM
      1  CA       104.2490    9.5860   70.9380 C.3   257  01E257      0.0850
      2  CB       102.9340    8.8640   70.5890 C.3   257  01E257      0.0086
      3  CG1      101.8560    9.1690   71.6290 C.3   257  01E257      0.0005
      4  CG2      102.4550    9.2930   69.1990 C.3   257  01E257      0.0005
      5  CG3      103.1760    7.3940   70.5990 C.3   257  01E257      0.0005
      6  C        104.0060   11.0920   70.9650 C.2   257  01E257      0.2228
      7  O        103.3900   11.6100   71.9120 O.2   257  01E257     -0.2751
      8  N        104.5200   11.7950   69.9540 N.am  257  01E257     -0.2983
      9  CA1      104.3420   13.2420   69.8520 C.3   257  01E257      0.1484
     10  CB1      105.6980   13.9680   69.6620 C.3   257  01E257      0.0250
     11 CG11      106.4310   13.3900   68.4670 C.3   257  01E257      0.0021
     12 CG21      105.4740   15.4670   69.4810 C.3   257  01E257      0.0021
     13 CG31      106.5470   13.7720   70.8780 C.3   257  01E257      0.0021
     14  C1       103.3500   13.5720   68.7280 C.2   257  01E257      0.2406
     15  O1       103.4690   13.0760   67.6000 O.2   257  01E257     -0.2733
     16  N1       102.3570   14.3900   69.0640 N.am  257  01E257     -0.2966
     17  CA2      101.2980   14.8080   68.1510 C.3   257  01E257      0.1580
     18  CB2       99.9700   14.4040   68.7620 C.3   257  01E257      0.1174
     19  CG        99.9090   12.9370   69.0730 C.2   257  01E257      0.2435
     20  OD1      100.8750   12.2170   68.8300 O.2   257  01E257     -0.2715
     21  ND2       98.7760   12.4710   69.6050 N.ar  257  01E257     -0.2751
     22  CE1       97.7070   13.3210   70.0290 C.ar  257  01E257      0.0827
     23  CH1       96.7570   12.3490   70.6850 C.ar  257  01E257      0.0206
     24  CE2       98.5980   11.0520   69.7530 C.ar  257  01E257      0.0827
     25  CH2       97.3150   10.9680   70.5290 C.ar  257  01E257      0.0206
     26  C2       101.2810   16.3270   67.8740 C.2   257  01E257      0.2409
     27  O2       101.2220   17.1480   68.7990 O.2   257  01E257     -0.2733
     28  N2       101.2630   16.6970   66.6000 N.am  257  01E257     -0.3016
     29  CA3      101.2470   18.1120   66.2310 C.3   257  01E257      0.1110
     30  C3       100.0460   18.4910   65.3020 C.3   257  01E257      0.2449
     31  O3       100.3800   19.5980   64.5450 O.3   257  01E257     -0.2115
     32  CB3      102.5630   18.4830   65.5700 C.3   257  01E257      0.0245
     33  C11       98.8050   18.8300   66.1330 C.2   257  01E257      0.2549
     34  O11       98.3780   18.0420   66.9800 O.2   257  01E257     -0.2723
     35  N21       98.2110   19.9900   65.8780 N.am  257  01E257     -0.2983
     36  C31       97.0020   20.4530   66.5700 C.3   257  01E257      0.1164
     37  C4        97.3380   21.4700   67.6370 C.ar  257  01E257     -0.0025
     38  C5        97.8280   21.0800   68.8800 C.ar  257  01E257     -0.0022
     39  C6        98.1080   22.0300   69.8630 C.ar  257  01E257      0.0055
     40  C7        97.9000   23.3770   69.6060 C.ar  257  01E257      0.0300
     41  I7        98.3650   24.8390   71.0760 I     257  01E257     -0.0425
     42  C8        97.4110   23.7680   68.3730 C.ar  257  01E257      0.0055
     43  C9        97.1340   22.8230   67.4000 C.ar  257  01E257     -0.0022
     44  H        105.0100   11.3530   69.2430 H     257  01E257      0.1498
     45  H1       102.3450   14.7670   69.9630 H     257  01E257      0.1499
     46  H2       101.2930   16.0300   65.8820 H     257  01E257      0.1495
     47  HN2       98.6150   20.5160   65.1550 H     257  01E257      0.1498
@<TRIPOS>BOND
     1    31    30    1
     2    47    35    1
     3    30    33    1
     4    30    29    1
     5    32    29    1
     6    35    33   am
     7    35    36    1
     8    46    28    1
     9    33    34    2
    10    29    28    1
    11    36    37    1
    12    28    26   am
    13    43    37   ar
    14    43    42   ar
    15    15    14    2
    16    37    38   ar
    17    26    17    1
    18    26    27    2
    19    17    18    1
    20    17    16    1
    21    42    40   ar
    22    11    10    1
    23    14    16   am
    24    14     9    1
    25    18    19    1
    26    20    19    2
    27    38    39   ar
    28    16    45    1
    29    19    21   am
    30     4     2    1
    31    44     8    1
    32    12    10    1
    33    21    24   ar
    34    21    22   ar
    35    40    39   ar
    36    40    41    1
    37    10     9    1
    38    10    13    1
    39    24    25   ar
    40     9     8    1
    41     8     6   am
    42    22    23   ar
    43    25    23   ar
    44     2     5    1
    45     2     1    1
    46     2     3    1
    47     1     6    1
    48     6     7    2
