@<TRIPOS>MOLECULE
2wpu_KYT_A_1.pdb
 34 35 0 0 0
SMALL
GASTEIGER

@<TRIPOS>ATOM
      1 CL1        26.8960   25.5360  -14.1550 Cl    400  KYT400      0.0000
      2  N2        24.7100   26.2890  -15.9020 N.3   400  KYT400      0.0000
      3  C13       23.4980   25.4650  -16.0080 C.3   400  KYT400      0.0000
      4  C14       22.2680   26.2650  -15.6160 C.3   400  KYT400      0.0000
      5  C3        28.2880   24.0290  -17.1580 C.ar  400  KYT400      0.0000
      6  C4        29.5110   24.0390  -16.2360 C.3   400  KYT400      0.0000
      7  C5        30.7190   23.4450  -16.9550 C.3   400  KYT400      0.0000
      8  C6        29.2470   23.2370  -14.9670 C.3   400  KYT400      0.0000
      9  C11       27.5490   22.9260  -17.3130 C.ar  400  KYT400      0.0000
     10  C12       26.4860   22.9370  -18.1200 C.ar  400  KYT400      0.0000
     11  C9        26.1640   24.0500  -18.7800 C.ar  400  KYT400      0.0000
     12  C10       24.9520   24.0680  -19.7030 C.3   400  KYT400      0.0000
     13  C7        27.9560   25.1390  -17.8190 C.ar  400  KYT400      0.0000
     14  C8        26.8980   25.1500  -18.6290 C.ar  400  KYT400      0.0000
     15  N1        24.1400   23.1230  -15.7070 N.3   400  KYT400      0.0000
     16  C1        23.5310   24.2740  -15.0690 C.3   400  KYT400      0.0000
     17  C2        22.0860   24.0280  -14.6350 C.3   400  KYT400      0.0000
     18  N3        21.4190   25.3020  -14.9150 N.am  400  KYT400      0.0000
     19  C15       20.1460   25.6070  -14.6280 C.2   400  KYT400      0.0000
     20  O1        19.6760   26.6670  -15.0050 O.2   400  KYT400      0.0000
     21  C16       19.2690   24.6410  -13.8480 C.3   400  KYT400      0.0000
     22  C17       18.0920   25.3650  -13.1780 C.3   400  KYT400      0.0000
     23  C18       18.5530   26.0710  -11.9030 C.3   400  KYT400      0.0000
     24  C19       17.5290   27.0440  -11.3190 C.3   400  KYT400      0.0000
     25  C20       18.1090   27.7550  -10.0950 C.3   400  KYT400      0.0000
     26  C21       17.4920   29.1120   -9.7620 C.3   400  KYT400      0.0000
     27  N4        16.0350   29.0650   -9.7540 N.2   400  KYT400      0.0000
     28  S1        17.9960   26.7480   -8.6440 S.3   400  KYT400      0.0000
     29  C22       18.4330   28.1570   -7.6740 C.3   400  KYT400      0.0000
     30  C23       17.7780   29.3880   -8.2910 C.3   400  KYT400      0.0000
     31  C24       15.5410   29.3420   -8.6230 C.1   400  KYT400      0.0000
     32  O2        14.3460   29.2910   -8.3660 O.2   400  KYT400      0.0000
     33 RU1        26.0260   24.4460  -16.6160 Ru    400  KYT400      0.0000
     34  N5        16.4320   29.5120   -7.7470 N.2   400  KYT400      0.0000
@<TRIPOS>BOND
     1    12    11    1
     2    11    14   ar
     3    11    10   ar
     4    14    13   ar
     5    10     9   ar
     6    10    33    1
     7    13     5   ar
     8     9     5   ar
     9     5     6    1
    10     7     6    1
    11     6     8    1
    12     3     2    1
    13     3     4    1
    14     3    16    1
    15    15    16    1
    16     4    18    1
    17    16    17    1
    18    20    19    2
    19    18    17    1
    20    18    19   am
    21    19    21    1
    22    21    22    1
    23    22    23    1
    24    23    24    1
    25    24    25    1
    26    25    26    1
    27    25    28    1
    28    26    27    1
    29    26    30    1
    30    27    31    2
    31    28    29    1
    32    31    32    2
    33    31    34    2
    34    30    34    1
    35    30    29    1
