@<TRIPOS>MOLECULE
2wq4_SFU_A_1.pdb
 12 12 0 0 0
SMALL
GASTEIGER

@<TRIPOS>ATOM
      1  C1        11.7480   -7.5570   -9.6240 C.3   200  SFU200      0.0000
      2  C2        13.0240   -6.8600   -9.1690 C.3   200  SFU200      0.0000
      3  C3        13.3370   -5.6900  -10.1060 C.3   200  SFU200      0.0000
      4  C4        12.1440   -4.7640  -10.2110 C.3   200  SFU200      0.0000
      5  C5        10.8810   -5.5280  -10.6560 C.3   200  SFU200      0.0000
      6  C6         9.6200   -4.6880  -10.7040 C.3   200  SFU200      0.0000
      7  O2        14.1220   -7.7870   -9.1560 O.3   200  SFU200      0.0000
      8  O3        14.5130   -5.0360   -9.6470 O.3   200  SFU200      0.0000
      9  O4        11.9140   -4.1960   -8.9070 O.3   200  SFU200      0.0000
     10  O5        10.6480   -6.6350   -9.7410 O.3   200  SFU200      0.0000
     11  CM        10.2190   -9.1280  -11.4780 C.3   200  SFU200      0.0000
     12 SE         12.0730   -8.5680  -11.3060 Se    200  SFU200      0.0000
@<TRIPOS>BOND
     1    11    12    1
     2    12     1    1
     3     6     5    1
     4     5     4    1
     5     5    10    1
     6     4     3    1
     7     4     9    1
     8     3     8    1
     9     3     2    1
    10    10     1    1
    11     1     2    1
    12     2     7    1
