@<TRIPOS>MOLECULE
2wq5_MIY_A_1.pdb
 33 36 0 0 0
SMALL
GASTEIGER

@<TRIPOS>ATOM
      1  O8       -13.7090   17.5040   15.1700 O.2   1120  MIY1120    -0.2711
      2  C21      -13.0470   16.6000   15.7240 C.2   1120  MIY1120     0.2700
      3  N2       -11.8290   16.8560   16.2090 N.am  1120  MIY1120    -0.0874
      4  C2       -13.6040   15.2540   15.8250 C.3   1120  MIY1120     0.1715
      5  C1       -14.8170   14.9630   16.5640 C.2   1120  MIY1120     0.1960
      6  O1       -15.7110   15.7740   16.7120 O.2   1120  MIY1120    -0.2924
      7  C3       -13.2320   14.3450   14.9440 C.3   1120  MIY1120     0.1823
      8  O2       -13.0120   14.7870   13.7140 O.3   1120  MIY1120    -0.2207
      9  C4       -13.4820   12.8690   15.1850 C.3   1120  MIY1120     0.0922
     10  N1       -12.1880   12.3600   15.7290 N.3   1120  MIY1120    -0.2692
     11  C20      -12.2500   10.8890   15.7920 C.3   1120  MIY1120     0.0897
     12  C19      -11.7830   12.8300   17.0640 C.3   1120  MIY1120     0.0897
     13  C5       -14.7580   12.5840   15.9820 C.3   1120  MIY1120     0.0596
     14  C18      -14.9310   13.5760   17.1120 C.3   1120  MIY1120     0.2327
     15  O7       -13.8710   13.3470   18.0320 O.3   1120  MIY1120    -0.2101
     16  C17      -16.2480   13.4220   17.8170 C.2   1120  MIY1120     0.2063
     17  O6       -16.3570   14.0150   19.0040 O.2   1120  MIY1120    -0.2885
     18  C16      -17.2650   12.7430   17.2740 C.2   1120  MIY1120     0.0543
     19  C7       -17.1760   12.0490   15.9340 C.3   1120  MIY1120     0.0330
     20  C6       -15.9990   12.5490   15.0990 C.3   1120  MIY1120     0.0096
     21  C15      -18.5130   12.6370   18.0160 C.2   1120  MIY1120     0.1973
     22  O5       -18.6120   13.1840   19.1610 O.2   1120  MIY1120    -0.2867
     23  C14      -19.6620   11.9330   17.3640 C.ar  1120  MIY1120     0.0748
     24  C9       -19.6440   11.7150   15.9880 C.ar  1120  MIY1120    -0.0024
     25  C8       -18.4730   12.2270   15.1650 C.3   1120  MIY1120     0.0324
     26  C13      -20.7220   11.4660   18.1310 C.ar  1120  MIY1120     0.1985
     27  O4       -20.7440   11.6730   19.4460 O.3   1120  MIY1120    -0.2865
     28  C12      -21.7790   10.7950   17.5090 C.ar  1120  MIY1120     0.0434
     29  C11      -21.7720   10.5910   16.1330 C.ar  1120  MIY1120     0.0175
     30  C10      -20.6950   11.0470   15.3600 C.ar  1120  MIY1120     0.0442
     31  N7       -20.6560   10.8580   13.9620 N.pl3 1120  MIY1120    -0.3043
     32  CN7      -20.9820   12.1140   13.2920 C.3   1120  MIY1120     0.1122
     33  C71      -21.5860    9.8450   13.4760 C.3   1120  MIY1120     0.1122
@<TRIPOS>BOND
     1    32    31    1
     2    33    31    1
     3     8     7    1
     4    31    30    1
     5     7     9    1
     6     7     4    1
     7    20    19    1
     8    20    13    1
     9    25    19    1
    10    25    24    1
    11     1     2    2
    12     9    10    1
    13     9    13    1
    14    30    24   ar
    15    30    29   ar
    16     2     4    1
    17     2     3   am
    18    10    11    1
    19    10    12    1
    20     4     5    1
    21    19    18    1
    22    13    14    1
    23    24    23   ar
    24    29    28   ar
    25     5     6    2
    26     5    14    1
    27    14    16    1
    28    14    15    1
    29    18    16    2
    30    18    21    1
    31    23    21    1
    32    23    26   ar
    33    28    26   ar
    34    16    17    1
    35    21    22    2
    36    26    27    1
