@<TRIPOS>MOLECULE
2wq9_OLA_A_1.pdb
 20 19 0 0 0
SMALL
GASTEIGER

@<TRIPOS>ATOM
      1  C1       -16.5070    4.1210   25.4910 C.2   1179  OLA1179     0.3649
      2  O1       -16.2350    4.9980   26.3480 O.co2 1179  OLA1179    -0.2457
      3  O2       -16.6170    2.9380   25.8470 O.co2 1179  OLA1179    -0.2457
      4  C2       -16.7280    4.4850   24.0430 C.3   1179  OLA1179     0.1141
      5  C3       -16.1460    5.8580   23.7270 C.3   1179  OLA1179     0.0118
      6  C4       -14.6770    5.7490   23.3490 C.3   1179  OLA1179     0.0006
      7  C5       -14.2000    7.0420   22.6970 C.3   1179  OLA1179     0.0000
      8  C6       -13.4560    7.8890   23.7150 C.3   1179  OLA1179     0.0000
      9  C7       -12.5730    8.9280   23.0460 C.3   1179  OLA1179     0.0000
     10  C8       -13.3360   10.2240   22.8400 C.3   1179  OLA1179     0.0000
     11  C9       -12.3500   11.3240   22.5530 C.3   1179  OLA1179     0.0000
     12  C10      -12.5440   12.6280   23.1960 C.3   1179  OLA1179     0.0000
     13  C11      -13.2970   13.7020   22.4610 C.3   1179  OLA1179     0.0000
     14  C12      -14.7670   13.3330   22.3180 C.3   1179  OLA1179     0.0000
     15  C13      -15.5780   13.8840   23.4790 C.3   1179  OLA1179     0.0000
     16  C14      -17.0010   13.3450   23.4000 C.3   1179  OLA1179     0.0000
     17  C15      -17.3190   12.4610   24.5990 C.3   1179  OLA1179     0.0000
     18  C16      -17.0440   10.9730   24.3780 C.3   1179  OLA1179     0.0000
     19  C17      -17.2930   10.5170   22.9440 C.3   1179  OLA1179     0.0000
     20  C18      -18.7530   10.1720   22.7120 C.3   1179  OLA1179     0.0000
@<TRIPOS>BOND
     1    14    13    1
     2    14    15    1
     3    13    12    1
     4    11    10    1
     5    11    12    1
     6     7     6    1
     7     7     8    1
     8    20    19    1
     9    10     9    1
    10    19    18    1
    11     9     8    1
    12     6     5    1
    13    16    15    1
    14    16    17    1
    15     5     4    1
    16     4     1    1
    17    18    17    1
    18     1     3   ar
    19     1     2   ar
