@<TRIPOS>MOLECULE
2wqa_OLA_E_1.pdb
 20 19 0 0 0
SMALL
GASTEIGER

@<TRIPOS>ATOM
      1  C1        16.9250   -6.3030    1.8530 C.2   1177  OLA1177     0.3649
      2  O1        17.7810   -5.9400    2.6950 O.co2 1177  OLA1177    -0.2457
      3  O2        16.4880   -7.4610    1.9290 O.co2 1177  OLA1177    -0.2457
      4  C2        16.3980   -5.3910    0.7760 C.3   1177  OLA1177     0.1141
      5  C3        17.4070   -4.3160    0.4450 C.3   1177  OLA1177     0.0118
      6  C4        18.8120   -4.8560    0.3060 C.3   1177  OLA1177     0.0006
      7  C5        19.6100   -3.9030   -0.5570 C.3   1177  OLA1177     0.0000
      8  C6        20.2260   -2.8770    0.3590 C.3   1177  OLA1177     0.0000
      9  C7        21.7210   -2.9910    0.2350 C.3   1177  OLA1177     0.0000
     10  C8        22.3620   -1.8010    0.9050 C.3   1177  OLA1177     0.0000
     11  C9        22.8670   -0.9200   -0.1960 C.3   1177  OLA1177     0.0000
     12  C10       23.9770   -0.0050    0.1090 C.3   1177  OLA1177     0.0000
     13  C11       23.9460    0.8840    1.3270 C.3   1177  OLA1177     0.0000
     14  C12       23.2000    2.1260    0.8970 C.3   1177  OLA1177     0.0000
     15  C13       22.0300    2.2980    1.8300 C.3   1177  OLA1177     0.0000
     16  C14       20.9040    2.6990    0.9290 C.3   1177  OLA1177     0.0000
     17  C15       19.7480    2.9860    1.8440 C.3   1177  OLA1177     0.0000
     18  C16       19.4380    1.7000    2.6130 C.3   1177  OLA1177     0.0000
     19  C17       18.7840    0.6400    1.7180 C.3   1177  OLA1177     0.0000
     20  C18       17.6250    1.1840    0.8830 C.3   1177  OLA1177     0.0000
@<TRIPOS>BOND
     1     7     6    1
     2     7     8    1
     3    11    12    1
     4    11    10    1
     5    12    13    1
     6     9     8    1
     7     9    10    1
     8     6     5    1
     9     5     4    1
    10     4     1    1
    11    20    19    1
    12    14    13    1
    13    14    15    1
    14    16    15    1
    15    16    17    1
    16    19    18    1
    17    17    18    1
    18     1     3   ar
    19     1     2   ar
