@<TRIPOS>MOLECULE
2wqb_QQ1_A_1.pdb
 28 32 0 0 0
SMALL
GASTEIGER

@<TRIPOS>ATOM
      1  C1        33.1710   42.4900   34.6710 C.ar  2121  QQ12121     0.0000
      2  C2        34.5110   42.7900   34.6760 C.ar  2121  QQ12121     0.0000
      3  C6        32.7440   41.2340   35.0320 C.ar  2121  QQ12121     0.0000
      4  C3        35.4390   41.8280   35.0530 C.ar  2121  QQ12121     0.0012
      5  C5        33.6570   40.2670   35.4100 C.ar  2121  QQ12121     0.0012
      6  C24       39.9340   44.6280   38.6820 C.3   2121  QQ12121     0.3927
      7  C10       36.8400   37.5910   36.0250 C.3   2121  QQ12121     0.2011
      8  C4        35.0190   40.5520   35.4270 C.ar  2121  QQ12121     0.0149
      9  C21       37.9490   42.8740   38.2050 C.2   2121  QQ12121     0.2447
     10  C7        36.0050   39.5310   35.8530 C.2   2121  QQ12121     0.0772
     11  C8        37.1460   39.6760   36.5800 C.3   2121  QQ12121     0.1585
     12  C22       37.6820   44.1050   38.8950 C.2   2121  QQ12121     0.4440
     13  C26       39.2540   42.6780   37.8100 C.2   2121  QQ12121     0.1491
     14  C19       37.7570   40.8770   37.1690 C.2   2121  QQ12121     0.1604
     15  C16       38.4270   37.3010   41.5580 C.3   2121  QQ12121     0.0000
     16  C15       39.7630   37.0380   40.9070 C.3   2121  QQ12121     0.0000
     17  C17       37.2910   37.0000   40.6280 C.3   2121  QQ12121     0.0000
     18  C14       39.8590   37.7820   39.5990 C.3   2121  QQ12121     0.0014
     19  C18       37.4570   37.7670   39.3370 C.3   2121  QQ12121     0.0014
     20  C13       38.7410   37.3700   38.6820 C.3   2121  QQ12121     0.0161
     21  C12       38.9070   37.9740   37.3360 C.3   2121  QQ12121     0.0745
     22  N23       38.7140   44.9690   39.1170 N.2   2121  QQ12121    -0.0269
     23  N25       40.2640   43.5060   38.0260 N.2   2121  QQ12121    -0.2091
     24  N11       35.8190   38.1980   35.5130 N.2   2121  QQ12121    -0.2548
     25  N20       37.1090   41.8160   37.8160 N.2   2121  QQ12121    -0.3881
     26  N9        37.6780   38.4040   36.6840 N.3   2121  QQ12121    -0.2423
     27  N28       36.4830   44.4680   39.3400 N.pl3 2121  QQ12121     0.2190
     28  S27       39.4560   41.1800   36.9720 S.3   2121  QQ12121    -0.0365
@<TRIPOS>BOND
     1     1     2   ar
     2     1     3   ar
     3     2     4   ar
     4     3     5   ar
     5     4     8   ar
     6     5     8   ar
     7     8    10    1
     8    24    10    2
     9    24     7    1
    10    10    11    1
    11     7    26    1
    12    11    26    1
    13    11    14    1
    14    26    21    1
    15    28    14    1
    16    28    13    1
    17    14    25    2
    18    21    20    1
    19    13    23    2
    20    13     9    1
    21    25     9    2
    22    23     6    1
    23     9    12    1
    24    20    19    1
    25    20    18    1
    26     6    22    1
    27    12    22    2
    28    12    27    1
    29    19    17    1
    30    18    16    1
    31    17    15    1
    32    16    15    1
