@<TRIPOS>MOLECULE
2wqe_ADP_A_1.pdb
 27 29 0 0 0
SMALL
GASTEIGER

@<TRIPOS>ATOM
      1  PB       -18.0210    9.7620   -7.9270 P.3   1389  ADP1389     0.5373
      2  O1B      -18.3410    8.4960   -7.1500 O.3   1389  ADP1389    -0.1143
      3  O2B      -17.0260   10.6770   -7.2490 O.3   1389  ADP1389    -0.1143
      4  O3B      -17.7610    9.5130   -9.3940 O.2   1389  ADP1389    -0.2221
      5  PA       -20.5040   10.5680   -6.8510 P.3   1389  ADP1389     0.2231
      6  O1A      -20.8900    9.1140   -6.6920 O.2   1389  ADP1389    -0.5169
      7  O2A      -20.0000   11.4190   -5.7090 O.3   1389  ADP1389    -0.4370
      8  O3A      -19.3750   10.6430   -7.9980 O.3   1389  ADP1389    -0.2261
      9  O5'      -21.7880   11.2710   -7.5210 O.3   1389  ADP1389    -0.3111
     10  C5'      -21.6990   11.9460   -8.7650 C.3   1389  ADP1389     0.1813
     11  C4'      -22.6250   13.1370   -8.6980 C.3   1389  ADP1389     0.1821
     12  O4'      -23.6190   12.9270   -7.6870 O.3   1389  ADP1389    -0.3135
     13  C3'      -21.8680   14.3710   -8.2630 C.3   1389  ADP1389     0.2184
     14  O3'      -21.3150   15.0490   -9.3910 O.3   1389  ADP1389    -0.2174
     15  C2'      -22.9230   15.1850   -7.5510 C.3   1389  ADP1389     0.2570
     16  O2'      -23.5720   16.0550   -8.4800 O.3   1389  ADP1389    -0.2130
     17  C1'      -23.9460   14.1770   -7.0650 C.3   1389  ADP1389     0.3186
     18  N9       -23.7870   14.1090   -5.5950 N.pl3 1389  ADP1389    -0.1439
     19  C8       -23.0200   13.2330   -4.9160 C.3   1389  ADP1389     0.3377
     20  N7       -23.0930   13.4540   -3.5750 N.2   1389  ADP1389    -0.2095
     21  C5       -23.9170   14.5020   -3.3810 C.2   1389  ADP1389     0.2526
     22  C6       -24.4310   15.2670   -2.2180 C.2   1389  ADP1389     0.4393
     23  N6       -24.0770   14.9650   -0.9500 N.pl3 1389  ADP1389     0.2180
     24  N1       -25.2740   16.2930   -2.4740 N.2   1389  ADP1389     0.0021
     25  C2       -25.6480   16.6310   -3.7250 C.3   1389  ADP1389     0.5254
     26  N3       -25.2150   15.9870   -4.8260 N.2   1389  ADP1389    -0.0055
     27  C4       -24.3650   14.9340   -4.7210 C.2   1389  ADP1389     0.3518
@<TRIPOS>BOND
     1     4     1    2
     2    14    13    1
     3    10    11    1
     4    10     9    1
     5    11    13    1
     6    11    12    1
     7    16    15    1
     8    13    15    1
     9     8     1    1
    10     8     5    1
    11     1     3    1
    12     1     2    1
    13    12    17    1
    14    15    17    1
    15     9     5    1
    16    17    18    1
    17     5     6    2
    18     5     7    1
    19    18    19    1
    20    18    27    1
    21    19    20    1
    22    26    27    2
    23    26    25    1
    24    27    21    1
    25    25    24    1
    26    20    21    2
    27    21    22    1
    28    24    22    2
    29    22    23    1
