@<TRIPOS>MOLECULE
2wqf_FMN_A_1.pdb
 50 52 0 0 0
SMALL
GASTEIGER

@<TRIPOS>ATOM
      1  N1       -14.6830   16.0370   16.6000 N.2   1203  FMN1203    -0.3029
      2  C2       -15.7020   15.4170   15.7420 C.1   1203  FMN1203     0.2727
      3  O2       -16.7640   15.9700   15.5670 O.2   1203  FMN1203    -0.1927
      4  N3       -15.4350   14.1200   15.1930 N.am  1203  FMN1203    -0.1956
      5  C4       -14.2470   13.4450   15.4020 C.2   1203  FMN1203     0.2930
      6  O4       -14.0490   12.4070   14.8340 O.2   1203  FMN1203    -0.2661
      7  C4A      -13.2400   14.0540   16.2770 C.2   1203  FMN1203     0.2295
      8  N5       -12.1190   13.4850   16.5700 N.2   1203  FMN1203    -0.3962
      9  C5A      -11.0140   14.3230   17.1380 C.2   1203  FMN1203     0.1228
     10  C6        -9.6200   13.7710   17.1290 C.2   1203  FMN1203    -0.0228
     11  C7        -8.5860   14.4870   17.5540 C.2   1203  FMN1203    -0.0450
     12  C7M       -7.2070   13.8650   17.5520 C.3   1203  FMN1203    -0.0394
     13  C8        -8.8340   15.9020   18.0310 C.2   1203  FMN1203    -0.0489
     14  C8M       -7.6580   16.7650   18.4540 C.3   1203  FMN1203    -0.0397
     15  C9       -10.0730   16.4040   18.0740 C.2   1203  FMN1203    -0.0478
     16  C9A      -11.2420   15.5820   17.5940 C.3   1203  FMN1203     0.1409
     17  N10      -12.5890   16.0580   17.6300 N.pl3 1203  FMN1203    -0.2812
     18  C10      -13.5430   15.4040   16.8480 C.2   1203  FMN1203     0.2319
     19  C1'      -12.9140   17.3690   18.1750 C.3   1203  FMN1203     0.0444
     20  C2'      -12.8010   17.3660   19.6970 C.3   1203  FMN1203     0.0992
     21  O2'      -13.9030   16.6850   20.2380 O.3   1203  FMN1203    -0.3876
     22  C3'      -12.7200   18.8230   20.1590 C.3   1203  FMN1203     0.1104
     23  O3'      -11.4800   19.2990   19.6720 O.3   1203  FMN1203    -0.3865
     24  C4'      -12.7310   18.9140   21.6950 C.3   1203  FMN1203     0.1073
     25  O4'      -14.0090   18.5500   22.1960 O.3   1203  FMN1203    -0.3868
     26  C5'      -12.3700   20.3120   22.1930 C.3   1203  FMN1203     0.0876
     27  O5'      -13.2860   21.2450   21.6370 O.3   1203  FMN1203    -0.2809
     28  P        -12.7360   22.4650   20.7030 P.3   1203  FMN1203     0.5320
     29  O1P      -11.6850   23.2020   21.4300 O.3   1203  FMN1203    -0.1145
     30  O2P      -12.1740   21.8370   19.3710 O.2   1203  FMN1203    -0.2224
     31  O3P      -14.0150   23.3630   20.4100 O.3   1203  FMN1203    -0.1145
     32  HN3      -16.1280   13.6960   14.6080 H     1203  FMN1203     0.1693
     33  H6        -9.4460   12.7820   16.7240 H     1203  FMN1203     0.0649
     34 HM71       -7.2340   12.9230   18.0920 H     1203  FMN1203     0.0278
     35 HM72       -6.8920   13.6870   16.5280 H     1203  FMN1203     0.0278
     36 HM73       -6.5050   14.5400   18.0340 H     1203  FMN1203     0.0278
     37 HM81       -7.0820   16.2440   19.2140 H     1203  FMN1203     0.0278
     38 HM82       -7.0250   16.9620   17.5930 H     1203  FMN1203     0.0278
     39 HM83       -8.0240   17.7040   18.8580 H     1203  FMN1203     0.0278
     40  H9       -10.2390   17.3990   18.4680 H     1203  FMN1203     0.0601
     41 H1'1      -12.2290   18.1050   17.7680 H     1203  FMN1203     0.0491
     42 H1'2      -13.9290   17.6310   17.8930 H     1203  FMN1203     0.0491
     43  H2'      -11.8910   16.8520   19.9840 H     1203  FMN1203     0.0636
     44 HO2'      -14.3470   17.2450   20.8570 H     1203  FMN1203     0.2100
     45  H3'      -13.5370   19.3990   19.7400 H     1203  FMN1203     0.0646
     46 HO3'      -11.6320   19.9960   19.0520 H     1203  FMN1203     0.2100
     47  H4'      -12.0000   18.2150   22.0830 H     1203  FMN1203     0.0643
     48 HO4'      -14.5330   19.3260   22.3170 H     1203  FMN1203     0.2100
     49 H5'1      -12.4330   20.3400   23.2750 H     1203  FMN1203     0.0592
     50 H5'2      -11.3610   20.5600   21.8800 H     1203  FMN1203     0.0592
@<TRIPOS>BOND
     1    32     4    1
     2     6     5    2
     3     4     5   am
     4     4     2   am
     5     5     7    1
     6     3     2    2
     7     2     1    2
     8     7     8    2
     9     7    18    1
    10    35    12    1
    11     8     9    2
    12     1    18    2
    13    33    10    1
    14    18    17    1
    15    10     9    1
    16    10    11    2
    17     9    16    1
    18    12    11    1
    19    12    36    1
    20    12    34    1
    21    11    13    1
    22    38    14    1
    23    16    17    1
    24    16    15    1
    25    17    19    1
    26    41    19    1
    27    42    19    1
    28    13    15    2
    29    13    14    1
    30    15    40    1
    31    19    20    1
    32    14    39    1
    33    14    37    1
    34    46    23    1
    35    30    28    2
    36    23    22    1
    37    20    43    1
    38    20    22    1
    39    20    21    1
    40    45    22    1
    41    22    24    1
    42    21    44    1
    43    31    28    1
    44    28    29    1
    45    28    27    1
    46    27    26    1
    47    24    47    1
    48    24    26    1
    49    24    25    1
    50    50    26    1
    51    26    49    1
    52    25    48    1
