@<TRIPOS>MOLECULE
2wql_P4C_A_1.pdb
 22 21 0 0 0
SMALL
GASTEIGER

@<TRIPOS>ATOM
      1  O1        59.8410  -20.2210   57.8270 O.2   200  P4C200     -0.2855
      2  C2        58.7020  -19.9780   58.2190 C.2   200  P4C200      0.2396
      3  C3        57.6690  -21.0770   58.3910 C.3   200  P4C200      0.2140
      4  O4        56.4790  -20.4790   58.9370 O.3   200  P4C200     -0.3428
      5  C5        55.5290  -21.3610   59.5760 C.3   200  P4C200      0.1747
      6  C6        54.6370  -20.5240   60.5040 C.3   200  P4C200      0.1742
      7  O7        53.4260  -20.1460   59.8560 O.3   200  P4C200     -0.3484
      8  C8        52.4700  -21.2140   59.6740 C.3   200  P4C200      0.1742
      9  C9        51.9150  -21.3290   58.2350 C.3   200  P4C200      0.1742
     10  O10       52.3480  -22.5590   57.6040 O.3   200  P4C200     -0.3484
     11  C11       52.3180  -22.5400   56.1640 C.3   200  P4C200      0.1742
     12  C12       53.7260  -22.5130   55.5720 C.3   200  P4C200      0.1742
     13  O13       53.9200  -21.3270   54.7860 O.3   200  P4C200     -0.3484
     14  C14       55.1910  -21.2410   54.1280 C.3   200  P4C200      0.1742
     15  C15       56.2580  -20.6790   55.0610 C.3   200  P4C200      0.1742
     16  O16       56.5130  -19.3000   54.7860 O.3   200  P4C200     -0.3484
     17  C17       56.9500  -18.5250   55.9290 C.3   200  P4C200      0.1742
     18  C18       56.4240  -17.0730   55.8610 C.3   200  P4C200      0.1742
     19  O19       56.3460  -16.4340   57.1590 O.3   200  P4C200     -0.3483
     20  C20       55.0120  -16.2680   57.6820 C.3   200  P4C200      0.1777
     21  C21       55.0290  -16.3010   59.2240 C.3   200  P4C200      0.2140
     22  O22       54.1020  -17.2400   59.8190 O.3   200  P4C200     -0.2176
@<TRIPOS>BOND
     1    14    13    1
     2    14    15    1
     3    16    15    1
     4    16    17    1
     5    13    12    1
     6    12    11    1
     7    18    17    1
     8    18    19    1
     9    11    10    1
    10    19    20    1
    11    10     9    1
    12    20    21    1
    13     1     2    2
    14     2     3    1
    15     9     8    1
    16     3     4    1
    17     4     5    1
    18    21    22    1
    19     5     6    1
    20     8     7    1
    21     7     6    1
