@<TRIPOS>MOLECULE
2wqn_ADP_A_1.pdb
 27 29 0 0 0
SMALL
GASTEIGER

@<TRIPOS>ATOM
      1  PB        -8.3400  -33.3460  -51.5340 P.3   1301  ADP1301     0.5373
      2  O1B       -8.2790  -31.8700  -51.8650 O.3   1301  ADP1301    -0.1143
      3  O2B       -9.2670  -34.1340  -52.4230 O.2   1301  ADP1301    -0.2221
      4  O3B       -6.9950  -34.0110  -51.3470 O.3   1301  ADP1301    -0.1143
      5  PA       -10.0340  -32.2710  -49.4790 P.3   1301  ADP1301     0.2231
      6  O1A       -9.2870  -31.4470  -48.4570 O.3   1301  ADP1301    -0.4370
      7  O2A      -10.7390  -31.5870  -50.6300 O.2   1301  ADP1301    -0.5169
      8  O3A       -9.0360  -33.4100  -50.0670 O.3   1301  ADP1301    -0.2261
      9  O5'      -11.1360  -33.1410  -48.6800 O.3   1301  ADP1301    -0.3111
     10  C5'      -12.4930  -33.1760  -49.1340 C.3   1301  ADP1301     0.1813
     11  C4'      -13.4940  -32.9760  -47.9940 C.3   1301  ADP1301     0.1821
     12  O4'      -12.9870  -33.4940  -46.7580 O.3   1301  ADP1301    -0.3135
     13  C3'      -13.8080  -31.5020  -47.7770 C.3   1301  ADP1301     0.2184
     14  O3'      -15.2090  -31.2750  -47.9680 O.3   1301  ADP1301    -0.2174
     15  C2'      -13.4360  -31.2120  -46.3360 C.3   1301  ADP1301     0.2570
     16  O2'      -14.4650  -30.4530  -45.6880 O.3   1301  ADP1301    -0.2130
     17  C1'      -13.2450  -32.5790  -45.6880 C.3   1301  ADP1301     0.3186
     18  N9       -12.1090  -32.5240  -44.7270 N.pl3 1301  ADP1301    -0.1439
     19  C8       -10.8120  -32.3310  -45.0400 C.3   1301  ADP1301     0.3377
     20  N7       -10.0340  -32.3190  -43.9260 N.2   1301  ADP1301    -0.2095
     21  C5       -10.8400  -32.5070  -42.8620 C.2   1301  ADP1301     0.2526
     22  C6       -10.6710  -32.6010  -41.3880 C.2   1301  ADP1301     0.4393
     23  N6        -9.4510  -32.4910  -40.8000 N.pl3 1301  ADP1301     0.2180
     24  N1       -11.7870  -32.7980  -40.6430 N.2   1301  ADP1301     0.0021
     25  C2       -13.0060  -32.9100  -41.2050 C.3   1301  ADP1301     0.5254
     26  N3       -13.2330  -32.8340  -42.5300 N.2   1301  ADP1301    -0.0055
     27  C4       -12.2090  -32.6360  -43.3970 C.2   1301  ADP1301     0.3518
@<TRIPOS>BOND
     1     3     1    2
     2     2     1    1
     3     1     4    1
     4     1     8    1
     5     7     5    2
     6     8     5    1
     7     5     9    1
     8     5     6    1
     9    10     9    1
    10    10    11    1
    11    11    13    1
    12    11    12    1
    13    14    13    1
    14    13    15    1
    15    12    17    1
    16    15    16    1
    17    15    17    1
    18    17    18    1
    19    19    18    1
    20    19    20    1
    21    18    27    1
    22    20    21    2
    23    27    21    1
    24    27    26    2
    25    21    22    1
    26    26    25    1
    27    22    23    1
    28    22    24    2
    29    25    24    1
