@<TRIPOS>MOLECULE
2wqo_VGK_A_1.pdb
 28 30 0 0 0
SMALL
GASTEIGER

@<TRIPOS>ATOM
      1  C01       27.7090  -10.1930   24.9340 C.3   1280  VGK1280     0.2526
      2  O02       28.3910  -10.1580   23.7050 O.3   1280  VGK1280    -0.4683
      3  C03       27.7100  -10.3830   22.5400 C.ar  1280  VGK1280     0.1754
      4  C04       27.1040   -9.3250   21.8740 C.ar  1280  VGK1280     0.0403
      5  C05       26.4100   -9.5550   20.6660 C.ar  1280  VGK1280     0.0077
      6  C06       25.7940   -8.4940   20.0140 C.ar  1280  VGK1280     0.0195
      7  C07       25.6980   -7.2420   20.6360 C.ar  1280  VGK1280     0.1004
      8  N08       25.1160   -6.2000   19.9750 N.ar  1280  VGK1280    -0.2259
      9  C09       24.5970   -6.3600   18.7190 C.ar  1280  VGK1280     0.1696
     10  N10       23.9650   -5.2830   18.0280 N.pl3 1280  VGK1280    -0.1072
     11  C11       24.6910   -7.6290   18.1030 C.ar  1280  VGK1280     0.0348
     12  C12       24.1620   -7.8250   16.8300 C.ar  1280  VGK1280     0.0028
     13  C13       24.9980   -8.2350   15.7790 C.ar  1280  VGK1280     0.0003
     14  C14       24.4770   -8.3990   14.4930 C.ar  1280  VGK1280     0.0066
     15  C15       23.1350   -8.1550   14.2560 C.ar  1280  VGK1280     0.0798
     16  C16       22.5760   -8.3190   12.8410 C.2   1280  VGK1280     0.3878
     17  O17       21.4880   -7.8910   12.5800 O.co2 1280  VGK1280    -0.2406
     18  O18       23.3650   -8.8790   11.8350 O.co2 1280  VGK1280    -0.2406
     19  C19       22.2870   -7.7250   15.2850 C.ar  1280  VGK1280     0.0066
     20  C20       22.8030   -7.5580   16.5790 C.ar  1280  VGK1280     0.0003
     21  C21       25.2800   -8.6840   18.7420 C.ar  1280  VGK1280     0.0044
     22  C22       26.3060  -10.8320   20.1540 C.ar  1280  VGK1280     0.0403
     23  C23       26.9290  -11.9280   20.8270 C.ar  1280  VGK1280     0.1754
     24  O24       26.8540  -13.2300   20.3080 O.3   1280  VGK1280    -0.4683
     25  C25       26.2790  -13.4290   19.0200 C.3   1280  VGK1280     0.2526
     26  C26       27.6120  -11.7020   22.0130 C.ar  1280  VGK1280     0.2061
     27  O27       28.2110  -12.7540   22.6730 O.3   1280  VGK1280    -0.4654
     28  C28       29.6250  -12.8580   22.6780 C.3   1280  VGK1280     0.2528
@<TRIPOS>BOND
     1    18    16   ar
     2    17    16   ar
     3    16    15    1
     4    15    14   ar
     5    15    19   ar
     6    14    13   ar
     7    19    20   ar
     8    13    12   ar
     9    20    12   ar
    10    12    11    1
    11    10     9    1
    12    11     9   ar
    13    11    21   ar
    14     9     8   ar
    15    21     6   ar
    16    25    24    1
    17     8     7   ar
    18     6     7   ar
    19     6     5    1
    20    22     5   ar
    21    22    23   ar
    22    24    23    1
    23     5     4   ar
    24    23    26   ar
    25     4     3   ar
    26    26     3   ar
    27    26    27    1
    28     3     2    1
    29    27    28    1
    30     2     1    1
