@<TRIPOS>MOLECULE
2wqp_WQP_A_1.pdb
 25 24 0 0 0
SMALL
GASTEIGER

@<TRIPOS>ATOM
      1  OAE       95.7180  -19.7390   55.4620 O.3   1350  WQP1350    -0.1145
      2  PAD       96.2220  -18.8830   54.3400 P.3   1350  WQP1350     0.5330
      3  OAA       96.6930  -17.4820   54.7370 O.3   1350  WQP1350    -0.1145
      4  OAC       95.3710  -19.0110   53.0950 O.2   1350  WQP1350    -0.2224
      5  OAH       97.6280  -19.5900   53.9530 O.3   1350  WQP1350    -0.2611
      6  CAN       97.9380  -20.3200   52.7920 C.3   1350  WQP1350     0.2310
      7  CAM       99.4330  -20.4590   52.7460 C.2   1350  WQP1350     0.3920
      8  OAV      100.1020  -19.6700   53.4430 O.co2 1350  WQP1350    -0.2429
      9  OAL       99.9400  -21.3300   52.0000 O.co2 1350  WQP1350    -0.2429
     10  CAO       97.2590  -21.6850   52.7730 C.3   1350  WQP1350     0.0766
     11  CAP       96.5660  -21.8730   51.4250 C.3   1350  WQP1350     0.1774
     12  OAW       95.4130  -21.0130   51.4280 O.3   1350  WQP1350    -0.2211
     13  CAQ       96.1790  -23.3480   51.1770 C.3   1350  WQP1350     0.1585
     14  NAI       95.2390  -23.7710   52.2060 N.am  1350  WQP1350    -0.2018
     15  CAF       95.5590  -24.6390   53.1650 C.2   1350  WQP1350     0.2420
     16  CAG       94.4740  -24.9830   54.1330 C.3   1350  WQP1350     0.0964
     17  OAB       96.6610  -25.1380   53.2590 O.2   1350  WQP1350    -0.2733
     18  CAR       95.5570  -23.5740   49.7890 C.3   1350  WQP1350     0.2070
     19  OAX       96.3020  -22.9300   48.7410 O.3   1350  WQP1350    -0.2184
     20  CAS       95.4180  -25.0540   49.4470 C.3   1350  WQP1350     0.2166
     21  OAJ       96.7320  -25.6300   49.2750 O.3   1350  WQP1350    -0.2175
     22  CAT       94.5900  -25.2840   48.1710 C.3   1350  WQP1350     0.2175
     23  OAY       93.3600  -24.5370   48.1780 O.3   1350  WQP1350    -0.2175
     24  CAU       94.2630  -26.7630   48.0570 C.3   1350  WQP1350     0.2175
     25  OAK       93.2800  -26.9750   47.0410 O.3   1350  WQP1350    -0.2175
@<TRIPOS>BOND
     1    25    24    1
     2    24    22    1
     3    22    23    1
     4    22    20    1
     5    19    18    1
     6    21    20    1
     7    20    18    1
     8    18    13    1
     9    13    11    1
    10    13    14    1
    11    11    12    1
    12    11    10    1
    13     9     7   ar
    14    14    15   am
    15     7     6    1
    16     7     8   ar
    17    10     6    1
    18     6     5    1
    19     4     2    2
    20    15    17    2
    21    15    16    1
    22     5     2    1
    23     2     3    1
    24     2     1    1
