@<TRIPOS>MOLECULE
2wqq_CSF_A_1.pdb
 42 44 0 0 0
SMALL
GASTEIGER

@<TRIPOS>ATOM
      1  C5A        8.1750  -30.6320   -0.8750 C.3   1259  CSF1259     0.1582
      2  C4A        7.3620  -31.7120   -1.6000 C.3   1259  CSF1259     0.2121
      3  C2A        8.0410  -30.5710   -3.7500 C.3   1259  CSF1259     0.3216
      4  O6A        8.9580  -29.7290   -2.9920 O.3   1259  CSF1259    -0.3217
      5  C6A        9.3690  -30.2020   -1.7180 C.3   1259  CSF1259     0.1735
      6  C3A        6.8990  -31.1770   -2.9380 C.3   1259  CSF1259     0.2551
      7  O4A        6.2040  -32.0410   -0.8330 O.3   1259  CSF1259    -0.2181
      8  N5A        8.7070  -31.1990    0.3660 N.am  1259  CSF1259    -0.2019
      9  C7A       10.1370  -29.0610   -1.0640 C.3   1259  CSF1259     0.2135
     10  C8A       11.2870  -28.6130   -1.9370 C.3   1259  CSF1259     0.2173
     11  C9A       12.1230  -27.5210   -1.2370 C.3   1259  CSF1259     0.2175
     12  O9A       13.0140  -26.8950   -2.1790 O.3   1259  CSF1259    -0.2175
     13  O8A       12.0780  -29.7530   -2.2850 O.3   1259  CSF1259    -0.2175
     14  O7A        9.2910  -27.9350   -0.9090 O.3   1259  CSF1259    -0.2176
     15  C1A        7.4110  -29.6370   -4.7490 C.2   1259  CSF1259     0.4183
     16  OBA        7.6760  -28.4400   -4.6520 O.co2 1259  CSF1259    -0.2401
     17  OAA        6.6640  -30.1430   -5.5860 O.co2 1259  CSF1259    -0.2401
     18  O1A        8.6490  -31.6240   -4.4870 O.3   1259  CSF1259    -0.2813
     19  O2A       10.0620  -32.9680   -3.0480 O.3   1259  CSF1259    -0.4372
     20  N1         8.5530  -36.2110   -6.8470 N.am  1259  CSF1259    -0.1778
     21  C2         7.5920  -37.1920   -6.6800 C.1   1259  CSF1259     0.2756
     22  N3         7.8520  -38.2680   -5.7920 N.2   1259  CSF1259    -0.3024
     23  C4         9.0670  -38.3080   -5.0900 C.2   1259  CSF1259     0.2346
     24  C5        10.0300  -37.3110   -5.2650 C.2   1259  CSF1259     0.0687
     25  C6         9.7770  -36.2690   -6.1530 C.2   1259  CSF1259     0.0836
     26  C3'        7.7330  -33.1530   -6.6950 C.3   1259  CSF1259     0.2158
     27  C2'        6.9980  -34.2630   -7.4460 C.3   1259  CSF1259     0.2319
     28  C1'        8.2050  -35.1480   -7.8240 C.3   1259  CSF1259     0.2400
     29  O4'        9.3630  -34.2880   -7.9980 O.3   1259  CSF1259    -0.3320
     30  C4'        8.9970  -32.9610   -7.5760 C.3   1259  CSF1259     0.1799
     31  PA        10.1300  -32.1620   -4.2660 P.3   1259  CSF1259     0.2163
     32  O5'       10.2690  -33.1080   -5.5300 O.3   1259  CSF1259    -0.3113
     33  C5'       10.2140  -32.4580   -6.7850 C.3   1259  CSF1259     0.1813
     34  O3'        6.9580  -31.9330   -6.6250 O.3   1259  CSF1259    -0.2175
     35  O2'        6.3420  -33.7750   -8.6660 O.3   1259  CSF1259    -0.2157
     36  N4         9.2730  -39.3100   -4.2550 N.pl3 1259  CSF1259    -0.0921
     37  O2         6.5380  -37.0840   -7.3200 O.2   1259  CSF1259    -0.1925
     38  O3A       11.1380  -31.1130   -4.3700 O.2   1259  CSF1259    -0.5171
     39  C10        8.8860  -30.4700    1.4620 C.2   1259  CSF1259     0.2420
     40  O10        8.6090  -29.2650    1.5480 O.2   1259  CSF1259    -0.2733
     41  C11        9.4630  -31.2640    2.6530 C.3   1259  CSF1259     0.0964
     42  F3A        5.9010  -30.2270   -2.7500 F     1259  CSF1259    -0.2285
@<TRIPOS>BOND
     1    35    27    1
     2    29    28    1
     3    29    30    1
     4    28    27    1
     5    28    20    1
     6    30    33    1
     7    30    26    1
     8    27    26    1
     9    37    21    2
    10    20    21   am
    11    20    25    1
    12    33    32    1
    13    26    34    1
    14    21    22    2
    15    25    24    2
    16    22    23    2
    17    17    15   ar
    18    32    31    1
    19    24    23    1
    20    23    36    1
    21    15    16   ar
    22    15     3    1
    23    18    31    1
    24    18     3    1
    25    38    31    2
    26    31    19    1
    27     3     4    1
    28     3     6    1
    29     4     5    1
    30     6    42    1
    31     6     2    1
    32    13    10    1
    33    12    11    1
    34    10    11    1
    35    10     9    1
    36     5     9    1
    37     5     1    1
    38     2     1    1
    39     2     7    1
    40     9    14    1
    41     1     8    1
    42     8    39   am
    43    39    40    2
    44    39    41    1
