@<TRIPOS>MOLECULE
2wqr_BMA_B_1.pdb
 11 11 0 0 0
SMALL
GASTEIGER

@<TRIPOS>ATOM
      1  C1        11.4140   13.8600   19.2220 C.3   949  BMA949      0.1777
      2  C2        12.7210   14.2900   18.5680 C.3   949  BMA949      0.2141
      3  C3        12.7260   14.2330   17.0400 C.3   949  BMA949      0.2173
      4  C4        12.0630   12.9650   16.5220 C.3   949  BMA949      0.2142
      5  C5        10.7330   12.7600   17.2260 C.3   949  BMA949      0.1810
      6  C6        10.0230   11.4990   16.7300 C.3   949  BMA949      0.2141
      7  O2        13.6950   13.3700   19.0000 O.3   949  BMA949     -0.2176
      8  O3        14.0670   14.2750   16.5780 O.3   949  BMA949     -0.2175
      9  O4        11.8300   13.0790   15.1390 O.3   949  BMA949     -0.2176
     10  O5        10.9450   12.6740   18.6220 O.3   949  BMA949     -0.3481
     11  O6        10.7060   10.3430   17.1760 O.3   949  BMA949     -0.2176
@<TRIPOS>BOND
     1     9     4    1
     2     4     3    1
     3     4     5    1
     4     8     3    1
     5     6    11    1
     6     6     5    1
     7     3     2    1
     8     5    10    1
     9     2     7    1
    10     2     1    1
    11    10     1    1
