@<TRIPOS>MOLECULE
2wqy_HEM_C_1.pdb
 41 48 0 0 0
SMALL
GASTEIGER

@<TRIPOS>ATOM
      1  CHA        8.4480    6.6060   14.0670 C.2   143  HEM143      0.0000
      2  CHB        7.6930    2.6920   11.3110 C.2   143  HEM143      0.0000
      3  CHC        8.9490   -0.0290   15.0810 C.2   143  HEM143      0.0000
      4  CHD        9.5280    3.8800   17.8040 C.2   143  HEM143      0.0000
      5  C1A        8.1830    5.7650   12.9940 C.ar  143  HEM143      0.0000
      6  C2A        7.7960    6.2640   11.6920 C.ar  143  HEM143      0.0000
      7  C3A        7.5070    5.1610   10.9460 C.ar  143  HEM143      0.0000
      8  C4A        7.7780    3.9930   11.7700 C.ar  143  HEM143      0.0000
      9  CMA        7.0050    5.1760    9.5240 C.3   143  HEM143      0.0000
     10  CAA        7.7420    7.7400   11.2810 C.3   143  HEM143      0.0000
     11  CBA        9.1350    8.2670   10.9400 C.3   143  HEM143      0.0000
     12  CGA        9.3120    9.7630   11.2240 C.2   143  HEM143      0.0000
     13  O1A       10.4720   10.2420   11.1910 O.co2 143  HEM143      0.0000
     14  O2A        8.3000   10.4470   11.4800 O.co2 143  HEM143      0.0000
     15  C1B        8.0300    1.5840   12.0320 C.2   143  HEM143      0.0000
     16  C2B        7.9010    0.1940   11.6140 C.2   143  HEM143      0.0000
     17  C3B        8.3420   -0.5690   12.6590 C.2   143  HEM143      0.0000
     18  C4B        8.6130    0.3380   13.7720 C.2   143  HEM143      0.0000
     19  CMB        7.2070   -0.3260   10.3740 C.3   143  HEM143      0.0000
     20  CAB        8.4190   -1.9620   12.6860 C.3   143  HEM143      0.0000
     21  C1C        9.2050    0.7840   16.1680 C.ar  143  HEM143      0.0000
     22  C2C        9.6230    0.3450   17.4910 C.ar  143  HEM143      0.0000
     23  C3C        9.7020    1.4610   18.2790 C.ar  143  HEM143      0.0000
     24  C4C        9.4550    2.5730   17.3840 C.ar  143  HEM143      0.0000
     25  CMC        9.9260   -1.0850   17.9600 C.3   143  HEM143      0.0000
     26  CAC       10.0470    1.5470   19.6650 C.3   143  HEM143      0.0000
     27  C1D        9.2280    4.9840   17.0640 C.2   143  HEM143      0.0000
     28  C2D        9.1090    6.3180   17.6140 C.2   143  HEM143      0.0000
     29  C3D        8.7680    7.0920   16.5410 C.2   143  HEM143      0.0000
     30  C4D        8.7260    6.2510   15.3550 C.2   143  HEM143      0.0000
     31  CMD        9.3440    6.7410   19.0830 C.3   143  HEM143      0.0000
     32  CAD        8.4900    8.5500   16.6640 C.3   143  HEM143      0.0000
     33  CBD        9.6600    9.4270   16.2470 C.3   143  HEM143      0.0000
     34  CGD        9.4120   10.9080   16.5710 C.2   143  HEM143      0.0000
     35  O1D        9.2140   11.2150   17.7710 O.co2 143  HEM143      0.0000
     36  O2D        9.4140   11.7520   15.6440 O.co2 143  HEM143      0.0000
     37  NA         8.2240    4.3640   13.0260 N.ar  143  HEM143      0.0000
     38  NB         8.4490    1.6640   13.3480 N.2   143  HEM143      0.0000
     39  NC         9.1360    2.1690   16.0880 N.ar  143  HEM143      0.0000
     40  ND         8.8770    4.9310   15.7210 N.2   143  HEM143      0.0000
     41 FE          8.6250    3.2810   14.5490 Fe    143  HEM143      0.0000
@<TRIPOS>BOND
     1     9     7    1
     2    19    16    1
     3    11    12    1
     4    11    10    1
     5     7     6   ar
     6     7     8   ar
     7    13    12   ar
     8    12    14   ar
     9    10     6    1
    10     2     8    2
    11     2    15    1
    12    16    15    1
    13    16    17    2
    14     6     5   ar
    15     8    37   ar
    16    15    38    2
    17    17    20    1
    18    17    18    1
    19     5    37   ar
    20     5     1    2
    21    37    41    1
    22    38    18    1
    23    38    41    1
    24    18     3    2
    25     1    30    1
    26    41    40    1
    27    41    39    1
    28     3    21    1
    29    30    40    2
    30    30    29    1
    31    36    34   ar
    32    40    27    1
    33    39    21   ar
    34    39    24   ar
    35    21    22   ar
    36    33    34    1
    37    33    32    1
    38    29    32    1
    39    29    28    2
    40    34    35   ar
    41    27    28    1
    42    27     4    2
    43    24     4    1
    44    24    23   ar
    45    22    25    1
    46    22    23   ar
    47    28    31    1
    48    23    26    1
