@<TRIPOS>MOLECULE
2wqy_CBE_C_1.pdb
 16 17 0 0 0
SMALL
GASTEIGER

@<TRIPOS>ATOM
      1  C1        10.9370   17.4180    9.6200 C.3   144  CBE144      0.0725
      2  C2        11.6940   16.2000   10.1260 C.2   144  CBE144      0.1265
      3  C3        12.8870   15.7690    9.5090 C.2   144  CBE144      0.1105
      4  S4        13.7740   14.4150   10.0570 S.3   144  CBE144     -0.1026
      5  C5        12.8860   13.9900   11.6030 C.3   144  CBE144      0.1096
      6  C6        11.3960   14.1260   11.3870 C.3   144  CBE144      0.2169
      7  O7        11.1360   15.5440   11.1860 O.2   144  CBE144     -0.4781
      8  C8        13.5970   16.5870    8.4690 C.2   144  CBE144      0.2773
      9  O9        13.0010   16.9620    7.4560 O.2   144  CBE144     -0.2674
     10  N10       14.9150   16.5710    8.6200 N.am  144  CBE144     -0.1750
     11  C11       15.7460   17.1280    7.7050 C.ar  144  CBE144      0.0737
     12  C12       17.0130   17.5920    8.0780 C.ar  144  CBE144      0.0166
     13  C13       17.8810   18.1600    7.1310 C.ar  144  CBE144      0.0013
     14  C14       17.5020   18.2790    5.8130 C.ar  144  CBE144      0.0001
     15  C15       16.2420   17.8120    5.4250 C.ar  144  CBE144      0.0013
     16  C16       15.3830   17.2430    6.3700 C.ar  144  CBE144      0.0166
@<TRIPOS>BOND
     1    15    14   ar
     2    15    16   ar
     3    14    13   ar
     4    16    11   ar
     5    13    12   ar
     6     9     8    2
     7    11    12   ar
     8    11    10    1
     9     8    10   am
    10     8     3    1
    11     3     4    1
    12     3     2    2
    13     1     2    1
    14     4     5    1
    15     2     7    1
    16     7     6    1
    17     6     5    1
