@<TRIPOS>MOLECULE
2wqz_5AX_A_1.pdb
 14 14 0 0 0
SMALL
GASTEIGER

@<TRIPOS>ATOM
      1  C4         4.6090  -53.2960  -11.9330 C.3   1599  5AX1599     0.2134
      2  C5         5.8260  -53.7440  -12.7510 C.3   1599  5AX1599     0.1809
      3  C6         5.5970  -53.4760  -14.2310 C.3   1599  5AX1599     0.2141
      4  C7         7.4710  -49.7060  -10.0120 C.2   1599  5AX1599     0.2420
      5  C8         7.4500  -48.7490  -11.1730 C.3   1599  5AX1599     0.0964
      6  C1         6.8320  -51.6760  -12.3540 C.3   1599  5AX1599     0.1665
      7  C2         5.9060  -51.2290  -11.2220 C.3   1599  5AX1599     0.1576
      8  C3         4.9740  -52.3590  -10.7780 C.3   1599  5AX1599     0.2069
      9  N2         6.7460  -50.8380  -10.0890 N.am  1599  5AX1599    -0.2019
     10  O3         3.7730  -51.7760  -10.2560 O.3   1599  5AX1599    -0.2184
     11  O4         3.9360  -54.4630  -11.4350 O.3   1599  5AX1599    -0.2176
     12  O5         7.0240  -53.0850  -12.3460 O.3   1599  5AX1599    -0.3489
     13  O6         4.6500  -54.4350  -14.7030 O.3   1599  5AX1599    -0.2176
     14  O7         8.1450  -49.4500   -9.0240 O.2   1599  5AX1599    -0.2733
@<TRIPOS>BOND
     1    13     3    1
     2     3     2    1
     3     2    12    1
     4     2     1    1
     5     6    12    1
     6     6     7    1
     7     1    11    1
     8     1     8    1
     9     7     8    1
    10     7     9    1
    11     5     4    1
    12     8    10    1
    13     9     4   am
    14     4    14    2
