@<TRIPOS>MOLECULE
2wr1_GAL_B_1.pdb
 11 11 0 0 0
SMALL
GASTEIGER

@<TRIPOS>ATOM
      1  C1       -13.8670  -32.4290   -3.3520 C.3   1500  GAL1500     0.1777
      2  C2       -12.3650  -32.2760   -3.3300 C.3   1500  GAL1500     0.2141
      3  C3       -11.9010  -32.2890   -1.8800 C.3   1500  GAL1500     0.2173
      4  C4       -12.6340  -31.1560   -1.1450 C.3   1500  GAL1500     0.2142
      5  C5       -14.1470  -31.3690   -1.2950 C.3   1500  GAL1500     0.1810
      6  C6       -14.8710  -30.2350   -0.6050 C.3   1500  GAL1500     0.2141
      7  O2       -11.8710  -33.4600   -3.9230 O.3   1500  GAL1500    -0.2176
      8  O3       -10.5680  -31.8710   -1.9170 O.3   1500  GAL1500    -0.2175
      9  O4       -12.1840  -29.8510   -1.5510 O.3   1500  GAL1500    -0.2176
     10  O5       -14.4980  -31.3270   -2.6820 O.3   1500  GAL1500    -0.3481
     11  O6       -16.2460  -30.5080   -0.7240 O.3   1500  GAL1500    -0.2176
@<TRIPOS>BOND
     1     7     2    1
     2     1     2    1
     3     1    10    1
     4     2     3    1
     5    10     5    1
     6     8     3    1
     7     3     4    1
     8     9     4    1
     9     5     4    1
    10     5     6    1
    11    11     6    1
