@<TRIPOS>MOLECULE
2wr1_SIA_B_1.pdb
 20 20 0 0 0
SMALL
GASTEIGER

@<TRIPOS>ATOM
      1  C1       -16.6960  -28.3730    0.4050 C.2   1499  SIA1499     0.3914
      2  C2       -16.9810  -29.2780   -0.8350 C.3   1499  SIA1499     0.2203
      3  C3       -18.4620  -29.6760   -1.0090 C.3   1499  SIA1499     0.0760
      4  C4       -19.2940  -28.4130   -1.1930 C.3   1499  SIA1499     0.1773
      5  C5       -18.7190  -27.6320   -2.3880 C.3   1499  SIA1499     0.1552
      6  C6       -17.2400  -27.3310   -2.1960 C.3   1499  SIA1499     0.1710
      7  C7       -16.7680  -26.5860   -3.4430 C.3   1499  SIA1499     0.2134
      8  C8       -15.3000  -26.2290   -3.3650 C.3   1499  SIA1499     0.2173
      9  C9       -14.9410  -25.3330   -4.5410 C.3   1499  SIA1499     0.2175
     10  C10      -20.2140  -26.0650   -3.5000 C.2   1499  SIA1499     0.2420
     11  C11      -20.2920  -27.1240   -4.5910 C.3   1499  SIA1499     0.0964
     12  N5       -19.4250  -26.3690   -2.4910 N.am  1499  SIA1499    -0.2020
     13  O1A      -17.0190  -28.8170    1.5300 O.co2 1499  SIA1499    -0.2430
     14  O1B      -16.0890  -27.2870    0.1930 O.co2 1499  SIA1499    -0.2430
     15  O4       -20.6000  -28.7650   -1.5140 O.3   1499  SIA1499    -0.2211
     16  O6       -16.5430  -28.5710   -2.0200 O.3   1499  SIA1499    -0.3429
     17  O7       -16.9860  -27.4370   -4.5570 O.3   1499  SIA1499    -0.2176
     18  O8       -14.9390  -25.6480   -2.1230 O.3   1499  SIA1499    -0.2175
     19  O9       -13.5470  -25.1460   -4.4330 O.3   1499  SIA1499    -0.2175
     20  O10      -20.8120  -24.9970   -3.5880 O.2   1499  SIA1499    -0.2733
@<TRIPOS>BOND
     1    11    10    1
     2    17     7    1
     3     9    19    1
     4     9     8    1
     5    20    10    2
     6    10    12   am
     7     7     8    1
     8     7     6    1
     9     8    18    1
    10    12     5    1
    11     5     6    1
    12     5     4    1
    13     6    16    1
    14    16     2    1
    15    15     4    1
    16     4     3    1
    17     3     2    1
    18     2     1    1
    19    14     1   ar
    20     1    13   ar
