@<TRIPOS>MOLECULE
2wr2_GAL_B_1.pdb
 11 11 0 0 0
SMALL
GASTEIGER

@<TRIPOS>ATOM
      1  C1       -14.1170  -32.8300   -2.3320 C.3   1500  GAL1500     0.1777
      2  C2       -14.7590  -31.9090   -1.2790 C.3   1500  GAL1500     0.2141
      3  C3       -14.9410  -30.4690   -1.7960 C.3   1500  GAL1500     0.2173
      4  C4       -13.6090  -29.9530   -2.3780 C.3   1500  GAL1500     0.2142
      5  C5       -13.0470  -30.9570   -3.4060 C.3   1500  GAL1500     0.1810
      6  C6       -11.6810  -30.5530   -3.9580 C.3   1500  GAL1500     0.2141
      7  O2       -16.0140  -32.4300   -0.8750 O.3   1500  GAL1500    -0.2176
      8  O3       -15.3300  -29.6440   -0.6760 O.3   1500  GAL1500    -0.2175
      9  O4       -12.6620  -29.7620   -1.3280 O.3   1500  GAL1500    -0.2176
     10  O5       -12.8850  -32.2610   -2.7980 O.3   1500  GAL1500    -0.3481
     11  O6       -11.6210  -30.6300   -5.3810 O.3   1500  GAL1500    -0.2176
@<TRIPOS>BOND
     1    11     6    1
     2     6     5    1
     3     5    10    1
     4     5     4    1
     5    10     1    1
     6     4     3    1
     7     4     9    1
     8     1     2    1
     9     3     2    1
    10     3     8    1
    11     2     7    1
