@<TRIPOS>MOLECULE
2wr2_SIA_B_1.pdb
 20 20 0 0 0
SMALL
GASTEIGER

@<TRIPOS>ATOM
      1  C1       -16.2180  -27.7670    0.4830 C.2   1499  SIA1499     0.3914
      2  C2       -16.2710  -28.6260   -0.7960 C.3   1499  SIA1499     0.2203
      3  C3       -17.6810  -29.2060   -0.9530 C.3   1499  SIA1499     0.0760
      4  C4       -18.6790  -28.0560   -1.1140 C.3   1499  SIA1499     0.1773
      5  C5       -18.2720  -27.1340   -2.2770 C.3   1499  SIA1499     0.1552
      6  C6       -16.8020  -26.6800   -2.1360 C.3   1499  SIA1499     0.1710
      7  C7       -16.3180  -25.9120   -3.3780 C.3   1499  SIA1499     0.2134
      8  C8       -14.8000  -25.6930   -3.3390 C.3   1499  SIA1499     0.2173
      9  C9       -14.3360  -24.9330   -4.5670 C.3   1499  SIA1499     0.2175
     10  C10      -19.4880  -25.4210   -3.4430 C.2   1499  SIA1499     0.2420
     11  C11      -20.3970  -24.2120   -3.3840 C.3   1499  SIA1499     0.0964
     12  N5       -19.1420  -25.9760   -2.2910 N.am  1499  SIA1499    -0.2020
     13  O1A      -15.7300  -26.6120    0.4560 O.co2 1499  SIA1499    -0.2430
     14  O1B      -16.6610  -28.2480    1.5450 O.co2 1499  SIA1499    -0.2430
     15  O4       -19.9640  -28.5990   -1.3560 O.3   1499  SIA1499    -0.2211
     16  O6       -15.9330  -27.8230   -1.9410 O.3   1499  SIA1499    -0.3429
     17  O7       -16.6180  -26.6720   -4.5280 O.3   1499  SIA1499    -0.2176
     18  O8       -14.4410  -24.9640   -2.1780 O.3   1499  SIA1499    -0.2175
     19  O9       -12.9770  -24.5720   -4.3960 O.3   1499  SIA1499    -0.2175
     20  O10      -19.1000  -25.8450   -4.5250 O.2   1499  SIA1499    -0.2733
@<TRIPOS>BOND
     1     9    19    1
     2     9     8    1
     3    17     7    1
     4    20    10    2
     5    10    11    1
     6    10    12   am
     7     7     8    1
     8     7     6    1
     9     8    18    1
    10    12     5    1
    11     5     6    1
    12     5     4    1
    13     6    16    1
    14    16     2    1
    15    15     4    1
    16     4     3    1
    17     3     2    1
    18     2     1    1
    19    13     1   ar
    20     1    14   ar
