@<TRIPOS>MOLECULE
2wr3_SIA_A_1.pdb
 20 20 0 0 0
SMALL
GASTEIGER

@<TRIPOS>ATOM
      1  C1        33.9130   33.1900  -27.2220 C.2   1497  SIA1497     0.3914
      2  C2        32.8750   33.9650  -28.0070 C.3   1497  SIA1497     0.2203
      3  C3        33.2520   33.8850  -29.4850 C.3   1497  SIA1497     0.0760
      4  C4        33.1750   32.4310  -29.9290 C.3   1497  SIA1497     0.1773
      5  C5        31.7640   31.9170  -29.7010 C.3   1497  SIA1497     0.1552
      6  C6        31.4090   32.0700  -28.2290 C.3   1497  SIA1497     0.1710
      7  C7        29.9550   31.6980  -27.9560 C.3   1497  SIA1497     0.2134
      8  C8        29.5670   31.9790  -26.5020 C.3   1497  SIA1497     0.2173
      9  C9        28.1470   31.5260  -26.1810 C.3   1497  SIA1497     0.2175
     10  C10       30.7810   29.9050  -30.6190 C.2   1497  SIA1497     0.2420
     11  C11       30.9140   28.4360  -30.8920 C.3   1497  SIA1497     0.0964
     12  N5        31.8020   30.4940  -30.0030 N.am  1497  SIA1497    -0.2020
     13  O1A       33.5400   32.3420  -26.3710 O.co2 1497  SIA1497    -0.2430
     14  O1B       35.1270   33.4450  -27.4460 O.co2 1497  SIA1497    -0.2430
     15  O4        33.5160   32.3260  -31.3130 O.3   1497  SIA1497    -0.2211
     16  O6        31.5620   33.4340  -27.8390 O.3   1497  SIA1497    -0.3429
     17  O7        29.1200   32.4620  -28.8390 O.3   1497  SIA1497    -0.2176
     18  O8        30.4630   31.2970  -25.6230 O.3   1497  SIA1497    -0.2175
     19  O9        27.9210   31.6690  -24.7740 O.3   1497  SIA1497    -0.2175
     20  O10       29.7820   30.5270  -30.9290 O.2   1497  SIA1497    -0.2733
@<TRIPOS>BOND
     1    15     4    1
     2    20    10    2
     3    11    10    1
     4    10    12   am
     5    12     5    1
     6     4     5    1
     7     4     3    1
     8     5     6    1
     9     3     2    1
    10    17     7    1
    11     6     7    1
    12     6    16    1
    13     2    16    1
    14     2     1    1
    15     7     8    1
    16    14     1   ar
    17     1    13   ar
    18     8     9    1
    19     8    18    1
    20     9    19    1
