@<TRIPOS>MOLECULE
2wr3_GAL_A_1.pdb
 11 11 0 0 0
SMALL
GASTEIGER

@<TRIPOS>ATOM
      1  C1        31.6950   38.7400  -28.3010 C.3   1498  GAL1498     0.1777
      2  C2        32.6550   37.5870  -27.9800 C.3   1498  GAL1498     0.2141
      3  C3        31.9520   36.2380  -27.9550 C.3   1498  GAL1498     0.2173
      4  C4        30.7550   36.3220  -27.0120 C.3   1498  GAL1498     0.2142
      5  C5        29.8700   37.5130  -27.3620 C.3   1498  GAL1498     0.1810
      6  C6        28.7220   37.6180  -26.3670 C.3   1498  GAL1498     0.2141
      7  O2        33.7580   37.5050  -28.8970 O.3   1498  GAL1498    -0.2176
      8  O3        32.9250   35.3010  -27.4950 O.3   1498  GAL1498    -0.2175
      9  O4        31.1870   36.4560  -25.6510 O.3   1498  GAL1498    -0.2176
     10  O5        30.6340   38.7230  -27.3360 O.3   1498  GAL1498    -0.3481
     11  O6        27.4670   37.5750  -27.0600 O.3   1498  GAL1498    -0.2176
@<TRIPOS>BOND
     1     7     2    1
     2     1     2    1
     3     1    10    1
     4     2     3    1
     5     3     8    1
     6     3     4    1
     7     5    10    1
     8     5     4    1
     9     5     6    1
    10    11     6    1
    11     4     9    1
