@<TRIPOS>MOLECULE
2wr4_SIA_A_1.pdb
 20 20 0 0 0
SMALL
GASTEIGER

@<TRIPOS>ATOM
      1  C1        34.3150   33.2630  -27.3670 C.2   1497  SIA1497     0.3914
      2  C2        33.4660   33.8890  -28.4870 C.3   1497  SIA1497     0.2203
      3  C3        33.9990   33.5260  -29.8700 C.3   1497  SIA1497     0.0760
      4  C4        33.7010   32.0910  -30.2640 C.3   1497  SIA1497     0.1773
      5  C5        32.2370   31.7660  -30.0440 C.3   1497  SIA1497     0.1552
      6  C6        31.9180   32.0930  -28.6160 C.3   1497  SIA1497     0.1710
      7  C7        30.4920   31.7690  -28.2500 C.3   1497  SIA1497     0.2134
      8  C8        30.2010   32.2570  -26.8270 C.3   1497  SIA1497     0.2173
      9  C9        28.8270   31.7950  -26.3920 C.3   1497  SIA1497     0.2175
     10  C10       31.1130   29.8980  -31.1580 C.2   1497  SIA1497     0.2420
     11  C11       31.0090   28.3980  -31.3240 C.3   1497  SIA1497     0.0964
     12  N5        32.0250   30.3500  -30.2960 N.am  1497  SIA1497    -0.2020
     13  O1A       33.7680   32.6830  -26.3950 O.co2 1497  SIA1497    -0.2430
     14  O1B       35.5570   33.3540  -27.4470 O.co2 1497  SIA1497    -0.2430
     15  O4        34.0180   31.9190  -31.6350 O.3   1497  SIA1497    -0.2211
     16  O6        32.1170   33.4810  -28.3770 O.3   1497  SIA1497    -0.3429
     17  O7        29.6380   32.4420  -29.1550 O.3   1497  SIA1497    -0.2176
     18  O8        31.1490   31.7520  -25.9020 O.3   1497  SIA1497    -0.2175
     19  O9        28.7210   32.0130  -25.0040 O.3   1497  SIA1497    -0.2175
     20  O10       30.3690   30.6360  -31.8090 O.2   1497  SIA1497    -0.2733
@<TRIPOS>BOND
     1    20    10    2
     2    15     4    1
     3    11    10    1
     4    10    12   am
     5    12     5    1
     6     4     5    1
     7     4     3    1
     8     5     6    1
     9     3     2    1
    10    17     7    1
    11     6    16    1
    12     6     7    1
    13     2    16    1
    14     2     1    1
    15     7     8    1
    16    14     1   ar
    17     1    13   ar
    18     8     9    1
    19     8    18    1
    20     9    19    1
