@<TRIPOS>MOLECULE
2wr4_GAL_A_1.pdb
 11 11 0 0 0
SMALL
GASTEIGER

@<TRIPOS>ATOM
      1  C1        31.0340   38.1260  -28.4160 C.3   1498  GAL1498     0.1777
      2  C2        30.6550   39.0030  -27.2210 C.3   1498  GAL1498     0.2141
      3  C3        31.7290   39.1010  -26.1290 C.3   1498  GAL1498     0.2173
      4  C4        32.4150   37.7620  -25.8720 C.3   1498  GAL1498     0.2142
      5  C5        32.8690   37.1800  -27.1910 C.3   1498  GAL1498     0.1810
      6  C6        33.5260   35.8430  -27.0460 C.3   1498  GAL1498     0.2141
      7  O2        30.3540   40.3050  -27.7080 O.3   1498  GAL1498    -0.2176
      8  O3        31.1320   39.5450  -24.9140 O.3   1498  GAL1498    -0.2175
      9  O4        31.5270   36.8580  -25.2240 O.3   1498  GAL1498    -0.2176
     10  O5        31.7230   36.9300  -28.0130 O.3   1498  GAL1498    -0.3481
     11  O6        33.5120   35.2610  -28.3550 O.3   1498  GAL1498    -0.2176
@<TRIPOS>BOND
     1     1    10    1
     2     1     2    1
     3    11     6    1
     4    10     5    1
     5     7     2    1
     6     2     3    1
     7     5     6    1
     8     5     4    1
     9     3     4    1
    10     3     8    1
    11     4     9    1
