@<TRIPOS>MOLECULE
2wr6_ODT_A_1.pdb
 20 19 0 0 0
SMALL
GASTEIGER

@<TRIPOS>ATOM
      1  O1       -16.1810   -4.8280   -3.0590 O.co2 1176  ODT1176    -0.2457
      2  C1       -16.3750   -4.0430   -2.1170 C.2   1176  ODT1176     0.3649
      3  O2       -16.4810   -2.8880   -2.4320 O.co2 1176  ODT1176    -0.2457
      4  C2       -16.4620   -4.4780   -0.6390 C.3   1176  ODT1176     0.1141
      5  C3       -15.6150   -5.7970   -0.3160 C.3   1176  ODT1176     0.0118
      6  C4       -14.0460   -6.1410   -0.2670 C.3   1176  ODT1176     0.0006
      7  C5       -13.7360   -7.5490    0.4460 C.3   1176  ODT1176     0.0000
      8  C6       -12.9250   -8.8630    0.0550 C.3   1176  ODT1176     0.0000
      9  C7       -13.2890  -10.1160    0.8970 C.3   1176  ODT1176     0.0000
     10  C8       -12.1790  -11.1460    0.9420 C.3   1176  ODT1176     0.0000
     11  C9       -12.5540  -12.5390    0.6900 C.3   1176  ODT1176     0.0003
     12  C10      -13.6410  -12.8490    1.3570 C.3   1176  ODT1176     0.0047
     13  C11      -14.1640  -14.1870    1.2070 C.3   1176  ODT1176     0.0257
     14  C12      -14.6320  -14.2780   -0.1770 C.2   1176  ODT1176    -0.0307
     15  C13      -15.7880  -13.8550   -0.5490 C.2   1176  ODT1176    -0.0307
     16  C14      -16.8230  -13.1490    0.2550 C.3   1176  ODT1176     0.0257
     17  C15      -17.6580  -12.3590   -0.7740 C.3   1176  ODT1176     0.0047
     18  C16      -16.9740  -11.0580   -1.2390 C.3   1176  ODT1176     0.0003
     19  C17      -17.0850   -9.9790   -0.1510 C.3   1176  ODT1176     0.0000
     20  C18      -18.2550  -10.2400    0.6920 C.3   1176  ODT1176     0.0000
@<TRIPOS>BOND
     1     1     2   ar
     2     3     2   ar
     3     2     4    1
     4    18    17    1
     5    18    19    1
     6    17    16    1
     7     4     5    1
     8    15    14    2
     9    15    16    1
    10     5     6    1
    11     6     7    1
    12    14    13    1
    13    19    20    1
    14     8     7    1
    15     8     9    1
    16    11    10    1
    17    11    12    1
    18     9    10    1
    19    13    12    1
