@<TRIPOS>MOLECULE
2wr7_SIA_A_1.pdb
 20 20 0 0 0
SMALL
GASTEIGER

@<TRIPOS>ATOM
      1  C1       -31.6010   36.9150  -48.5970 C.2   1488  SIA1488     0.3914
      2  C2       -31.7050   37.4730  -49.9850 C.3   1488  SIA1488     0.2203
      3  C3       -32.1550   38.9370  -49.9220 C.3   1488  SIA1488     0.0760
      4  C4       -31.0300   39.8880  -49.5630 C.3   1488  SIA1488     0.1773
      5  C5       -29.8640   39.7110  -50.5100 C.3   1488  SIA1488     0.1552
      6  C6       -29.4000   38.2680  -50.4080 C.3   1488  SIA1488     0.1710
      7  C7       -28.2120   37.9730  -51.3040 C.3   1488  SIA1488     0.2134
      8  C8       -27.8720   36.4970  -51.2440 C.3   1488  SIA1488     0.2173
      9  C9       -26.4170   36.3120  -51.6480 C.3   1488  SIA1488     0.2175
     10  C10      -28.0800   41.2510  -51.0370 C.2   1488  SIA1488     0.2420
     11  C11      -26.9510   42.0530  -50.5410 C.3   1488  SIA1488     0.0964
     12  N5       -28.7830   40.6110  -50.0970 N.am  1488  SIA1488    -0.2020
     13  O1A      -30.6440   36.0410  -48.3410 O.co2 1488  SIA1488    -0.2430
     14  O1B      -32.3540   37.2820  -47.7170 O.co2 1488  SIA1488    -0.2430
     15  O4       -31.4650   41.2500  -49.5940 O.3   1488  SIA1488    -0.2211
     16  O6       -30.4420   37.3250  -50.6580 O.3   1488  SIA1488    -0.3429
     17  O7       -28.5330   38.3080  -52.6450 O.3   1488  SIA1488    -0.2176
     18  O8       -28.0700   35.9980  -49.9090 O.3   1488  SIA1488    -0.2175
     19  O9       -26.1520   34.9150  -51.7720 O.3   1488  SIA1488    -0.2175
     20  O10      -28.3420   41.1800  -52.2320 O.2   1488  SIA1488    -0.2733
@<TRIPOS>BOND
     1    17     7    1
     2    20    10    2
     3    19     9    1
     4     9     8    1
     5     7     8    1
     6     7     6    1
     7     8    18    1
     8    10    11    1
     9    10    12   am
    10    16     6    1
    11    16     2    1
    12     5     6    1
    13     5    12    1
    14     5     4    1
    15     2     3    1
    16     2     1    1
    17     3     4    1
    18    15     4    1
    19     1    13   ar
    20     1    14   ar
