@<TRIPOS>MOLECULE
2wr8_SAH_A_1.pdb
 26 28 0 0 0
SMALL
GASTEIGER

@<TRIPOS>ATOM
      1  N         17.5030  -42.0960    7.0680 N.3   1257  SAH1257    -0.1208
      2  CA        17.6730  -43.1640    6.0600 C.3   1257  SAH1257     0.1952
      3  CB        16.2790  -43.6400    5.5350 C.3   1257  SAH1257     0.0422
      4  CG        16.2900  -45.0380    4.9190 C.3   1257  SAH1257     0.0597
      5  SD        14.5580  -45.5190    4.4340 S.3   1257  SAH1257    -0.1375
      6  C         18.4890  -42.6760    4.8770 C.2   1257  SAH1257     0.3819
      7  O         18.5710  -41.4450    4.6540 O.co2 1257  SAH1257    -0.2441
      8  OXT       19.0410  -43.5620    4.1930 O.co2 1257  SAH1257    -0.2441
      9  C5'       14.7660  -47.3070    4.1410 C.3   1257  SAH1257     0.0899
     10  C4'       14.4190  -48.2510    5.2610 C.3   1257  SAH1257     0.1630
     11  O4'       15.1730  -47.8750    6.4330 O.3   1257  SAH1257    -0.3153
     12  C3'       12.9500  -48.1050    5.6990 C.3   1257  SAH1257     0.2168
     13  O3'       12.1320  -49.0510    5.0200 O.3   1257  SAH1257    -0.2175
     14  C2'       13.0220  -48.3300    7.2320 C.3   1257  SAH1257     0.2569
     15  O2'       12.2760  -49.5020    7.5920 O.3   1257  SAH1257    -0.2130
     16  C1'       14.5370  -48.4890    7.5430 C.3   1257  SAH1257     0.3185
     17  N9        14.8580  -47.6200    8.7120 N.pl3 1257  SAH1257    -0.1439
     18  C8        14.8210  -46.2610    8.7530 C.3   1257  SAH1257     0.3377
     19  N7        15.1720  -45.8330    9.9880 N.2   1257  SAH1257    -0.2095
     20  C5        15.4500  -46.9320   10.7120 C.2   1257  SAH1257     0.2526
     21  C6        15.8610  -47.0980   12.0410 C.2   1257  SAH1257     0.4393
     22  N6        16.0190  -46.0270   12.8760 N.pl3 1257  SAH1257     0.2180
     23  N1        16.0820  -48.3500   12.4820 N.2   1257  SAH1257     0.0021
     24  C2        15.9060  -49.4190   11.6790 C.3   1257  SAH1257     0.5254
     25  N3        15.5380  -49.3080   10.3860 N.2   1257  SAH1257    -0.0055
     26  C4        15.2810  -48.0540    9.8940 C.2   1257  SAH1257     0.3518
@<TRIPOS>BOND
     1     9     5    1
     2     9    10    1
     3     8     6   ar
     4     5     4    1
     5     7     6   ar
     6     6     2    1
     7     4     3    1
     8    13    12    1
     9    10    12    1
    10    10    11    1
    11     3     2    1
    12    12    14    1
    13     2     1    1
    14    11    16    1
    15    14    16    1
    16    14    15    1
    17    16    17    1
    18    17    18    1
    19    17    26    1
    20    18    19    1
    21    26    25    2
    22    26    20    1
    23    19    20    2
    24    25    24    1
    25    20    21    1
    26    24    23    1
    27    21    23    2
    28    21    22    1
