@<TRIPOS>MOLECULE
2wrb_SIA_A_1.pdb
 21 21 0 0 0
SMALL
GASTEIGER

@<TRIPOS>ATOM
      1  C1        36.8050   23.9410   49.8440 C.2   1488  SIA1488     0.4179
      2  C2        37.1260   24.6530   51.1410 C.3   1488  SIA1488     0.3155
      3  C3        37.8180   25.9900   50.8480 C.3   1488  SIA1488     0.1056
      4  C4        36.8110   27.0470   50.4050 C.3   1488  SIA1488     0.1798
      5  C5        35.6510   27.0840   51.3780 C.3   1488  SIA1488     0.1554
      6  C6        34.9860   25.7180   51.3560 C.3   1488  SIA1488     0.1734
      7  C7        33.6830   25.7250   52.1530 C.3   1488  SIA1488     0.2135
      8  C8        33.0450   24.3400   52.1780 C.3   1488  SIA1488     0.2173
      9  C9        31.5630   24.4270   52.5230 C.3   1488  SIA1488     0.2175
     10  C10       34.1630   28.9590   51.8480 C.2   1488  SIA1488     0.2420
     11  C11       34.5710   28.7200   53.2960 C.3   1488  SIA1488     0.0964
     12  N5        34.7120   28.1320   50.9690 N.am  1488  SIA1488    -0.2020
     13  O1A       37.7450   23.7790   49.0460 O.co2 1488  SIA1488    -0.2401
     14  O1B       35.6340   23.5520   49.6900 O.co2 1488  SIA1488    -0.2401
     15  O2        38.0520   23.8420   51.8400 O.3   1488  SIA1488    -0.1830
     16  O4        37.4380   28.3270   50.3440 O.3   1488  SIA1488    -0.2210
     17  O6        35.9340   24.8170   51.9300 O.3   1488  SIA1488    -0.3220
     18  O7        33.9500   26.1290   53.4840 O.3   1488  SIA1488    -0.2176
     19  O8        33.1890   23.7440   50.8960 O.3   1488  SIA1488    -0.2175
     20  O9        31.2280   23.4210   53.4820 O.3   1488  SIA1488    -0.2175
     21  O10       33.3750   29.8500   51.5560 O.2   1488  SIA1488    -0.2733
@<TRIPOS>BOND
     1    13     1   ar
     2    14     1   ar
     3     1     2    1
     4    16     4    1
     5     4     3    1
     6     4     5    1
     7     3     2    1
     8    19     8    1
     9    12     5    1
    10    12    10   am
    11     2    15    1
    12     2    17    1
    13     6     5    1
    14     6    17    1
    15     6     7    1
    16    21    10    2
    17    10    11    1
    18     7     8    1
    19     7    18    1
    20     8     9    1
    21     9    20    1
