@<TRIPOS>MOLECULE
2wre_SIA_A_1.pdb
 20 20 0 0 0
SMALL
GASTEIGER

@<TRIPOS>ATOM
      1  C1        61.3460   45.6560   50.4460 C.2   1494  SIA1494     0.3914
      2  C2        61.6140   46.3070   51.8140 C.3   1494  SIA1494     0.2203
      3  C3        61.7050   47.8240   51.6740 C.3   1494  SIA1494     0.0760
      4  C4        60.3550   48.4710   51.3930 C.3   1494  SIA1494     0.1773
      5  C5        59.2970   47.9580   52.3540 C.3   1494  SIA1494     0.1552
      6  C6        59.3170   46.4510   52.3190 C.3   1494  SIA1494     0.1710
      7  C7        58.2320   45.7930   53.1490 C.3   1494  SIA1494     0.2134
      8  C8        58.2620   44.2860   52.8800 C.3   1494  SIA1494     0.2173
      9  C9        57.2090   43.5850   53.7220 C.3   1494  SIA1494     0.2175
     10  C10       57.0770   48.8560   52.7950 C.2   1494  SIA1494     0.2420
     11  C11       55.8230   49.4570   52.2040 C.3   1494  SIA1494     0.0964
     12  N5        58.0250   48.5240   51.9200 N.am  1494  SIA1494    -0.2020
     13  O1A       60.4300   44.8110   50.2950 O.co2 1494  SIA1494    -0.2430
     14  O1B       62.0630   45.9850   49.4800 O.co2 1494  SIA1494    -0.2430
     15  O4        60.4360   49.8870   51.5390 O.3   1494  SIA1494    -0.2211
     16  O6        60.5930   45.9630   52.7330 O.3   1494  SIA1494    -0.3429
     17  O7        58.4200   46.0500   54.5340 O.3   1494  SIA1494    -0.2176
     18  O8        58.0290   44.0140   51.5030 O.3   1494  SIA1494    -0.2175
     19  O9        56.8960   42.3430   53.1190 O.3   1494  SIA1494    -0.2175
     20  O10       57.1830   48.6880   54.0190 O.2   1494  SIA1494    -0.2733
@<TRIPOS>BOND
     1    14     1   ar
     2    13     1   ar
     3     1     2    1
     4     4    15    1
     5     4     3    1
     6     4     5    1
     7    18     8    1
     8     3     2    1
     9     2    16    1
    10    12     5    1
    11    12    10   am
    12    11    10    1
    13     6     5    1
    14     6    16    1
    15     6     7    1
    16    10    20    2
    17     8     7    1
    18     8     9    1
    19    19     9    1
    20     7    17    1
