@<TRIPOS>MOLECULE
2wre_GAL_B_1.pdb
 12 12 0 0 0
SMALL
GASTEIGER

@<TRIPOS>ATOM
      1  C1        36.0140    9.7660   75.1780 C.3   1496  GAL1496     0.3024
      2  C2        34.7250   10.2250   74.4630 C.3   1496  GAL1496     0.2434
      3  C3        34.3940    9.3560   73.2280 C.3   1496  GAL1496     0.2199
      4  C4        35.6300    9.1240   72.3350 C.3   1496  GAL1496     0.2144
      5  C5        36.7950    8.6270   73.1760 C.3   1496  GAL1496     0.1836
      6  C6        38.0580    8.4510   72.3670 C.3   1496  GAL1496     0.2142
      7  O1        36.4080   10.7070   76.1420 O.3   1496  GAL1496    -0.1869
      8  O2        33.6240   10.2420   75.3750 O.3   1496  GAL1496    -0.2148
      9  O3        33.3110    9.9440   72.4970 O.3   1496  GAL1496    -0.2174
     10  O4        36.0410   10.3130   71.6710 O.3   1496  GAL1496    -0.2176
     11  O5        37.0960    9.5760   74.2280 O.3   1496  GAL1496    -0.3236
     12  O6        39.2370    8.6340   73.1880 O.3   1496  GAL1496    -0.2176
@<TRIPOS>BOND
     1    10     4    1
     2     4     5    1
     3     4     3    1
     4     6     5    1
     5     6    12    1
     6     9     3    1
     7     5    11    1
     8     3     2    1
     9    11     1    1
    10     2     1    1
    11     2     8    1
    12     1     7    1
