@<TRIPOS>MOLECULE
2wrf_SIA_D_1.pdb
 21 21 0 0 0
SMALL
GASTEIGER

@<TRIPOS>ATOM
      1  C1        24.4780   -6.1180  -20.6780 C.2   1497  SIA1497     0.4179
      2  C2        25.9610   -6.3240  -20.3210 C.3   1497  SIA1497     0.3155
      3  C3        26.7800   -5.5600  -21.3630 C.3   1497  SIA1497     0.1056
      4  C4        26.5310   -4.0580  -21.2210 C.3   1497  SIA1497     0.1798
      5  C5        26.9860   -3.6310  -19.8340 C.3   1497  SIA1497     0.1554
      6  C6        26.1850   -4.4100  -18.8310 C.3   1497  SIA1497     0.1734
      7  C7        26.6610   -4.0820  -17.4380 C.3   1497  SIA1497     0.2135
      8  C8        26.0540   -5.0000  -16.3710 C.3   1497  SIA1497     0.2173
      9  C9        26.2650   -4.3920  -14.9960 C.3   1497  SIA1497     0.2175
     10  C10       27.7670   -1.3470  -19.3260 C.2   1497  SIA1497     0.2420
     11  C11       27.3390    0.0960  -19.1680 C.3   1497  SIA1497     0.0964
     12  N5        26.7880   -2.2050  -19.6340 N.am  1497  SIA1497    -0.2020
     13  O1A       23.7350   -5.3430  -20.0310 O.co2 1497  SIA1497    -0.2401
     14  O1B       24.0510   -6.7400  -21.6680 O.co2 1497  SIA1497    -0.2401
     15  O2        26.2130   -7.7050  -20.3660 O.3   1497  SIA1497    -0.1830
     16  O4        27.1950   -3.3120  -22.2460 O.3   1497  SIA1497    -0.2210
     17  O6        26.2980   -5.8240  -19.0240 O.3   1497  SIA1497    -0.3220
     18  O7        28.0700   -4.2400  -17.4070 O.3   1497  SIA1497    -0.2176
     19  O8        24.6630   -5.1930  -16.5600 O.3   1497  SIA1497    -0.2175
     20  O9        25.3370   -4.9820  -14.1150 O.3   1497  SIA1497    -0.2175
     21  O10       28.9610   -1.6490  -19.1730 O.2   1497  SIA1497    -0.2733
@<TRIPOS>BOND
     1    16     4    1
     2    14     1   ar
     3     3     4    1
     4     3     2    1
     5     4     5    1
     6     1     2    1
     7     1    13   ar
     8    15     2    1
     9     2    17    1
    10     5    12    1
    11     5     6    1
    12    12    10   am
    13    10    21    2
    14    10    11    1
    15    17     6    1
    16     6     7    1
    17     7    18    1
    18     7     8    1
    19    19     8    1
    20     8     9    1
    21     9    20    1
