@<TRIPOS>MOLECULE
2wrg_GAL_J_1.pdb
 11 11 0 0 0
SMALL
GASTEIGER

@<TRIPOS>ATOM
      1  C1        17.0250   47.8780   -4.1680 C.3   1331  GAL1331     0.1777
      2  C2        15.4690   47.5610   -4.3700 C.3   1331  GAL1331     0.2141
      3  C3        14.7570   47.1460   -3.0220 C.3   1331  GAL1331     0.2173
      4  C4        15.8050   46.2390   -2.2080 C.3   1331  GAL1331     0.2142
      5  C5        16.8950   47.2820   -1.6620 C.3   1331  GAL1331     0.1810
      6  C6        17.9020   46.6230   -0.8270 C.3   1331  GAL1331     0.2141
      7  O2        14.9230   48.6890   -5.0150 O.3   1331  GAL1331    -0.2176
      8  O3        13.5280   46.4580   -3.3390 O.3   1331  GAL1331    -0.2175
      9  O4        16.4450   45.1800   -3.0270 O.3   1331  GAL1331    -0.2176
     10  O5        17.6540   47.8810   -2.8280 O.3   1331  GAL1331    -0.3481
     11  O6        19.0310   47.5380   -0.5830 O.3   1331  GAL1331    -0.2176
@<TRIPOS>BOND
     1     7     2    1
     2     2     1    1
     3     2     3    1
     4     1    10    1
     5     8     3    1
     6     9     4    1
     7     3     4    1
     8    10     5    1
     9     4     5    1
    10     5     6    1
    11     6    11    1
