@<TRIPOS>MOLECULE
2wrg_SIA_J_1.pdb
 20 20 0 0 0
SMALL
GASTEIGER

@<TRIPOS>ATOM
      1  C1        19.2210   46.1870    1.6140 C.2   1330  SIA1330     0.3914
      2  C2        20.0440   46.8640    0.3690 C.3   1330  SIA1330     0.2203
      3  C3        21.0970   47.8520    0.7580 C.3   1330  SIA1330     0.0760
      4  C4        22.2830   47.0210    1.5040 C.3   1330  SIA1330     0.1773
      5  C5        22.8410   45.9520    0.4900 C.3   1330  SIA1330     0.1552
      6  C6        21.7160   44.8980   -0.0160 C.3   1330  SIA1330     0.1710
      7  C7        22.2290   44.0290   -1.1170 C.3   1330  SIA1330     0.2134
      8  C8        21.1420   43.0550   -1.5500 C.3   1330  SIA1330     0.2173
      9  C9        21.7070   42.0530   -2.5830 C.3   1330  SIA1330     0.2175
     10  C10       25.1290   45.1020    1.0960 C.2   1330  SIA1330     0.2420
     11  C11       25.7460   44.2970    1.7810 C.3   1330  SIA1330     0.0964
     12  N5        23.7900   45.1220    1.1930 N.am  1330  SIA1330    -0.2020
     13  O1A       18.6630   47.0250    2.3860 O.co2 1330  SIA1330    -0.2430
     14  O1B       19.1290   44.9550    1.7910 O.co2 1330  SIA1330    -0.2430
     15  O4        23.1870   47.8840    1.7420 O.3   1330  SIA1330    -0.2211
     16  O6        20.7640   45.8310   -0.3340 O.3   1330  SIA1330    -0.3429
     17  O7        22.5330   44.9040   -2.2160 O.3   1330  SIA1330    -0.2176
     18  O8        20.6870   42.3620   -0.3710 O.3   1330  SIA1330    -0.2175
     19  O9        20.6980   41.1720   -3.0310 O.3   1330  SIA1330    -0.2175
     20  O10       25.8810   46.0520    0.1740 O.2   1330  SIA1330    -0.2733
@<TRIPOS>BOND
     1    19     9    1
     2     9     8    1
     3    17     7    1
     4     8     7    1
     5     8    18    1
     6     7     6    1
     7    16     6    1
     8    16     2    1
     9     6     5    1
    10    20    10    2
    11     2     3    1
    12     2     1    1
    13     5    12    1
    14     5     4    1
    15     3     4    1
    16    10    12   am
    17    10    11    1
    18     4    15    1
    19     1    14   ar
    20     1    13   ar
