@<TRIPOS>MOLECULE
2wrh_SIA_H_1.pdb
 21 21 0 0 0
SMALL
GASTEIGER

@<TRIPOS>ATOM
      1  C1        49.7600    7.5500   -4.8340 C.2   1328  SIA1328     0.4179
      2  C2        50.3960    8.7830   -5.7080 C.3   1328  SIA1328     0.3155
      3  C3        51.2380    8.3360   -6.8500 C.3   1328  SIA1328     0.1056
      4  C4        50.2570    7.6980   -7.9720 C.3   1328  SIA1328     0.1798
      5  C5        49.2700    8.8220   -8.4770 C.3   1328  SIA1328     0.1554
      6  C6        48.3080    9.3150   -7.2540 C.3   1328  SIA1328     0.1734
      7  C7        47.3750   10.4350   -7.6440 C.3   1328  SIA1328     0.2135
      8  C8        46.6110   11.0530   -6.4730 C.3   1328  SIA1328     0.2173
      9  C9        45.6940   12.1700   -6.9950 C.3   1328  SIA1328     0.2175
     10  C10       48.2520    8.4650  -10.8040 C.2   1328  SIA1328     0.2420
     11  C11       49.0410    9.5190  -11.5780 C.3   1328  SIA1328     0.0964
     12  N5        48.4100    8.2260   -9.4810 N.am  1328  SIA1328    -0.2020
     13  O1A       50.6100    6.8170   -4.2610 O.co2 1328  SIA1328    -0.2401
     14  O1B       48.5430    7.3170   -4.7330 O.co2 1328  SIA1328    -0.2401
     15  O2        51.2360    9.6840   -4.7600 O.3   1328  SIA1328    -0.1830
     16  O4        51.0300    7.3280   -8.9140 O.3   1328  SIA1328    -0.2210
     17  O6        49.3260    9.5440   -6.3380 O.3   1328  SIA1328    -0.3220
     18  O7        48.1740   11.4570   -8.2700 O.3   1328  SIA1328    -0.2176
     19  O8        45.8160   10.0580   -5.8270 O.3   1328  SIA1328    -0.2175
     20  O9        44.9620   12.7740   -5.9570 O.3   1328  SIA1328    -0.2175
     21  O10       47.4210    7.7930  -11.4130 O.2   1328  SIA1328    -0.2733
@<TRIPOS>BOND
     1    11    10    1
     2    21    10    2
     3    10    12   am
     4    12     5    1
     5    16     4    1
     6     5     4    1
     7     5     6    1
     8    18     7    1
     9     4     3    1
    10     7     6    1
    11     7     8    1
    12     6    17    1
    13     9     8    1
    14     9    20    1
    15     3     2    1
    16     8    19    1
    17    17     2    1
    18     2     1    1
    19     2    15    1
    20     1    14   ar
    21     1    13   ar
