@<TRIPOS>MOLECULE
2wrm_QQ3_A_1.pdb
 24 26 0 0 0
SMALL
GASTEIGER

@<TRIPOS>ATOM
      1  C8        40.3860   11.3900   17.2500 C.3   1532  QQ31532     0.0001
      2  C7        40.5710   10.0280   16.5750 C.3   1532  QQ31532     0.0017
      3  C6        41.9160    9.3860   16.9090 C.3   1532  QQ31532     0.0209
      4  C5        41.7590    8.0660   17.6560 C.3   1532  QQ31532     0.0942
      5  C12       43.1130    7.4740   18.1230 C.3   1532  QQ31532     0.1342
      6  C18       43.4480    6.0480   17.6670 C.2   1532  QQ31532     0.3666
      7  O4        43.9690    5.9290   16.5380 O.co2 1532  QQ31532    -0.2456
      8  O3        43.1970    5.1230   18.4690 O.co2 1532  QQ31532    -0.2456
      9  N1        40.8300    7.1670   16.9420 N.am  1532  QQ31532    -0.2239
     10  C4        39.8060    6.6940   17.6200 C.2   1532  QQ31532     0.2572
     11  O1        39.6240    6.9490   18.8130 O.2   1532  QQ31532    -0.2694
     12  C3        39.0300    5.8930   16.8020 C.2   1532  QQ31532     0.0838
     13  C10       37.8640    5.1610   17.0100 C.2   1532  QQ31532     0.1139
     14  C14       37.1770    5.1140   18.3710 C.3   1532  QQ31532     0.0666
     15  N2        37.3120    4.4400   15.9590 N.2   1532  QQ31532    -0.4061
     16  C11       37.9100    4.4510   14.7010 C.2   1532  QQ31532     0.1305
     17  C15       37.3310    3.7110   13.6770 C.2   1532  QQ31532     0.0278
     18  C17       37.9140    3.7130   12.4070 C.2   1532  QQ31532    -0.0188
     19  C16       39.0740    4.4520   12.1790 C.3   1532  QQ31532     0.0522
     20  C13       39.6570    5.1830   13.2120 C.2   1532  QQ31532    -0.0187
     21  C9        39.0770    5.1890   14.4820 C.2   1532  QQ31532     0.0302
     22  C1        39.6430    5.9130   15.5410 C.2   1532  QQ31532     0.0627
     23  C2        40.7600    6.7380   15.6770 C.2   1532  QQ31532     0.2552
     24  O2        41.5510    6.9970   14.7710 O.2   1532  QQ31532    -0.2695
@<TRIPOS>BOND
     1    19    18    1
     2    19    20    1
     3    18    17    2
     4    20    21    2
     5    17    16    1
     6    21    16    1
     7    21    22    1
     8    16    15    2
     9    24    23    2
    10    22    23    1
    11    22    12    2
    12    23     9   am
    13    15    13    2
    14     7     6   ar
    15     2     3    1
    16     2     1    1
    17    12    13    1
    18    12    10    1
    19     3     4    1
    20     9    10   am
    21     9     4    1
    22    13    14    1
    23    10    11    2
    24     4     5    1
    25     6     5    1
    26     6     8   ar
