@<TRIPOS>MOLECULE
2wrn_GDP_1_1.pdb
 28 30 0 0 0
SMALL
GASTEIGER

@<TRIPOS>ATOM
      1  O6       -40.9510  -93.8230   66.7170 O.2     7  GDP7       -0.2069
      2  C6       -41.5520  -92.8000   67.0930 C.1     7  GDP7        0.2372
      3  N1       -41.4160  -92.4800   68.4470 N.2     7  GDP7       -0.2485
      4  C2       -41.9000  -91.2560   68.9430 C.1     7  GDP7        0.2531
      5  N2       -41.8210  -90.9750   70.2460 N.pl3   7  GDP7       -0.0226
      6  N3       -42.5170  -90.4020   68.1180 N.2     7  GDP7       -0.3074
      7  C4       -42.6760  -90.6830   66.8140 C.2     7  GDP7        0.2300
      8  C5       -42.1950  -91.8720   66.2720 C.2     7  GDP7        0.2182
      9  N7       -42.6630  -91.9260   65.0220 N.2     7  GDP7       -0.2322
     10  C8       -43.4220  -90.8490   64.8040 C.3     7  GDP7        0.2246
     11  N9       -43.4240  -90.0700   65.8750 N.pl3   7  GDP7       -0.2354
     12  C1'      -44.1300  -88.7630   65.9860 C.3     7  GDP7        0.2293
     13  O4'      -45.5520  -88.9670   66.1280 O.3     7  GDP7       -0.3326
     14  C2'      -44.0610  -87.9790   64.6720 C.3     7  GDP7        0.2310
     15  O2'      -42.8040  -87.3660   64.3650 O.3     7  GDP7       -0.2158
     16  C3'      -45.1400  -86.9450   64.9670 C.3     7  GDP7        0.2158
     17  O3'      -44.6420  -86.0320   65.9490 O.3     7  GDP7       -0.2175
     18  C4'      -46.2390  -87.8520   65.5240 C.3     7  GDP7        0.1799
     19  C5'      -47.1210  -88.3400   64.3720 C.3     7  GDP7        0.1813
     20  O5'      -46.3630  -89.0750   63.4110 O.3     7  GDP7       -0.3111
     21  PA       -47.0980  -89.4670   62.0340 P.3     7  GDP7        0.2231
     22  O1A      -47.3950  -88.1900   61.3450 O.3     7  GDP7       -0.4370
     23  O2A      -46.2520  -90.4620   61.3380 O.2     7  GDP7       -0.5169
     24  O3A      -48.4470  -90.1740   62.5700 O.3     7  GDP7       -0.2261
     25  PB       -49.8110  -90.2760   61.7170 P.3     7  GDP7        0.5373
     26  O1B      -50.6930  -89.2730   62.3590 O.3     7  GDP7       -0.1143
     27  O2B      -49.4400  -89.9840   60.3130 O.2     7  GDP7       -0.2221
     28  O3B      -50.1820  -91.6900   61.9500 O.3     7  GDP7       -0.1143
@<TRIPOS>BOND
     1    27    25    2
     2    23    21    2
     3    22    21    1
     4    25    28    1
     5    25    26    1
     6    25    24    1
     7    21    24    1
     8    21    20    1
     9    20    19    1
    10    15    14    1
    11    19    18    1
    12    14    16    1
    13    14    12    1
    14    10     9    1
    15    10    11    1
    16    16    18    1
    17    16    17    1
    18     9     8    2
    19    18    13    1
    20    11    12    1
    21    11     7    1
    22    12    13    1
    23     8     7    1
    24     8     2    1
    25     1     2    2
    26     7     6    2
    27     2     3    2
    28     6     4    2
    29     3     4    2
    30     4     5    1
