@<TRIPOS>MOLECULE
2wrq_GDP_1_1.pdb
 28 30 0 0 0
SMALL
GASTEIGER

@<TRIPOS>ATOM
      1  O6        39.3370 -220.3540  133.8460 O.2     7  GDP7       -0.2069
      2  C6        39.7480 -219.2280  133.5770 C.1     7  GDP7        0.2372
      3  N1        39.5420 -218.8070  132.2530 N.2     7  GDP7       -0.2485
      4  C2        39.8520 -217.4900  131.9040 C.1     7  GDP7        0.2531
      5  N2        39.6750 -217.0940  130.6470 N.pl3   7  GDP7       -0.0226
      6  N3        40.3310 -216.6280  132.8210 N.2     7  GDP7       -0.3074
      7  C4        40.5530 -217.0130  134.0880 C.2     7  GDP7        0.2300
      8  C5        40.2790 -218.3210  134.4870 C.2     7  GDP7        0.2182
      9  N7        40.8230 -218.4310  135.7070 N.2     7  GDP7       -0.2322
     10  C8        41.3520 -217.2680  136.0590 C.3     7  GDP7        0.2246
     11  N9        41.2100 -216.3940  135.0630 N.pl3   7  GDP7       -0.2354
     12  C1'       41.7220 -214.9990  135.1160 C.3     7  GDP7        0.2293
     13  O4'       43.1510 -214.9200  134.9280 O.3     7  GDP7       -0.3326
     14  C2'       41.5450 -214.3550  136.4960 C.3     7  GDP7        0.2310
     15  O2'       40.2040 -213.9990  136.8480 O.3     7  GDP7       -0.2158
     16  C3'       42.4310 -213.1250  136.3260 C.3     7  GDP7        0.2158
     17  O3'       41.7890 -212.1980  135.4440 O.3     7  GDP7       -0.2175
     18  C4'       43.6500 -213.7960  135.6870 C.3     7  GDP7        0.1799
     19  C5'       44.6300 -214.2620  136.7690 C.3     7  GDP7        0.1813
     20  O5'       44.0200 -215.1960  137.6650 O.3     7  GDP7       -0.3111
     21  PA        44.8400 -215.6370  138.9790 P.3     7  GDP7        0.2231
     22  O1A       44.9300 -214.4220  139.8210 O.3     7  GDP7       -0.4370
     23  O2A       44.1990 -216.8450  139.5480 O.2     7  GDP7       -0.5169
     24  O3A       46.2780 -216.0440  138.3660 O.3     7  GDP7       -0.2261
     25  PB        47.6640 -216.0480  139.1960 P.3     7  GDP7        0.5373
     26  O1B       48.3820 -214.8580  138.6860 O.2     7  GDP7       -0.2221
     27  O2B       47.2770 -215.9820  140.6240 O.3     7  GDP7       -0.1143
     28  O3B       48.2700 -217.3420  138.8160 O.3     7  GDP7       -0.1143
@<TRIPOS>BOND
     1     5     4    1
     2     4     3    2
     3     4     6    2
     4     3     2    2
     5     6     7    2
     6     2     1    2
     7     2     8    1
     8     7     8    1
     9     7    11    1
    10     8     9    2
    11    13    12    1
    12    13    18    1
    13    11    12    1
    14    11    10    1
    15    12    14    1
    16    17    16    1
    17    18    16    1
    18    18    19    1
    19     9    10    1
    20    16    14    1
    21    14    15    1
    22    19    20    1
    23    20    21    1
    24    24    21    1
    25    24    25    1
    26    26    25    2
    27    28    25    1
    28    21    23    2
    29    21    22    1
    30    25    27    1
