@<TRIPOS>MOLECULE
2ws3_HEM_C_1.pdb
 43 50 0 0 0
SMALL
GASTEIGER

@<TRIPOS>ATOM
      1  CHA       55.6010  -13.5880  -33.6820 C.2   1130  HEM1130     0.0000
      2  CHB       59.5690  -12.2400  -36.0510 C.2   1130  HEM1130     0.0000
      3  CHC       62.2440  -13.6680  -32.2240 C.2   1130  HEM1130     0.0000
      4  CHD       58.2250  -14.3950  -29.6880 C.2   1130  HEM1130     0.0000
      5  C1A       56.4200  -13.0380  -34.6220 C.ar  1130  HEM1130     0.0000
      6  C2A       56.0020  -12.3560  -35.8380 C.ar  1130  HEM1130     0.0000
      7  C3A       57.1080  -11.9900  -36.5040 C.ar  1130  HEM1130     0.0000
      8  C4A       58.2530  -12.4270  -35.7180 C.ar  1130  HEM1130     0.0000
      9  CMA       57.1930  -11.2160  -37.8440 C.3   1130  HEM1130     0.0000
     10  CAA       54.5450  -12.1040  -36.2730 C.3   1130  HEM1130     0.0000
     11  CBA       53.9100  -11.1640  -35.2600 C.3   1130  HEM1130     0.0000
     12  CGA       52.4360  -10.9850  -35.5600 C.2   1130  HEM1130     0.0000
     13  O1A       51.8560  -10.0460  -34.9440 O.co2 1130  HEM1130     0.0000
     14  O2A       51.8360  -11.7490  -36.3820 O.co2 1130  HEM1130     0.0000
     15  C1B       60.6220  -12.6090  -35.2630 C.2   1130  HEM1130     0.0000
     16  C2B       62.0090  -12.6820  -35.7030 C.2   1130  HEM1130     0.0000
     17  C3B       62.7190  -13.0700  -34.6450 C.2   1130  HEM1130     0.0000
     18  C4B       61.8390  -13.2600  -33.4920 C.2   1130  HEM1130     0.0000
     19  CMB       62.6210  -12.3790  -37.1020 C.3   1130  HEM1130     0.0000
     20  CAB       64.2420  -13.2820  -34.6830 C.2   1130  HEM1130     0.0000
     21  CBB       64.8990  -13.2140  -33.5200 C.2   1130  HEM1130     0.0000
     22  C1C       61.4050  -13.9250  -31.1590 C.ar  1130  HEM1130     0.0000
     23  C2C       61.7890  -14.1940  -29.7730 C.ar  1130  HEM1130     0.0000
     24  C3C       60.6620  -14.3890  -29.0930 C.ar  1130  HEM1130     0.0000
     25  C4C       59.5430  -14.2760  -30.0060 C.ar  1130  HEM1130     0.0000
     26  CMC       63.2150  -14.2400  -29.1580 C.3   1130  HEM1130     0.0000
     27  CAC       60.6060  -14.6690  -27.5890 C.2   1130  HEM1130     0.0000
     28  CBC       59.5980  -15.3620  -27.0690 C.2   1130  HEM1130     0.0000
     29  C1D       57.1560  -14.3550  -30.5410 C.2   1130  HEM1130     0.0000
     30  C2D       55.8130  -14.8020  -30.2170 C.2   1130  HEM1130     0.0000
     31  C3D       55.0110  -14.5410  -31.4810 C.2   1130  HEM1130     0.0000
     32  C4D       55.9390  -13.9680  -32.4170 C.2   1130  HEM1130     0.0000
     33  CMD       55.2970  -15.4130  -28.8920 C.3   1130  HEM1130     0.0000
     34  CAD       53.5480  -14.8740  -31.7590 C.3   1130  HEM1130     0.0000
     35  CBD       52.5390  -14.0600  -30.9710 C.3   1130  HEM1130     0.0000
     36  CGD       51.1950  -14.2550  -31.6560 C.2   1130  HEM1130     0.0000
     37  O1D       50.2400  -13.5610  -31.2300 O.co2 1130  HEM1130     0.0000
     38  O2D       51.0740  -15.0860  -32.6210 O.co2 1130  HEM1130     0.0000
     39  NA        57.7980  -13.0750  -34.5770 N.ar  1130  HEM1130     0.0000
     40  NB        60.5460  -12.9600  -33.9180 N.2   1130  HEM1130     0.0000
     41  NC        60.0190  -13.9830  -31.2510 N.ar  1130  HEM1130     0.0000
     42  ND        57.1890  -13.8590  -31.8300 N.2   1130  HEM1130     0.0000
     43 FE         58.8660  -13.4840  -32.8600 Fe    1130  HEM1130     0.0000
@<TRIPOS>BOND
     1     9     7    1
     2    19    16    1
     3     7     6   ar
     4     7     8   ar
     5    14    12   ar
     6    10     6    1
     7    10    11    1
     8     2     8    2
     9     2    15    1
    10     6     5   ar
    11     8    39   ar
    12    16    15    1
    13    16    17    2
    14    12    11    1
    15    12    13   ar
    16    15    40    2
    17    20    17    1
    18    20    21    2
    19    17    18    1
    20     5    39   ar
    21     5     1    2
    22    39    43    1
    23    40    18    1
    24    40    43    1
    25     1    32    1
    26    18     3    2
    27    43    42    1
    28    43    41    1
    29    38    36   ar
    30    32    42    2
    31    32    31    1
    32     3    22    1
    33    42    29    1
    34    34    31    1
    35    34    35    1
    36    36    37   ar
    37    36    35    1
    38    31    30    2
    39    41    22   ar
    40    41    25   ar
    41    22    23   ar
    42    29    30    1
    43    29     4    2
    44    30    33    1
    45    25     4    1
    46    25    24   ar
    47    23    26    1
    48    23    24   ar
    49    24    27    1
    50    27    28    2
