@<TRIPOS>MOLECULE
2ws3_CBE_C_1.pdb
 16 17 0 0 0
SMALL
GASTEIGER

@<TRIPOS>ATOM
      1  C1        45.7840   -9.1290  -36.1130 C.3   1129  CBE1129     0.0725
      2  C2        46.8330   -8.7740  -35.0600 C.2   1129  CBE1129     0.1265
      3  C3        47.1200   -7.4400  -34.7950 C.2   1129  CBE1129     0.1105
      4  S4        48.2940   -7.0390  -33.5910 S.3   1129  CBE1129    -0.1026
      5  C5        49.4000   -8.5020  -33.6230 C.3   1129  CBE1129     0.1096
      6  C6        48.8740   -9.6850  -34.4520 C.3   1129  CBE1129     0.2169
      7  O7        47.4660   -9.7730  -34.3650 O.2   1129  CBE1129    -0.4781
      8  C8        46.5020   -6.2440  -35.5220 C.2   1129  CBE1129     0.2773
      9  O9        46.5180   -6.1710  -36.7640 O.2   1129  CBE1129    -0.2674
     10  N10       46.5600   -5.1930  -34.6900 N.am  1129  CBE1129    -0.1750
     11  C11       46.0900   -3.9630  -34.9140 C.ar  1129  CBE1129     0.0737
     12  C12       45.7030   -3.2160  -33.7790 C.ar  1129  CBE1129     0.0166
     13  C13       45.2200   -1.9120  -33.9660 C.ar  1129  CBE1129     0.0013
     14  C14       45.1400   -1.3840  -35.2750 C.ar  1129  CBE1129     0.0001
     15  C15       45.5260   -2.1210  -36.4090 C.ar  1129  CBE1129     0.0013
     16  C16       46.0060   -3.4190  -36.2210 C.ar  1129  CBE1129     0.0166
@<TRIPOS>BOND
     1     9     8    2
     2    15    16   ar
     3    15    14   ar
     4    16    11   ar
     5     1     2    1
     6     8     3    1
     7     8    10   am
     8    14    13   ar
     9     2     3    2
    10     2     7    1
    11    11    10    1
    12    11    12   ar
    13     3     4    1
    14     6     7    1
    15     6     5    1
    16    13    12   ar
    17     5     4    1
