@<TRIPOS>MOLECULE
2wsa_646_A_1.pdb
 32 35 0 0 0
SMALL
GASTEIGER

@<TRIPOS>ATOM
      1  CAA       26.7830    6.0640   17.6030 C.3   1423  6461423     0.0554
      2  CAB       29.5770    3.0050   14.5320 C.3   1423  6461423     0.0532
      3  CAC       28.1490    1.3950   16.6330 C.3   1423  6461423     0.1534
      4  OAD       28.6790    7.9430   13.4880 O.2   1423  6461423    -0.1482
      5  OAE       26.5770    7.2170   14.5820 O.2   1423  6461423    -0.1482
      6 CLF        30.1210    5.8260   11.8320 Cl    1423  6461423    -0.0808
      7 CLG        24.9690    5.1080   13.7010 Cl    1423  6461423    -0.0808
      8  CAH       27.9140   -0.0980    9.5430 C.ar  1423  6461423     0.1003
      9  CAI       28.1580    1.1160   10.1830 C.ar  1423  6461423     0.0208
     10  CAJ       28.4080    3.8580   11.2010 C.ar  1423  6461423     0.0128
     11  CAK       26.2110    3.6130   12.0310 C.ar  1423  6461423     0.0128
     12  CAL       25.7770    1.4660   10.1930 C.ar  1423  6461423     0.0343
     13  CAM       21.9800   -0.2450    8.6940 C.3   1423  6461423     0.1102
     14  CAN       23.1820   -2.3590    8.3870 C.3   1423  6461423     0.1102
     15  CAO       23.1270    0.3560    9.4970 C.3   1423  6461423     0.1110
     16  CAP       24.4380   -1.8040    9.1010 C.3   1423  6461423     0.1110
     17  NAQ       26.6780   -0.4530    9.1560 N.ar  1423  6461423    -0.2292
     18  NAR       27.3520    3.6000   17.2960 N.ar  1423  6461423    -0.1725
     19  NAS       21.9230   -1.7080    8.8660 N.3   1423  6461423    -0.2144
     20  NAT       28.7570    6.0740   15.1030 N.pl3 1423  6461423    -0.0941
     21  CAU       27.4910    4.8800   16.8950 C.ar  1423  6461423     0.0967
     22  CAV       28.6670    3.6080   15.5810 C.ar  1423  6461423     0.0738
     23  CAW       28.5960    5.0110   11.9610 C.ar  1423  6461423     0.0774
     24  CAX       26.4040    4.7410   12.7890 C.ar  1423  6461423     0.0774
     25  CAY       27.0660    1.9160   10.5310 C.ar  1423  6461423     0.0044
     26  CAZ       27.2400    3.1080   11.2480 C.ar  1423  6461423     0.0019
     27  CBA       25.6200    0.2610    9.4990 C.ar  1423  6461423     0.1318
     28  CBB       28.3390    4.9470   15.7850 C.ar  1423  6461423     0.1192
     29  CBC       27.5710    5.5190   12.7440 C.ar  1423  6461423     0.1480
     30  NBD       24.4070   -0.3130    9.1690 N.pl3 1423  6461423    -0.2903
     31  NBE       28.0410    2.8870   16.5210 N.ar  1423  6461423    -0.2518
     32  SBF       27.8390    6.8210   13.9430 S.O2  1423  6461423     0.0945
@<TRIPOS>BOND
     1    14    19    1
     2    14    16    1
     3    13    19    1
     4    13    15    1
     5    16    30    1
     6    17    27   ar
     7    17     8   ar
     8    30    15    1
     9    30    27    1
    10    27    12   ar
    11     8     9   ar
    12     9    25   ar
    13    12    25   ar
    14    25    26    1
    15    10    26   ar
    16    10    23   ar
    17    26    11   ar
    18     6    23    1
    19    23    29   ar
    20    11    24   ar
    21    29    24   ar
    22    29    32    1
    23    24     7    1
    24     4    32    2
    25    32     5    2
    26    32    20    1
    27     2    22    1
    28    20    28    1
    29    22    28   ar
    30    22    31   ar
    31    28    21   ar
    32    31     3    1
    33    31    18   ar
    34    21    18   ar
    35    21     1    1
