@<TRIPOS>MOLECULE
2wsb_NAD_A_1.pdb
 44 48 0 0 0
SMALL
GASTEIGER

@<TRIPOS>ATOM
      1  PA        45.8330  115.2600   36.8840 P.3   500  NAD500      0.2189
      2  O1A       45.5100  115.2080   35.4500 O.2   500  NAD500     -0.5170
      3  O2A       44.6910  115.3700   37.8910 O.3   500  NAD500     -0.4371
      4  O5B       46.9040  116.4100   37.1490 O.3   500  NAD500     -0.3112
      5  C5B       48.0010  116.5890   36.2790 C.3   500  NAD500      0.1813
      6  C4B       48.3630  118.0790   36.4430 C.3   500  NAD500      0.1821
      7  O4B       49.6210  118.1890   35.6150 O.3   500  NAD500     -0.3135
      8  C3B       47.3170  119.0090   35.8270 C.3   500  NAD500      0.2184
      9  O3B       47.1250  120.1480   36.6840 O.3   500  NAD500     -0.2174
     10  C2B       47.9700  119.3640   34.4740 C.3   500  NAD500      0.2570
     11  O2B       47.5520  120.6670   33.9520 O.3   500  NAD500     -0.2130
     12  C1B       49.4430  119.3470   34.7300 C.3   500  NAD500      0.3186
     13  N9A       50.2310  119.0760   33.5570 N.pl3 500  NAD500     -0.1439
     14  C8A       49.9650  118.1320   32.6280 C.3   500  NAD500      0.3377
     15  N7A       50.9160  118.2530   31.6360 N.2   500  NAD500     -0.2095
     16  C5A       51.7450  119.3410   31.9920 C.2   500  NAD500      0.2526
     17  C6A       52.8430  119.9350   31.3420 C.2   500  NAD500      0.4393
     18  N6A       53.2470  119.6190   30.0920 N.pl3 500  NAD500      0.2180
     19  N1A       53.4290  120.9750   31.9610 N.2   500  NAD500      0.0021
     20  C2A       52.9410  121.4180   33.1570 C.3   500  NAD500      0.5254
     21  N3A       51.8850  120.9100   33.8280 N.2   500  NAD500     -0.0055
     22  C4A       51.3020  119.8250   33.2000 C.2   500  NAD500      0.3518
     23  O3        46.7080  113.9350   37.1540 O.3   500  NAD500     -0.2703
     24  PN        47.0320  113.1670   38.5310 P.3   500  NAD500      0.2189
     25  O1N       46.0300  112.0670   38.7010 O.2   500  NAD500     -0.5170
     26  O2N       47.2060  114.1680   39.6010 O.3   500  NAD500     -0.4371
     27  O5D       48.4300  112.5280   38.1830 O.3   500  NAD500     -0.3112
     28  C5D       49.7350  113.0860   38.6530 C.3   500  NAD500      0.1813
     29  C4D       50.8030  112.1240   38.2740 C.3   500  NAD500      0.1799
     30  O4D       50.5300  110.8430   38.9040 O.3   500  NAD500     -0.3327
     31  C3D       50.9390  111.8340   36.7920 C.3   500  NAD500      0.2158
     32  O3D       52.3230  111.5830   36.4630 O.3   500  NAD500     -0.2175
     33  C2D       50.1640  110.5270   36.6220 C.3   500  NAD500      0.2309
     34  O2D       50.6430  109.8000   35.4890 O.3   500  NAD500     -0.2158
     35  C1D       50.5350  109.8500   37.9310 C.3   500  NAD500      0.2263
     36  N1N       49.6100  108.7540   38.3130 N.pl3 500  NAD500     -0.2787
     37  C2N       48.2380  108.9380   38.3880 C.3   500  NAD500      0.1244
     38  C3N       47.4280  107.9180   38.7260 C.2   500  NAD500      0.0544
     39  C7N       45.9950  108.2210   38.7930 C.2   500  NAD500      0.2818
     40  O7N       45.2260  107.0950   38.8270 O.2   500  NAD500     -0.2670
     41  N7N       45.3870  109.3990   38.8890 N.am  500  NAD500     -0.0839
     42  C4N       47.9060  106.6270   38.9690 C.2   500  NAD500      0.0033
     43  C5N       49.3060  106.4230   39.0230 C.2   500  NAD500      0.0157
     44  C6N       50.1810  107.4790   38.6650 C.2   500  NAD500      0.0633
@<TRIPOS>BOND
     1    18    17    1
     2    17    19    2
     3    17    16    1
     4    15    16    2
     5    15    14    1
     6    19    20    1
     7    16    22    1
     8    14    13    1
     9    20    21    1
    10    22    13    1
    11    22    21    2
    12    13    12    1
    13    11    10    1
    14    10    12    1
    15    10     8    1
    16    12     7    1
    17     2     1    2
    18    34    33    1
    19     7     6    1
    20     8     6    1
    21     8     9    1
    22     5     6    1
    23     5     4    1
    24    32    31    1
    25    33    31    1
    26    33    35    1
    27    31    29    1
    28     1     4    1
    29     1    23    1
    30     1     3    1
    31    23    24    1
    32    35    36    1
    33    35    30    1
    34    27    24    1
    35    27    28    1
    36    29    28    1
    37    29    30    1
    38    36    37    1
    39    36    44    1
    40    37    38    1
    41    24    25    2
    42    24    26    1
    43    44    43    2
    44    38    39    1
    45    38    42    2
    46    39    40    2
    47    39    41   am
    48    42    43    1
