@<TRIPOS>MOLECULE
2wsc_PQN_A_1.pdb
 33 34 0 0 0
SMALL
GASTEIGER

@<TRIPOS>ATOM
      1  C1        15.4170   -5.4490   66.4310 C.2   1802  PQN1802     0.1915
      2  O1        14.3400   -5.1430   65.8240 O.2   1802  PQN1802    -0.2869
      3  C2        16.7610   -4.8440   66.0890 C.2   1802  PQN1802     0.0165
      4  C2M       16.9070   -3.8260   64.9960 C.3   1802  PQN1802     0.0342
      5  C3        17.9790   -5.2470   66.8480 C.2   1802  PQN1802     0.0202
      6  C4        17.8930   -6.2430   67.9390 C.2   1802  PQN1802     0.1918
      7  O4        18.9480   -6.5610   68.5370 O.2   1802  PQN1802    -0.2869
      8  C5        16.5760   -6.8470   68.2760 C.ar  1802  PQN1802     0.0417
      9  C6        16.4570   -7.7660   69.2880 C.ar  1802  PQN1802     0.0033
     10  C7        15.2070   -8.2890   69.6020 C.ar  1802  PQN1802     0.0001
     11  C8        14.0450   -7.9340   68.9280 C.ar  1802  PQN1802     0.0001
     12  C9        14.1260   -7.0100   67.8980 C.ar  1802  PQN1802     0.0033
     13  C10       15.3470   -6.4510   67.5470 C.ar  1802  PQN1802     0.0417
     14  C11       19.3370   -4.6590   66.5390 C.3   1802  PQN1802     0.0547
     15  C12       19.4960   -3.4300   67.4260 C.2   1802  PQN1802    -0.0298
     16  C13       20.6470   -3.0310   68.0260 C.2   1802  PQN1802    -0.0478
     17  C14       21.9170   -3.8520   67.8690 C.3   1802  PQN1802     0.0260
     18  C15       20.5990   -1.7530   68.8680 C.3   1802  PQN1802     0.0217
     19  C16       21.7750   -1.5680   69.8250 C.3   1802  PQN1802     0.0043
     20  C17       22.6950   -0.5110   69.2350 C.3   1802  PQN1802     0.0003
     21  C18       23.5320    0.1460   70.3150 C.3   1802  PQN1802     0.0000
     22  C19       22.5860    0.9270   71.2280 C.3   1802  PQN1802     0.0000
     23  C20       24.5690    1.0860   69.7210 C.3   1802  PQN1802     0.0000
     24  C21       25.4820    1.4260   70.8870 C.3   1802  PQN1802     0.0000
     25  C22       26.8550    1.8990   70.4300 C.3   1802  PQN1802     0.0000
     26  C23       27.3030    3.2190   71.0820 C.3   1802  PQN1802     0.0000
     27  C24       26.6460    3.4460   72.4690 C.3   1802  PQN1802     0.0000
     28  C25       28.8430    3.1980   71.1720 C.3   1802  PQN1802     0.0000
     29  C26       29.5300    4.5360   70.8900 C.3   1802  PQN1802     0.0000
     30  C27       29.2230    5.5240   72.0040 C.3   1802  PQN1802     0.0000
     31  C28       28.6380    6.8190   71.4540 C.3   1802  PQN1802     0.0000
     32  C29       28.1500    6.7450   69.9830 C.3   1802  PQN1802     0.0000
     33  C30       29.6660    7.9420   71.6810 C.3   1802  PQN1802     0.0000
@<TRIPOS>BOND
     1     4     3    1
     2     2     1    2
     3     3     1    1
     4     3     5    2
     5     1    13    1
     6    14     5    1
     7    14    15    1
     8     5     6    1
     9    15    16    2
    10    13    12   ar
    11    13     8   ar
    12    17    16    1
    13    12    11   ar
    14     6     8    1
    15     6     7    2
    16    16    18    1
    17     8     9   ar
    18    18    19    1
    19    11    10   ar
    20    20    19    1
    21    20    21    1
    22     9    10   ar
    23    23    21    1
    24    23    24    1
    25    32    31    1
    26    21    22    1
    27    25    24    1
    28    25    26    1
    29    29    28    1
    30    29    30    1
    31    26    28    1
    32    26    27    1
    33    31    33    1
    34    31    30    1
