@<TRIPOS>MOLECULE
2wsc_CLA_1_1.pdb
 46 52 0 0 0
SMALL
GASTEIGER

@<TRIPOS>ATOM
      1 MG         69.0500  -18.5730    8.0720 Mg    1187  CLA1187     0.0000
      2  CHA       71.4070  -17.1700   10.1010 C.2   1187  CLA1187     0.0000
      3  CHB       69.0670  -16.0460    5.9820 C.2   1187  CLA1187     0.0000
      4  CHC       66.6130  -20.2490    6.0550 C.2   1187  CLA1187     0.0000
      5  CHD       69.0230  -21.4400   10.3080 C.2   1187  CLA1187     0.0000
      6  NA        70.0580  -16.8730    8.0330 N.ar  1187  CLA1187     0.0000
      7  C1A       70.9460  -16.4440    8.8780 C.ar  1187  CLA1187     0.0000
      8  C2A       71.4370  -15.0780    8.4960 C.ar  1187  CLA1187     0.0000
      9  C3A       70.7480  -14.8400    7.1670 C.ar  1187  CLA1187     0.0000
     10  C4A       69.8580  -16.0050    7.0440 C.ar  1187  CLA1187     0.0000
     11  CMA       70.2780  -13.4740    6.6800 C.3   1187  CLA1187     0.0000
     12  CAA       72.8800  -14.8840    8.1320 C.3   1187  CLA1187     0.0000
     13  CBA       72.8220  -13.8820    6.9810 C.3   1187  CLA1187     0.0000
     14  CGA       74.2020  -13.5000    6.5580 C.2   1187  CLA1187     0.0000
     15  O1A       75.0420  -14.3380    6.2490 O.2   1187  CLA1187     0.0000
     16  O2A       74.5140  -12.0920    6.5100 O.3   1187  CLA1187     0.0000
     17  NB        68.0690  -18.1790    6.3630 N.2   1187  CLA1187     0.0000
     18  C1B       68.1640  -17.1180    5.6160 C.2   1187  CLA1187     0.0000
     19  C2B       67.3310  -17.1400    4.5240 C.2   1187  CLA1187     0.0000
     20  C3B       66.7290  -18.3660    4.6340 C.2   1187  CLA1187     0.0000
     21  C4B       67.1750  -18.9460    5.7650 C.2   1187  CLA1187     0.0000
     22  CMB       67.1430  -16.1280    3.4220 C.3   1187  CLA1187     0.0000
     23  CAB       65.4060  -18.5220    4.4630 C.1   1187  CLA1187     0.0000
     24  CBB       64.1890  -18.7280    4.2400 C.1   1187  CLA1187     0.0000
     25  NC        68.0620  -20.3720    8.1450 N.2   1187  CLA1187     0.0000
     26  C1C       67.1610  -20.8360    7.2740 C.1   1187  CLA1187     0.0000
     27  C2C       66.7110  -22.0740    7.6230 C.2   1187  CLA1187     0.0000
     28  C3C       67.3420  -22.3760    8.7440 C.2   1187  CLA1187     0.0000
     29  C4C       68.1820  -21.3420    9.0750 C.1   1187  CLA1187     0.0000
     30  CMC       65.7280  -22.9830    6.9400 C.3   1187  CLA1187     0.0000
     31  CAC       67.0970  -23.6930    9.3700 C.3   1187  CLA1187     0.0000
     32  CBC       66.9300  -24.5370    8.1290 C.3   1187  CLA1187     0.0000
     33  ND        69.9670  -19.1750    9.7580 N.2   1187  CLA1187     0.0000
     34  C1D       69.8810  -20.2610   10.5190 C.1   1187  CLA1187     0.0000
     35  C2D       70.7510  -20.1010   11.5610 C.2   1187  CLA1187     0.0000
     36  C3D       71.3470  -18.9250   11.4030 C.2   1187  CLA1187     0.0000
     37  C4D       70.8780  -18.3740   10.3280 C.2   1187  CLA1187     0.0000
     38  CMD       71.1840  -20.8660   12.7330 C.3   1187  CLA1187     0.0000
     39  CAD       72.2690  -18.2050   12.0970 C.3   1187  CLA1187     0.0000
     40  OBD       71.7270  -18.0540   13.2740 O.3   1187  CLA1187     0.0000
     41  CBD       72.3520  -16.9270   11.2780 C.3   1187  CLA1187     0.0000
     42  CGD       71.9400  -15.9530   12.4030 C.2   1187  CLA1187     0.0000
     43  O1D       72.7080  -15.7330   13.3480 O.2   1187  CLA1187     0.0000
     44  O2D       70.5890  -15.3850   12.4650 O.3   1187  CLA1187     0.0000
     45  CED       69.7950  -15.2560   13.6400 C.3   1187  CLA1187     0.0000
     46  C1        74.8870  -11.3750    7.6860 C.3   1187  CLA1187     0.0000
@<TRIPOS>BOND
     1    22    19    1
     2    24    23    3
     3    23    20    1
     4    19    20    2
     5    19    18    1
     6    20    21    1
     7    18     3    1
     8    18    17    2
     9    21     4    2
    10    21    17    1
    11     3    10    2
    12     4    26    1
    13    15    14    2
    14    17     1    1
    15    16    14    1
    16    16    46    1
    17    14    13    1
    18    11     9    1
    19    30    27    1
    20    13    12    1
    21    10     9   ar
    22    10     6   ar
    23     9     8   ar
    24    26    27    2
    25    26    25    2
    26    27    28    1
    27     6     1    1
    28     6     7   ar
    29    32    31    1
    30    12     8    1
    31    25    29    2
    32     8     7   ar
    33    28    29    2
    34    28    31    1
    35     7     2    2
    36    29     5    1
    37    33    37    2
    38    33    34    2
    39     2    37    1
    40     2    41    1
    41     5    34    2
    42    37    36    1
    43    34    35    1
    44    41    39    1
    45    41    42    1
    46    36    35    2
    47    36    39    1
    48    35    38    1
    49    39    40    1
    50    42    44    1
    51    42    43    2
    52    44    45    1
