@<TRIPOS>MOLECULE
2wse_PQN_A_1.pdb
 33 34 0 0 0
SMALL
GASTEIGER

@<TRIPOS>ATOM
      1  C1        15.5300   -5.4360   65.8580 C.2   1801  PQN1801     0.1915
      2  O1        14.4520   -5.1310   65.2550 O.2   1801  PQN1801    -0.2869
      3  C2        16.8760   -4.8300   65.5200 C.2   1801  PQN1801     0.0165
      4  C2M       17.0230   -3.8130   64.4350 C.3   1801  PQN1801     0.0342
      5  C3        18.0950   -5.2340   66.2730 C.2   1801  PQN1801     0.0202
      6  C4        18.0090   -6.2290   67.3550 C.2   1801  PQN1801     0.1918
      7  O4        19.0640   -6.5470   67.9490 O.2   1801  PQN1801    -0.2869
      8  C5        16.6900   -6.8330   67.6890 C.ar  1801  PQN1801     0.0417
      9  C6        16.5710   -7.7520   68.6930 C.ar  1801  PQN1801     0.0033
     10  C7        15.3190   -8.2750   69.0030 C.ar  1801  PQN1801     0.0001
     11  C8        14.1550   -7.9210   68.3350 C.ar  1801  PQN1801     0.0001
     12  C9        14.2360   -6.9970   67.3120 C.ar  1801  PQN1801     0.0033
     13  C10       15.4600   -6.4390   66.9650 C.ar  1801  PQN1801     0.0417
     14  C11       19.4560   -4.6460   65.9670 C.3   1801  PQN1801     0.0547
     15  C12       19.6150   -3.4140   66.8440 C.2   1801  PQN1801    -0.0298
     16  C13       20.7670   -3.0130   67.4400 C.2   1801  PQN1801    -0.0478
     17  C14       22.0380   -3.8350   67.2860 C.3   1801  PQN1801     0.0260
     18  C15       20.7180   -1.7330   68.2730 C.3   1801  PQN1801     0.0217
     19  C16       21.8960   -1.5470   69.2220 C.3   1801  PQN1801     0.0043
     20  C17       22.8180   -0.4900   68.6360 C.3   1801  PQN1801     0.0003
     21  C18       23.6550    0.1690   69.7070 C.3   1801  PQN1801     0.0000
     22  C19       22.7070    0.9520   70.6090 C.3   1801  PQN1801     0.0000
     23  C20       24.6940    1.1090   69.1170 C.3   1801  PQN1801     0.0000
     24  C21       25.6080    1.4500   70.2730 C.3   1801  PQN1801     0.0000
     25  C22       26.9830    1.9240   69.8210 C.3   1801  PQN1801     0.0000
     26  C23       27.4300    3.2450   70.4650 C.3   1801  PQN1801     0.0000
     27  C24       26.7730    3.4750   71.8390 C.3   1801  PQN1801     0.0000
     28  C25       28.9720    3.2250   70.5550 C.3   1801  PQN1801     0.0000
     29  C26       29.6610    4.5630   70.2740 C.3   1801  PQN1801     0.0000
     30  C27       29.3530    5.5540   71.3780 C.3   1801  PQN1801     0.0000
     31  C28       28.7670    6.8500   70.8300 C.3   1801  PQN1801     0.0000
     32  C29       28.2800    6.7730   69.3730 C.3   1801  PQN1801     0.0000
     33  C30       29.7970    7.9730   71.0550 C.3   1801  PQN1801     0.0000
@<TRIPOS>BOND
     1     4     3    1
     2     2     1    2
     3     3     1    1
     4     3     5    2
     5     1    13    1
     6    14     5    1
     7    14    15    1
     8     5     6    1
     9    15    16    2
    10    13    12   ar
    11    13     8   ar
    12    17    16    1
    13    12    11   ar
    14     6     8    1
    15     6     7    2
    16    16    18    1
    17     8     9   ar
    18    18    19    1
    19    11    10   ar
    20    20    19    1
    21    20    21    1
    22     9    10   ar
    23    23    21    1
    24    23    24    1
    25    32    31    1
    26    21    22    1
    27    25    24    1
    28    25    26    1
    29    29    28    1
    30    29    30    1
    31    26    28    1
    32    26    27    1
    33    31    33    1
    34    31    30    1
