@<TRIPOS>MOLECULE
2wse_CLA_1_1.pdb
 46 52 0 0 0
SMALL
GASTEIGER

@<TRIPOS>ATOM
      1 MG         69.2510  -18.6380    8.0690 Mg    1187  CLA1187     0.0000
      2  CHA       71.6110  -17.2330   10.0790 C.2   1187  CLA1187     0.0000
      3  CHB       69.2690  -16.1110    5.9940 C.2   1187  CLA1187     0.0000
      4  CHC       66.8110  -20.3180    6.0700 C.2   1187  CLA1187     0.0000
      5  CHD       69.2230  -21.5060   10.2880 C.2   1187  CLA1187     0.0000
      6  NA        70.2600  -16.9370    8.0280 N.ar  1187  CLA1187     0.0000
      7  C1A       71.1490  -16.5060    8.8660 C.ar  1187  CLA1187     0.0000
      8  C2A       71.6420  -15.1390    8.4860 C.ar  1187  CLA1187     0.0000
      9  C3A       70.9520  -14.9030    7.1690 C.ar  1187  CLA1187     0.0000
     10  C4A       70.0600  -16.0700    7.0470 C.ar  1187  CLA1187     0.0000
     11  CMA       70.4820  -13.5370    6.6840 C.3   1187  CLA1187     0.0000
     12  CAA       73.0860  -14.9460    8.1260 C.3   1187  CLA1187     0.0000
     13  CBA       73.0290  -13.9440    6.9850 C.3   1187  CLA1187     0.0000
     14  CGA       74.4110  -13.5630    6.5650 C.2   1187  CLA1187     0.0000
     15  O1A       75.2520  -14.4020    6.2610 O.2   1187  CLA1187     0.0000
     16  O2A       74.7230  -12.1540    6.5170 O.3   1187  CLA1187     0.0000
     17  NB        68.2690  -18.2470    6.3740 N.2   1187  CLA1187     0.0000
     18  C1B       68.3640  -17.1860    5.6320 C.2   1187  CLA1187     0.0000
     19  C2B       67.5310  -17.2080    4.5490 C.2   1187  CLA1187     0.0000
     20  C3B       66.9280  -18.4360    4.6600 C.2   1187  CLA1187     0.0000
     21  C4B       67.3740  -19.0150    5.7810 C.2   1187  CLA1187     0.0000
     22  CMB       67.3420  -16.1970    3.4560 C.3   1187  CLA1187     0.0000
     23  CAB       65.6030  -18.5920    4.4900 C.1   1187  CLA1187     0.0000
     24  CBB       64.3850  -18.7980    4.2680 C.1   1187  CLA1187     0.0000
     25  NC        68.2620  -20.4400    8.1420 N.2   1187  CLA1187     0.0000
     26  C1C       67.3600  -20.9040    7.2780 C.1   1187  CLA1187     0.0000
     27  C2C       66.9100  -22.1440    7.6260 C.2   1187  CLA1187     0.0000
     28  C3C       67.5400  -22.4450    8.7380 C.2   1187  CLA1187     0.0000
     29  C4C       68.3820  -21.4090    9.0650 C.1   1187  CLA1187     0.0000
     30  CMC       65.9250  -23.0540    6.9490 C.3   1187  CLA1187     0.0000
     31  CAC       67.2960  -23.7620    9.3600 C.3   1187  CLA1187     0.0000
     32  CBC       67.1280  -24.6090    8.1310 C.3   1187  CLA1187     0.0000
     33  ND        70.1690  -19.2390    9.7420 N.2   1187  CLA1187     0.0000
     34  C1D       70.0830  -20.3250   10.4970 C.1   1187  CLA1187     0.0000
     35  C2D       70.9530  -20.1650   11.5290 C.2   1187  CLA1187     0.0000
     36  C3D       71.5500  -18.9870   11.3720 C.2   1187  CLA1187     0.0000
     37  C4D       71.0810  -18.4360   10.3050 C.2   1187  CLA1187     0.0000
     38  CMD       71.3870  -20.9290   12.6920 C.3   1187  CLA1187     0.0000
     39  CAD       72.4730  -18.2650   12.0590 C.3   1187  CLA1187     0.0000
     40  OBD       71.9310  -18.1130   13.2260 O.3   1187  CLA1187     0.0000
     41  CBD       72.5560  -16.9870   11.2460 C.3   1187  CLA1187     0.0000
     42  CGD       72.1440  -16.0110   12.3590 C.2   1187  CLA1187     0.0000
     43  O1D       72.9130  -15.7900   13.2970 O.2   1187  CLA1187     0.0000
     44  O2D       70.7910  -15.4430   12.4190 O.3   1187  CLA1187     0.0000
     45  CED       69.9960  -15.3110   13.5830 C.3   1187  CLA1187     0.0000
     46  C1        75.0960  -11.4340    7.6810 C.3   1187  CLA1187     0.0000
@<TRIPOS>BOND
     1    22    19    1
     2    24    23    3
     3    23    20    1
     4    19    20    2
     5    19    18    1
     6    20    21    1
     7    18     3    1
     8    18    17    2
     9    21     4    2
    10    21    17    1
    11     3    10    2
    12     4    26    1
    13    15    14    2
    14    17     1    1
    15    16    14    1
    16    16    46    1
    17    14    13    1
    18    11     9    1
    19    30    27    1
    20    13    12    1
    21    10     9   ar
    22    10     6   ar
    23     9     8   ar
    24    26    27    2
    25    26    25    2
    26    27    28    1
    27     6     1    1
    28     6     7   ar
    29    12     8    1
    30    32    31    1
    31    25    29    2
    32     8     7   ar
    33    28    29    2
    34    28    31    1
    35     7     2    2
    36    29     5    1
    37    33    37    2
    38    33    34    2
    39     2    37    1
    40     2    41    1
    41     5    34    2
    42    37    36    1
    43    34    35    1
    44    41    39    1
    45    41    42    1
    46    36    35    2
    47    36    39    1
    48    35    38    1
    49    39    40    1
    50    42    44    1
    51    42    43    2
    52    44    45    1
