@<TRIPOS>MOLECULE
2wsf_CLA_1_1.pdb
 46 52 0 0 0
SMALL
GASTEIGER

@<TRIPOS>ATOM
      1 MG         10.4150  -18.4880  -56.4100 Mg    1187  CLA1187     0.0000
      2  CHA       12.7590  -17.0600  -54.3760 C.2   1187  CLA1187     0.0000
      3  CHB       10.4000  -15.8910  -58.4740 C.2   1187  CLA1187     0.0000
      4  CHC        7.9600  -20.1430  -58.4430 C.2   1187  CLA1187     0.0000
      5  CHD       10.4190  -21.3880  -54.1790 C.2   1187  CLA1187     0.0000
      6  NA        11.4020  -16.7580  -56.4430 N.ar  1187  CLA1187     0.0000
      7  C1A       12.2900  -16.3190  -55.5950 C.ar  1187  CLA1187     0.0000
      8  C2A       12.7920  -14.9430  -55.9670 C.ar  1187  CLA1187     0.0000
      9  C3A       12.0400  -14.6490  -57.2510 C.ar  1187  CLA1187     0.0000
     10  C4A       11.2020  -15.8560  -57.4140 C.ar  1187  CLA1187     0.0000
     11  CMA       11.2360  -13.3100  -57.3170 C.3   1187  CLA1187     0.0000
     12  CAA       14.2580  -14.8050  -56.3400 C.3   1187  CLA1187     0.0000
     13  CBA       14.2750  -13.7920  -57.4920 C.3   1187  CLA1187     0.0000
     14  CGA       15.6440  -13.3670  -57.9400 C.2   1187  CLA1187     0.0000
     15  O1A       16.4930  -14.1910  -58.2650 O.2   1187  CLA1187     0.0000
     16  O2A       15.9410  -11.9420  -58.0050 O.3   1187  CLA1187     0.0000
     17  NB         9.4080  -18.0550  -58.1200 N.2   1187  CLA1187     0.0000
     18  C1B        9.4920  -16.9640  -58.8590 C.2   1187  CLA1187     0.0000
     19  C2B        8.6610  -16.9540  -59.9620 C.2   1187  CLA1187     0.0000
     20  C3B        8.0480  -18.1800  -59.8900 C.2   1187  CLA1187     0.0000
     21  C4B        8.5000  -18.8090  -58.7540 C.1   1187  CLA1187     0.0000
     22  CMB        8.4880  -15.8990  -61.0280 C.3   1187  CLA1187     0.0000
     23  CAB        6.7090  -18.1800  -60.0000 C.1   1187  CLA1187     0.0000
     24  CBB        5.4560  -18.2100  -60.1440 C.1   1187  CLA1187     0.0000
     25  NC         9.4350  -20.2950  -56.3350 N.2   1187  CLA1187     0.0000
     26  C1C        8.5220  -20.7480  -57.2180 C.1   1187  CLA1187     0.0000
     27  C2C        8.0620  -21.9950  -56.8810 C.2   1187  CLA1187     0.0000
     28  C3C        8.7120  -22.3310  -55.7420 C.2   1187  CLA1187     0.0000
     29  C4C        9.5600  -21.2830  -55.4100 C.1   1187  CLA1187     0.0000
     30  CMC        7.0430  -22.8340  -57.6230 C.3   1187  CLA1187     0.0000
     31  CAC        8.4990  -23.6490  -55.0460 C.3   1187  CLA1187     0.0000
     32  CBC        8.7380  -24.7600  -56.1010 C.3   1187  CLA1187     0.0000
     33  ND        11.3390  -19.0910  -54.7170 N.2   1187  CLA1187     0.0000
     34  C1D       11.2800  -20.1960  -53.9510 C.2   1187  CLA1187     0.0000
     35  C2D       12.1720  -20.0420  -52.8840 C.2   1187  CLA1187     0.0000
     36  C3D       12.7540  -18.8220  -53.0460 C.2   1187  CLA1187     0.0000
     37  C4D       12.2510  -18.2750  -54.1340 C.2   1187  CLA1187     0.0000
     38  CMD       12.6030  -20.8650  -51.7080 C.3   1187  CLA1187     0.0000
     39  CAD       13.6940  -18.0640  -52.3820 C.3   1187  CLA1187     0.0000
     40  OBD       13.2790  -17.8730  -51.1750 O.3   1187  CLA1187     0.0000
     41  CBD       13.7420  -16.8130  -53.2390 C.3   1187  CLA1187     0.0000
     42  CGD       13.4770  -15.6980  -52.2460 C.2   1187  CLA1187     0.0000
     43  O1D       14.3140  -15.4230  -51.3830 O.2   1187  CLA1187     0.0000
     44  O2D       12.2190  -14.9800  -52.2190 O.3   1187  CLA1187     0.0000
     45  CED       11.7870  -14.5060  -50.8990 C.3   1187  CLA1187     0.0000
     46  C1        16.3650  -11.2240  -56.8440 C.3   1187  CLA1187     0.0000
@<TRIPOS>BOND
     1    22    19    1
     2    24    23    3
     3    23    20    1
     4    19    20    2
     5    19    18    1
     6    20    21    1
     7    18     3    1
     8    18    17    2
     9    21     4    2
    10    21    17    2
    11     3    10    2
    12     4    26    1
    13    15    14    2
    14    16    14    1
    15    16    46    1
    16    14    13    1
    17    30    27    1
    18    13    12    1
    19    10     9   ar
    20    10     6   ar
    21    11     9    1
    22     9     8   ar
    23    26    27    2
    24    26    25    2
    25    27    28    1
    26     6     1    1
    27     6     7   ar
    28     1    33    1
    29    12     8    1
    30    25    29    2
    31    32    31    1
    32     8     7   ar
    33    28    29    2
    34    28    31    1
    35     7     2    2
    36    29     5    1
    37    33    37    2
    38    33    34    1
    39     2    37    1
    40     2    41    1
    41     5    34    2
    42    37    36    1
    43    34    35    1
    44    41    39    1
    45    41    42    1
    46    36    35    2
    47    36    39    1
    48    35    38    1
    49    39    40    1
    50    42    44    1
    51    42    43    2
    52    44    45    1
