@<TRIPOS>MOLECULE
2wsf_PQN_A_1.pdb
 33 34 0 0 0
SMALL
GASTEIGER

@<TRIPOS>ATOM
      1  C1       -43.2450   -5.4390    2.0170 C.2   1802  PQN1802     0.1915
      2  O1       -44.2920   -5.1050    1.4140 O.2   1802  PQN1802    -0.2869
      3  C2       -41.9200   -4.8330    1.6790 C.2   1802  PQN1802     0.0165
      4  C2M      -41.8200   -3.7950    0.5970 C.3   1802  PQN1802     0.0342
      5  C3       -40.6960   -5.2580    2.4180 C.2   1802  PQN1802     0.0202
      6  C4       -40.7840   -6.2760    3.4920 C.2   1802  PQN1802     0.1918
      7  O4       -39.7410   -6.6200    4.0940 O.2   1802  PQN1802    -0.2869
      8  C5       -42.1040   -6.8780    3.8240 C.ar  1802  PQN1802     0.0417
      9  C6       -42.2260   -7.8300    4.8180 C.ar  1802  PQN1802     0.0033
     10  C7       -43.4770   -8.3660    5.1170 C.ar  1802  PQN1802     0.0001
     11  C8       -44.6310   -7.9770    4.4390 C.ar  1802  PQN1802     0.0001
     12  C9       -44.5570   -7.0240    3.4290 C.ar  1802  PQN1802     0.0033
     13  C10      -43.3310   -6.4580    3.0980 C.ar  1802  PQN1802     0.0417
     14  C11      -39.3430   -4.6620    2.1120 C.3   1802  PQN1802     0.0547
     15  C12      -39.1950   -3.4420    3.0040 C.2   1802  PQN1802    -0.0298
     16  C13      -38.0530   -3.0660    3.6190 C.2   1802  PQN1802    -0.0478
     17  C14      -36.7830   -3.8720    3.4690 C.3   1802  PQN1802     0.0260
     18  C15      -38.0980   -1.8060    4.4680 C.3   1802  PQN1802     0.0217
     19  C16      -36.8680   -1.6220    5.3490 C.3   1802  PQN1802     0.0043
     20  C17      -36.0050   -0.5040    4.7850 C.3   1802  PQN1802     0.0003
     21  C18      -35.2130    0.1790    5.8820 C.3   1802  PQN1802     0.0000
     22  C19      -36.1380    1.0050    6.7740 C.3   1802  PQN1802     0.0000
     23  C20      -34.1020    1.0350    5.2890 C.3   1802  PQN1802     0.0000
     24  C21      -33.1940    1.4280    6.4420 C.3   1802  PQN1802     0.0000
     25  C22      -31.8420    1.9500    5.9760 C.3   1802  PQN1802     0.0000
     26  C23      -31.4190    3.2500    6.6700 C.3   1802  PQN1802     0.0000
     27  C24      -32.1340    3.4970    8.0080 C.3   1802  PQN1802     0.0000
     28  C25      -29.8990    3.2210    6.8620 C.3   1802  PQN1802     0.0000
     29  C26      -29.2350    4.5410    6.4800 C.3   1802  PQN1802     0.0000
     30  C27      -29.4980    5.5840    7.5610 C.3   1802  PQN1802     0.0000
     31  C28      -30.0700    6.8860    7.0130 C.3   1802  PQN1802     0.0000
     32  C29      -30.4990    6.8230    5.5370 C.3   1802  PQN1802     0.0000
     33  C30      -29.0630    8.0070    7.2600 C.3   1802  PQN1802     0.0000
@<TRIPOS>BOND
     1     4     3    1
     2     2     1    2
     3     3     1    1
     4     3     5    2
     5     1    13    1
     6    14     5    1
     7    14    15    1
     8     5     6    1
     9    15    16    2
    10    13    12   ar
    11    13     8   ar
    12    12    11   ar
    13    17    16    1
    14     6     8    1
    15     6     7    2
    16    16    18    1
    17     8     9   ar
    18    11    10   ar
    19    18    19    1
    20    20    19    1
    21    20    21    1
    22     9    10   ar
    23    23    21    1
    24    23    24    1
    25    32    31    1
    26    21    22    1
    27    25    24    1
    28    25    26    1
    29    29    28    1
    30    29    30    1
    31    26    28    1
    32    26    27    1
    33    31    33    1
    34    31    30    1
