@<TRIPOS>MOLECULE
2wsl_FUC_A_1.pdb
 10 10 0 0 0
SMALL
GASTEIGER

@<TRIPOS>ATOM
      1  C1         5.7660   16.7280   31.7400 C.3   1534  FUC1534     0.1776
      2  C2         6.8050   17.3880   30.8210 C.3   1534  FUC1534     0.2141
      3  C3         8.0920   16.5750   30.6700 C.3   1534  FUC1534     0.2172
      4  C4         7.8070   15.0970   30.4700 C.3   1534  FUC1534     0.2116
      5  C5         6.7650   14.6020   31.4620 C.3   1534  FUC1534     0.1483
      6  C6         6.4210   13.1450   31.1870 C.3   1534  FUC1534     0.0349
      7  O2         7.1360   18.6850   31.2660 O.3   1534  FUC1534    -0.2176
      8  O3         8.8530   17.0690   29.5760 O.3   1534  FUC1534    -0.2175
      9  O4         7.3490   14.8810   29.1530 O.3   1534  FUC1534    -0.2177
     10  O5         5.5900   15.3820   31.3510 O.3   1534  FUC1534    -0.3508
@<TRIPOS>BOND
     1     9     4    1
     2     8     3    1
     3     4     3    1
     4     4     5    1
     5     3     2    1
     6     2     7    1
     7     2     1    1
     8     6     5    1
     9    10     5    1
    10    10     1    1
