@<TRIPOS>MOLECULE
2wsp_FUY_A_1.pdb
 13 13 0 0 0
SMALL
GASTEIGER

@<TRIPOS>ATOM
      1  C1        -4.2030  -27.2040   56.8430 C.3   1448  FUY1448     0.2884
      2  N1        -4.6330  -26.5100   58.0570 N.2   1448  FUY1448    -0.0659
      3  C2        -2.6810  -27.3580   56.8270 C.3   1448  FUY1448     0.2381
      4  N2        -5.3960  -27.0960   58.8540 N.2   1448  FUY1448    -0.1639
      5  O2        -2.1160  -27.7280   58.0920 O.3   1448  FUY1448    -0.2153
      6  C3        -2.3990  -28.4080   55.7610 C.3   1448  FUY1448     0.2193
      7  N3        -6.1620  -27.7360   59.6050 N.2   1448  FUY1448     0.0679
      8  O3        -1.0020  -28.7280   55.7270 O.3   1448  FUY1448    -0.2174
      9  C4        -2.8920  -27.8720   54.4110 C.3   1448  FUY1448     0.2117
     10  O4        -1.9860  -26.8680   53.9410 O.3   1448  FUY1448    -0.2177
     11  C5        -4.3070  -27.2710   54.4690 C.3   1448  FUY1448     0.1504
     12  O5        -4.5320  -26.4830   55.6530 O.3   1448  FUY1448    -0.3303
     13  C6        -4.5690  -26.4120   53.2330 C.3   1448  FUY1448     0.0349
@<TRIPOS>BOND
     1    13    11    1
     2    10     9    1
     3     9    11    1
     4     9     6    1
     5    11    12    1
     6    12     1    1
     7     8     6    1
     8     6     3    1
     9     3     1    1
    10     3     5    1
    11     1     2    1
    12     2     4    2
    13     4     7    2
