@<TRIPOS>MOLECULE
2wsp_FUC_A_1.pdb
 10 10 0 0 0
SMALL
GASTEIGER

@<TRIPOS>ATOM
      1  C1        -1.2370  -26.7490   58.6630 C.3   1447  FUC1447     0.1776
      2  C2        -1.7150  -26.3460   60.0600 C.3   1447  FUC1447     0.2141
      3  C3        -1.6200  -27.5310   61.0050 C.3   1447  FUC1447     0.2172
      4  C4        -0.1940  -28.0550   61.0380 C.3   1447  FUC1447     0.2116
      5  C5         0.2870  -28.3700   59.6250 C.3   1447  FUC1447     0.1483
      6  C6         1.7590  -28.7510   59.6410 C.3   1447  FUC1447     0.0349
      7  O2        -3.0610  -25.8580   60.0510 O.3   1447  FUC1447    -0.2176
      8  O3        -2.0340  -27.1160   62.2990 O.3   1447  FUC1447    -0.2175
      9  O4         0.6560  -27.0780   61.6400 O.3   1447  FUC1447    -0.2177
     10  O5         0.1020  -27.2600   58.7380 O.3   1447  FUC1447    -0.3508
@<TRIPOS>BOND
     1     1    10    1
     2     1     2    1
     3    10     5    1
     4     5     6    1
     5     5     4    1
     6     7     2    1
     7     2     3    1
     8     3     4    1
     9     3     8    1
    10     4     9    1
