@<TRIPOS>MOLECULE
2wss_ADP_D_1.pdb
 27 29 0 0 0
SMALL
GASTEIGER

@<TRIPOS>ATOM
      1  PB        10.1210   68.7010   46.7150 P.3   600  ADP600      0.5373
      2  O1B       10.1090   68.9820   45.2960 O.2   600  ADP600     -0.2221
      3  O2B       11.1810   69.6210   47.5890 O.3   600  ADP600     -0.1143
      4  O3B        8.6460   69.0640   47.3700 O.3   600  ADP600     -0.1143
      5  PA        11.9920   66.5840   47.0510 P.3   600  ADP600      0.2231
      6  O1A       12.2690   66.9090   48.4480 O.3   600  ADP600     -0.4370
      7  O2A       13.0750   67.3420   46.0770 O.2   600  ADP600     -0.5169
      8  O3A       10.4750   67.0910   46.6650 O.3   600  ADP600     -0.2261
      9  O5'       12.2050   64.9780   46.7900 O.3   600  ADP600     -0.3111
     10  C5'       11.2080   64.0910   47.1600 C.3   600  ADP600      0.1813
     11  C4'       11.4950   62.6790   46.7090 C.3   600  ADP600      0.1821
     12  O4'       11.6830   62.4340   45.3030 O.3   600  ADP600     -0.3135
     13  C3'       12.7590   62.0960   47.3430 C.3   600  ADP600      0.2184
     14  O3'       12.7370   61.8980   48.7190 O.3   600  ADP600     -0.2174
     15  C2'       13.0770   60.9200   46.4440 C.3   600  ADP600      0.2570
     16  O2'       12.6990   59.6510   46.8960 O.3   600  ADP600     -0.2130
     17  C1'       12.6400   61.4160   45.0890 C.3   600  ADP600      0.3186
     18  N9        13.7660   61.9910   44.3650 N.pl3 600  ADP600     -0.1439
     19  C8        14.0620   63.3600   44.3270 C.3   600  ADP600      0.3377
     20  N7        15.1520   63.5350   43.6060 N.2   600  ADP600     -0.2095
     21  C5        15.5720   62.3030   43.1840 C.2   600  ADP600      0.2526
     22  C6        16.6490   61.9330   42.4210 C.2   600  ADP600      0.4393
     23  N6        17.5450   62.9630   41.9490 N.pl3 600  ADP600      0.2180
     24  N1        16.8810   60.6050   42.1150 N.2   600  ADP600      0.0021
     25  C2        16.0000   59.6410   42.5930 C.3   600  ADP600      0.5254
     26  N3        14.9380   60.0020   43.3420 N.2   600  ADP600     -0.0055
     27  C4        14.7010   61.3650   43.6560 C.2   600  ADP600      0.3518
@<TRIPOS>BOND
     1    23    22    1
     2    24    22    2
     3    24    25    1
     4    22    21    1
     5    25    26    1
     6    21    20    2
     7    21    27    1
     8    26    27    2
     9    20    19    1
    10    27    18    1
    11    19    18    1
    12    18    17    1
    13    17    12    1
    14    17    15    1
    15     2     1    2
    16    12    11    1
    17     7     5    2
    18    15    16    1
    19    15    13    1
    20     8     1    1
    21     8     5    1
    22    11    10    1
    23    11    13    1
    24     1     4    1
    25     1     3    1
    26     9     5    1
    27     9    10    1
    28     5     6    1
    29    13    14    1
