@<TRIPOS>MOLECULE
2wss_ANP_A_1.pdb
 31 33 0 0 0
SMALL
GASTEIGER

@<TRIPOS>ATOM
      1  PG         5.6330   83.7190   27.0650 P.3   600  ANP600      0.4884
      2  O1G        6.7180   83.3990   27.9950 O.3   600  ANP600     -0.1240
      3  O2G        5.8520   85.2760   26.5300 O.2   600  ANP600     -0.2331
      4  O3G        4.1380   83.4880   27.7840 O.3   600  ANP600     -0.1240
      5  PB         5.0070   83.4270   24.3900 P.3   600  ANP600      0.4669
      6  O1B        3.4260   83.0060   24.2560 O.2   600  ANP600     -0.2351
      7  O2B        5.2030   84.8670   24.5500 O.3   600  ANP600     -0.1253
      8  N3B        5.6960   82.6470   25.7370 N.3   600  ANP600     -0.0163
      9  PA         7.3300   83.2250   22.7880 P.3   600  ANP600      0.2220
     10  O1A        7.9490   83.8130   23.9720 O.3   600  ANP600     -0.4370
     11  O2A        7.4550   84.2470   21.4970 O.2   600  ANP600     -0.5170
     12  O3A        5.7290   82.9180   23.0090 O.3   600  ANP600     -0.2360
     13  O5'        8.0280   81.7790   22.4140 O.3   600  ANP600     -0.3111
     14  C5'        9.1040   81.3340   23.1860 C.3   600  ANP600      0.1813
     15  C4'       10.1420   80.5030   22.4270 C.3   600  ANP600      0.1821
     16  O4'        9.7000   79.8120   21.2240 O.3   600  ANP600     -0.3135
     17  C3'       11.4730   81.1920   22.0970 C.3   600  ANP600      0.2184
     18  O3'       12.5980   80.9080   22.8500 O.3   600  ANP600     -0.2174
     19  C2'       11.6590   81.0510   20.5940 C.3   600  ANP600      0.2570
     20  O2'       13.0030   81.0710   20.1680 O.3   600  ANP600     -0.2130
     21  C1'       10.7290   79.9000   20.2470 C.3   600  ANP600      0.3186
     22  N9        10.1020   80.1360   18.9370 N.pl3 600  ANP600     -0.1439
     23  C8         9.1740   81.1410   18.6540 C.3   600  ANP600      0.3377
     24  N7         8.8520   81.0490   17.3300 N.2   600  ANP600     -0.2095
     25  C5         9.5790   79.9840   16.7630 C.2   600  ANP600      0.2526
     26  C6         9.6070   79.4690   15.4180 C.2   600  ANP600      0.4393
     27  N6         8.7820   80.1120   14.3790 N.pl3 600  ANP600      0.2180
     28  N1        10.4360   78.3760   15.1230 N.2   600  ANP600      0.0021
     29  C2        11.2390   77.8050   16.1480 C.3   600  ANP600      0.5254
     30  N3        11.2120   78.3060   17.4510 N.2   600  ANP600     -0.0055
     31  C4        10.3540   79.4200   17.7590 C.2   600  ANP600      0.3518
@<TRIPOS>BOND
     1    27    26    1
     2    28    26    2
     3    28    29    1
     4    26    25    1
     5    29    30    1
     6    25    24    2
     7    25    31    1
     8    24    23    1
     9    30    31    2
    10    31    22    1
    11    23    22    1
    12    22    21    1
    13    20    19    1
    14    21    19    1
    15    21    16    1
    16    19    17    1
    17    16    15    1
    18    11     9    2
    19    17    15    1
    20    17    18    1
    21    13     9    1
    22    13    14    1
    23    15    14    1
    24     9    12    1
    25     9    10    1
    26    12     5    1
    27     6     5    2
    28     5     7    1
    29     5     8    1
    30     8     1    1
    31     3     1    2
    32     1     4    1
    33     1     2    1
