@<TRIPOS>MOLECULE
2wsw_CM5_A_1.pdb
 34 36 0 0 0
SMALL
GASTEIGER

@<TRIPOS>ATOM
      1  C7        58.7490   42.0770   14.0610 C.3   1505  CM51505     0.0000
      2  C8        59.7160   41.2880   13.1810 C.3   1505  CM51505     0.0000
      3  C9        59.4710   41.6210   11.7150 C.3   1505  CM51505     0.0000
      4  C10       58.0130   42.0260   11.5120 C.3   1505  CM51505     0.0000
      5  C11       57.7500   43.3740   12.1740 C.3   1505  CM51505     0.0000
      6  C6        58.5160   43.4740   13.4870 C.3   1505  CM51505     0.0000
      7  C5        57.7370   44.3030   14.5000 C.3   1505  CM51505     0.0000
      8  C4        58.5370   44.3610   15.7890 C.3   1505  CM51505     0.0001
      9  C3        57.7600   45.0750   16.8830 C.3   1505  CM51505     0.0026
     10  C2        58.5300   44.9830   18.1930 C.3   1505  CM51505     0.0322
     11  C1        58.5020   43.5720   18.7800 C.3   1505  CM51505     0.1449
     12  O12       59.3950   43.5450   19.8960 O.3   1505  CM51505    -0.3286
     13  C13       58.7860   44.1510   21.0300 C.3   1505  CM51505     0.2695
     14  C18       59.4550   43.6180   22.2810 C.3   1505  CM51505     0.2404
     15  O22       59.2590   42.2020   22.3350 O.3   1505  CM51505    -0.2149
     16  C17       58.8720   44.2880   23.5200 C.3   1505  CM51505     0.2167
     17  O21       59.6300   43.8900   24.6770 O.3   1505  CM51505    -0.2175
     18  O14       59.0410   45.5550   20.9670 O.3   1505  CM51505    -0.3257
     19  C15       58.4420   46.3080   22.0230 C.3   1505  CM51505     0.1803
     20  C19       58.7880   47.7870   21.8690 C.3   1505  CM51505     0.2141
     21  O20       59.0450   48.1090   20.4970 O.3   1505  CM51505    -0.2176
     22  C16       58.8810   45.8130   23.3970 C.3   1505  CM51505     0.1804
     23  O23       57.9860   46.3860   24.3500 O.3   1505  CM51505    -0.3257
     24  C24       58.4720   46.2780   25.6760 C.3   1505  CM51505     0.2695
     25  O25       58.4500   47.5790   26.2890 O.3   1505  CM51505    -0.3256
     26  C26       57.9980   47.5980   27.6470 C.3   1505  CM51505     0.1835
     27  C30       58.3900   48.9010   28.3440 C.3   1505  CM51505     0.2142
     28  O31       59.5790   48.7300   29.1300 O.3   1505  CM51505    -0.2176
     29  C27       58.5610   46.3800   28.3600 C.3   1505  CM51505     0.2144
     30  O32       58.4120   46.4950   29.7840 O.3   1505  CM51505    -0.2176
     31  C28       57.8250   45.1540   27.8440 C.3   1505  CM51505     0.2198
     32  O33       58.6470   43.9970   28.0380 O.3   1505  CM51505    -0.2174
     33  C29       57.5280   45.2970   26.3500 C.3   1505  CM51505     0.2406
     34  O34       56.1850   45.7150   26.0470 O.3   1505  CM51505    -0.2149
@<TRIPOS>BOND
     1     4     3    1
     2     4     5    1
     3     3     2    1
     4     5     6    1
     5     2     1    1
     6     6     1    1
     7     6     7    1
     8     7     8    1
     9     8     9    1
    10     9    10    1
    11    10    11    1
    12    11    12    1
    13    12    13    1
    14    21    20    1
    15    18    13    1
    16    18    19    1
    17    13    14    1
    18    20    19    1
    19    19    22    1
    20    14    15    1
    21    14    16    1
    22    22    16    1
    23    22    23    1
    24    16    17    1
    25    23    24    1
    26    24    25    1
    27    24    33    1
    28    34    33    1
    29    25    26    1
    30    33    31    1
    31    26    27    1
    32    26    29    1
    33    31    32    1
    34    31    29    1
    35    27    28    1
    36    29    30    1
