@<TRIPOS>MOLECULE
2wsx_NM2_A_1.pdb
 10 9 0 0 0
SMALL
GASTEIGER

@<TRIPOS>ATOM
      1  N1         3.1210    4.9740   -5.9610 N.4   1504  NM21504     0.3857
      2  C8         3.7050    4.5800   -7.2450 C.3   1504  NM21504    -0.0960
      3  O4         3.7490    3.9990   -0.3710 O.co2 1504  NM21504    -0.2457
      4  C5         3.6120    4.0010   -1.6080 C.2   1504  NM21504     0.3648
      5  O7         2.8270    3.2350   -2.1990 O.co2 1504  NM21504    -0.2457
      6  C6         4.4360    4.9700   -2.4140 C.3   1504  NM21504     0.1119
      7  C2         4.0960    4.7540   -4.8880 C.3   1504  NM21504    -0.0727
      8  C9         1.9170    4.1700   -5.7120 C.3   1504  NM21504    -0.0960
      9  C10        2.7730    6.3960   -6.0080 C.3   1504  NM21504    -0.0960
     10  C3         3.6350    5.4490   -3.6160 C.3   1504  NM21504    -0.0104
@<TRIPOS>BOND
     1     2     1    1
     2     9     1    1
     3     1     8    1
     4     1     7    1
     5     7    10    1
     6    10     6    1
     7     6     4    1
     8     5     4   ar
     9     4     3   ar
