@<TRIPOS>MOLECULE
2wsy_PLP_B_1.pdb
 15 15 0 0 0
SMALL
GASTEIGER

@<TRIPOS>ATOM
      1  N1        85.7660   13.5390   12.1200 N.ar  901  PLP901     -0.2452
      2  C2        85.7490   13.8050   10.7760 C.ar  901  PLP901      0.0978
      3  C2A       87.0400   13.7120    9.9610 C.3   901  PLP901      0.0555
      4  C3        84.5770   14.1610   10.1650 C.ar  901  PLP901      0.2049
      5  O3        84.5640   14.4270    8.8100 O.3   901  PLP901     -0.2857
      6  C4        83.4210   14.2580   10.8970 C.ar  901  PLP901      0.0182
      7  C4A       82.0880   14.6500   10.1940 C.3   901  PLP901      0.0342
      8  C5        83.4410   13.9940   12.2460 C.ar  901  PLP901      0.0261
      9  C6        84.6140   13.6350   12.8540 C.ar  901  PLP901      0.0965
     10  C5A       82.1570   14.1090   13.0790 C.3   901  PLP901      0.1815
     11  O4P       81.3850   12.9330   12.8580 O.3   901  PLP901     -0.2653
     12  P         80.6060   12.0380   13.9310 P.3   901  PLP901      0.5329
     13  O1P       81.3210   10.7550   13.8710 O.3   901  PLP901     -0.1145
     14  O2P       79.2400   12.0060   13.3650 O.2   901  PLP901     -0.2224
     15  O3P       80.7510   12.7820   15.2000 O.3   901  PLP901     -0.1145
@<TRIPOS>BOND
     1     5     4    1
     2     3     2    1
     3     4     2   ar
     4     4     6   ar
     5     7     6    1
     6     2     1   ar
     7     6     8   ar
     8     1     9   ar
     9     8     9   ar
    10     8    10    1
    11    11    10    1
    12    11    12    1
    13    14    12    2
    14    13    12    1
    15    12    15    1
