@<TRIPOS>MOLECULE
2wtc_VGM_A_1.pdb
 25 27 0 0 0
SMALL
GASTEIGER

@<TRIPOS>ATOM
      1  C13      -10.2580   47.3310    5.9770 C.ar  1513  VGM1513     0.0002
      2  C15      -11.6340   47.2270    3.8300 C.ar  1513  VGM1513     0.0567
      3  C20      -12.2960   48.8450    5.7310 C.ar  1513  VGM1513     0.0002
      4  C21       -9.4440   49.1470    8.1940 C.ar  1513  VGM1513     0.0044
      5  C22       -6.6500   49.5470    9.0450 C.ar  1513  VGM1513     0.0035
      6  C24       -4.9590   50.1390   10.8280 C.ar  1513  VGM1513     0.2293
      7  C01       -4.9630   50.0070   13.9560 C.3   1513  VGM1513     0.2526
      8  O02       -5.7340   50.8490   13.0880 O.3   1513  VGM1513    -0.4682
      9  C03       -6.0490   50.4290   11.7420 C.ar  1513  VGM1513     0.1774
     10  C04       -7.4640   50.2720   11.2890 C.ar  1513  VGM1513     0.0403
     11  C05       -7.7480   49.8560    9.9510 C.ar  1513  VGM1513     0.0047
     12  C06       -9.1060   49.6620    9.5370 C.ar  1513  VGM1513     0.0194
     13  C07      -10.1580   49.8930   10.4530 C.ar  1513  VGM1513     0.1004
     14  N08      -11.5760   49.6160   10.0860 N.ar  1513  VGM1513    -0.2259
     15  C09      -11.9050   49.1200    8.7710 C.ar  1513  VGM1513     0.1696
     16  N10      -13.2780   48.8780    8.4420 N.pl3 1513  VGM1513    -0.1072
     17  C11      -10.8480   48.8920    7.8210 C.ar  1513  VGM1513     0.0348
     18  C12      -11.1510   48.3710    6.5270 C.ar  1513  VGM1513     0.0028
     19  C14      -10.5020   46.7630    4.6310 C.ar  1513  VGM1513     0.0046
     20  C16      -11.8390   46.6160    2.4000 C.2   1513  VGM1513     0.2842
     21  N17      -10.7310   45.9540    1.7730 N.am  1513  VGM1513    -0.0837
     22  O18      -12.8080   46.8330    1.7360 O.2   1513  VGM1513    -0.2667
     23  C19      -12.5340   48.2730    4.3860 C.ar  1513  VGM1513     0.0046
     24  C23       -5.2390   49.7010    9.4990 C.ar  1513  VGM1513     0.0452
     25  O25       -3.6290   50.3160   11.2620 O.3   1513  VGM1513    -0.2833
@<TRIPOS>BOND
     1    22    20    2
     2    21    20   am
     3    20     2    1
     4     2    23   ar
     5     2    19   ar
     6    23     3   ar
     7    19     1   ar
     8     3    18   ar
     9     1    18   ar
    10    18    17    1
    11    17     4   ar
    12    17    15   ar
    13     4    12   ar
    14    16    15    1
    15    15    14   ar
    16     5    24   ar
    17     5    11   ar
    18    24     6   ar
    19    12    11    1
    20    12    13   ar
    21    11    10   ar
    22    14    13   ar
    23     6    25    1
    24     6     9   ar
    25    10     9   ar
    26     9     8    1
    27     8     7    1
