@<TRIPOS>MOLECULE
2wtd_ZZK_A_1.pdb
 25 28 0 0 0
SMALL
GASTEIGER

@<TRIPOS>ATOM
      1  N01       35.0780  -32.2010   13.7160 N.am  1513  ZZK1513    -0.0837
      2  C02       34.7610  -33.3720   12.9210 C.2   1513  ZZK1513     0.2842
      3  O03       34.1590  -34.2680   13.4260 O.2   1513  ZZK1513    -0.2667
      4  C04       35.3420  -33.4650   11.5030 C.ar  1513  ZZK1513     0.0567
      5  C05       35.4800  -32.2950   10.7350 C.ar  1513  ZZK1513     0.0046
      6  C06       36.0680  -32.3520    9.4620 C.ar  1513  ZZK1513     0.0002
      7  C07       36.5260  -33.5750    8.9420 C.ar  1513  ZZK1513     0.0028
      8  C08       37.1160  -33.6110    7.6770 C.ar  1513  ZZK1513     0.0349
      9  C09       37.9900  -32.6180    7.2970 C.ar  1513  ZZK1513     0.0045
     10  C10       38.5700  -32.6180    6.0460 C.ar  1513  ZZK1513     0.0223
     11  C11       39.4010  -31.5680    5.6530 C.ar  1513  ZZK1513     0.0387
     12  C12       39.4190  -30.3950    6.4270 C.ar  1513  ZZK1513     0.0033
     13  C13       40.2070  -29.2970    6.0520 C.ar  1513  ZZK1513     0.0033
     14  C14       40.9470  -29.3520    4.8650 C.ar  1513  ZZK1513     0.0402
     15  C15       40.9030  -30.4980    4.0580 C.ar  1513  ZZK1513     0.1764
     16  O16       41.5400  -30.8100    2.8090 O.3   1513  ZZK1513    -0.4346
     17  C17       40.9790  -32.0580    2.3890 C.3   1513  ZZK1513     0.4294
     18  O18       40.2450  -32.5520    3.5190 O.3   1513  ZZK1513    -0.4346
     19  C19       40.1150  -31.6030    4.4400 C.ar  1513  ZZK1513     0.1764
     20  C20       38.2510  -33.6440    5.1490 C.ar  1513  ZZK1513     0.1005
     21  N21       37.3750  -34.6300    5.5200 N.ar  1513  ZZK1513    -0.2259
     22  C22       36.7980  -34.6250    6.7620 C.ar  1513  ZZK1513     0.1696
     23  N23       35.8640  -35.6770    7.1120 N.pl3 1513  ZZK1513    -0.1072
     24  C24       36.3890  -34.7400    9.7150 C.ar  1513  ZZK1513     0.0002
     25  C25       35.8010  -34.6870   10.9880 C.ar  1513  ZZK1513     0.0046
@<TRIPOS>BOND
     1    17    16    1
     2    17    18    1
     3    16    15    1
     4    18    19    1
     5    15    19   ar
     6    15    14   ar
     7    19    11   ar
     8    14    13   ar
     9    20    21   ar
    10    20    10   ar
    11    21    22   ar
    12    11    10    1
    13    11    12   ar
    14    10     9   ar
    15    13    12   ar
    16    22    23    1
    17    22     8   ar
    18     9     8   ar
    19     8     7    1
    20     7     6   ar
    21     7    24   ar
    22     6     5   ar
    23    24    25   ar
    24     5     4   ar
    25    25     4   ar
    26     4     2    1
    27     2     3    2
    28     2     1   am
