@<TRIPOS>MOLECULE
2wtf_DTP_A_1.pdb
 30 32 0 0 0
SMALL
GASTEIGER

@<TRIPOS>ATOM
      1  PG        32.7580  -30.6550   17.0690 P.3   1510  DTP1510     0.5373
      2  O1G       31.5340  -29.7810   17.0240 O.3   1510  DTP1510    -0.1143
      3  O2G       32.9090  -31.4680   18.2940 O.3   1510  DTP1510    -0.1143
      4  O3G       34.0360  -30.0320   16.5720 O.2   1510  DTP1510    -0.2221
      5  PB        31.0810  -32.1330   15.2850 P.3   1510  DTP1510     0.2277
      6  O1B       29.9910  -32.0040   16.3050 O.3   1510  DTP1510    -0.4368
      7  O2B       31.1320  -33.4390   14.5520 O.2   1510  DTP1510    -0.5168
      8  O3B       32.4890  -31.7080   15.9230 O.3   1510  DTP1510    -0.2258
      9  PA        30.0180  -29.9520   13.7330 P.3   1510  DTP1510     0.2189
     10  O1A       29.3920  -29.5430   15.0290 O.3   1510  DTP1510    -0.4371
     11  O2A       30.7140  -28.9520   12.8280 O.2   1510  DTP1510    -0.5170
     12  O3A       31.1310  -31.0560   14.1020 O.3   1510  DTP1510    -0.2700
     13  O5'       28.9010  -30.7310   12.8630 O.3   1510  DTP1510    -0.3112
     14  C5'       27.8530  -31.4070   13.5240 C.3   1510  DTP1510     0.1813
     15  C4'       27.4860  -32.7140   12.8230 C.3   1510  DTP1510     0.1795
     16  O4'       27.0440  -32.4700   11.5140 O.3   1510  DTP1510    -0.3155
     17  C3'       28.6100  -33.7350   12.6630 C.3   1510  DTP1510     0.1883
     18  O3'       28.7110  -34.5650   13.8050 O.3   1510  DTP1510    -0.2202
     19  C2'       28.3270  -34.4820   11.3850 C.3   1510  DTP1510     0.1151
     20  C1'       27.5990  -33.4170   10.6140 C.3   1510  DTP1510     0.2873
     21  N9        28.6130  -32.7940    9.7570 N.pl3 1510  DTP1510    -0.1460
     22  C8        29.3290  -31.7080   10.0430 C.3   1510  DTP1510     0.3377
     23  N7        30.1970  -31.4090    9.0230 N.2   1510  DTP1510    -0.2095
     24  C5        30.0440  -32.3530    8.0830 C.2   1510  DTP1510     0.2526
     25  C6        30.6470  -32.6430    6.7430 C.2   1510  DTP1510     0.4393
     26  N6        31.6170  -31.8650    6.2050 N.pl3 1510  DTP1510     0.2180
     27  N1        30.2050  -33.7140    6.0830 N.2   1510  DTP1510     0.0021
     28  C2        29.2410  -34.5070    6.6220 C.3   1510  DTP1510     0.5254
     29  N3        28.6630  -34.2890    7.8290 N.2   1510  DTP1510    -0.0055
     30  C4        29.0050  -33.2560    8.5850 C.2   1510  DTP1510     0.3518
@<TRIPOS>BOND
     1    27    28    1
     2    27    25    2
     3    26    25    1
     4    28    29    1
     5    25    24    1
     6    29    30    2
     7    24    30    1
     8    24    23    2
     9    30    21    1
    10    23    22    1
    11    21    22    1
    12    21    20    1
    13    20    19    1
    14    20    16    1
    15    19    17    1
    16    16    15    1
    17    17    15    1
    18    17    18    1
    19    15    14    1
    20    11     9    2
    21    13    14    1
    22    13     9    1
    23     9    12    1
    24     9    10    1
    25    12     5    1
    26     7     5    2
    27     5     8    1
    28     5     6    1
    29     8     1    1
    30     4     1    2
    31     2     1    1
    32     1     3    1
