@<TRIPOS>MOLECULE
2wtg_HEM_A_1.pdb
 43 50 0 0 0
SMALL
GASTEIGER

@<TRIPOS>ATOM
      1  CHA       25.3910   18.5570   -7.0780 C.2   180  HEM180      0.0000
      2  CHB       25.6180   18.9350  -11.8930 C.2   180  HEM180      0.0000
      3  CHC       21.2790   16.8060  -12.2650 C.2   180  HEM180      0.0000
      4  CHD       21.0900   16.2900   -7.4540 C.2   180  HEM180      0.0000
      5  C1A       25.8370   18.8270   -8.3390 C.ar  180  HEM180      0.0000
      6  C2A       27.1180   19.4290   -8.6720 C.ar  180  HEM180      0.0000
      7  C3A       27.1550   19.5480  -10.0100 C.ar  180  HEM180      0.0000
      8  C4A       25.9320   19.0170  -10.5580 C.ar  180  HEM180      0.0000
      9  CMA       28.3090   20.1110  -10.8630 C.3   180  HEM180      0.0000
     10  CAA       28.2250   19.8230   -7.6590 C.3   180  HEM180      0.0000
     11  CBA       29.1210   18.5850   -7.4670 C.3   180  HEM180      0.0000
     12  CGA       30.6000   18.8640   -7.2600 C.2   180  HEM180      0.0000
     13  O1A       31.1340   19.9380   -7.6740 O.co2 180  HEM180      0.0000
     14  O2A       31.2800   17.9740   -6.6810 O.co2 180  HEM180      0.0000
     15  C1B       24.5050   18.3220  -12.4220 C.2   180  HEM180      0.0000
     16  C2B       24.2690   18.0620  -13.8260 C.2   180  HEM180      0.0000
     17  C3B       23.0590   17.4780  -13.9380 C.2   180  HEM180      0.0000
     18  C4B       22.5000   17.3470  -12.5910 C.2   180  HEM180      0.0000
     19  CMB       25.2580   18.4230  -14.9630 C.3   180  HEM180      0.0000
     20  CAB       22.3540   17.0060  -15.2280 C.2   180  HEM180      0.0000
     21  CBB       22.9860   16.3420  -16.2060 C.2   180  HEM180      0.0000
     22  C1C       20.8370   16.5000  -10.9960 C.ar  180  HEM180      0.0000
     23  C2C       19.5620   15.8950  -10.6440 C.ar  180  HEM180      0.0000
     24  C3C       19.5130   15.7670   -9.3040 C.ar  180  HEM180      0.0000
     25  C4C       20.7580   16.2800   -8.7800 C.ar  180  HEM180      0.0000
     26  CMC       18.4800   15.5010  -11.6640 C.3   180  HEM180      0.0000
     27  CAC       18.3920   15.1800   -8.4230 C.2   180  HEM180      0.0000
     28  CBC       17.8060   14.0200   -8.7320 C.2   180  HEM180      0.0000
     29  C1D       22.2300   16.8250   -6.9230 C.2   180  HEM180      0.0000
     30  C2D       22.5170   16.8540   -5.5120 C.2   180  HEM180      0.0000
     31  C3D       23.8350   17.5740   -5.3960 C.2   180  HEM180      0.0000
     32  C4D       24.2390   17.8970   -6.7490 C.2   180  HEM180      0.0000
     33  CMD       21.6620   16.2810   -4.3770 C.3   180  HEM180      0.0000
     34  CAD       24.5880   17.8710   -4.1020 C.3   180  HEM180      0.0000
     35  CBD       24.4290   19.3460   -3.7460 C.3   180  HEM180      0.0000
     36  CGD       22.9810   19.6740   -3.4790 C.2   180  HEM180      0.0000
     37  O1D       22.4020   20.4680   -4.2650 O.co2 180  HEM180      0.0000
     38  O2D       22.3830   19.1340   -2.5000 O.co2 180  HEM180      0.0000
     39  NA        25.1380   18.5900   -9.5040 N.ar  180  HEM180      0.0000
     40  NB        23.4170   17.8640  -11.6980 N.2   180  HEM180      0.0000
     41  NC        21.5480   16.7170   -9.8370 N.ar  180  HEM180      0.0000
     42  ND        23.2650   17.4560   -7.6310 N.2   180  HEM180      0.0000
     43 FE         23.3360   17.6760   -9.6580 Fe    180  HEM180      0.0000
@<TRIPOS>BOND
     1    21    20    2
     2    20    17    1
     3    19    16    1
     4    17    16    2
     5    17    18    1
     6    16    15    1
     7    18     3    2
     8    18    40    1
     9    15     2    1
    10    15    40    2
    11     3    22    1
    12     2     8    2
    13    40    43    1
    14    26    23    1
    15    22    23   ar
    16    22    41   ar
    17     9     7    1
    18    23    24   ar
    19     8     7   ar
    20     8    39   ar
    21     7     6   ar
    22    41    43    1
    23    41    25   ar
    24    43    39    1
    25    43    42    1
    26    39     5   ar
    27    24    25   ar
    28    24    27    1
    29    25     4    1
    30    28    27    2
    31     6     5   ar
    32     6    10    1
    33     5     1    2
    34    13    12   ar
    35    10    11    1
    36    42    29    1
    37    42    32    2
    38    11    12    1
    39     4    29    2
    40    12    14   ar
    41     1    32    1
    42    29    30    1
    43    32    31    1
    44    30    31    2
    45    30    33    1
    46    31    34    1
    47    37    36   ar
    48    34    35    1
    49    35    36    1
    50    36    38   ar
