@<TRIPOS>MOLECULE
2wth_HEM_A_1.pdb
 43 50 0 0 0
SMALL
GASTEIGER

@<TRIPOS>ATOM
      1  CHA       26.2500  -22.3240   -2.5960 C.2   160  HEM160      0.0000
      2  CHB       27.3780  -21.9850   -7.3010 C.2   160  HEM160      0.0000
      3  CHC       30.2350  -18.1770   -6.4050 C.2   160  HEM160      0.0000
      4  CHD       29.0750  -18.4150   -1.7030 C.2   160  HEM160      0.0000
      5  C1A       26.2650  -22.5590   -3.9530 C.ar  160  HEM160      0.0000
      6  C2A       25.4750  -23.5450   -4.6730 C.ar  160  HEM160      0.0000
      7  C3A       25.8000  -23.4400   -5.9740 C.ar  160  HEM160      0.0000
      8  C4A       26.7950  -22.3950   -6.1190 C.ar  160  HEM160      0.0000
      9  CMA       25.2290  -24.2810   -7.1420 C.3   160  HEM160      0.0000
     10  CAA       24.4470  -24.5350   -4.0460 C.3   160  HEM160      0.0000
     11  CBA       23.0230  -24.0720   -4.3560 C.3   160  HEM160      0.0000
     12  CGA       22.0110  -25.1720   -4.1390 C.2   160  HEM160      0.0000
     13  O1A       22.1530  -26.2830   -4.7310 O.co2 160  HEM160      0.0000
     14  O2A       21.0350  -24.9370   -3.3740 O.co2 160  HEM160      0.0000
     15  C1B       28.2490  -20.9330   -7.4730 C.2   160  HEM160      0.0000
     16  C2B       28.8410  -20.5020   -8.7280 C.2   160  HEM160      0.0000
     17  C3B       29.6310  -19.4520   -8.4740 C.2   160  HEM160      0.0000
     18  C4B       29.5670  -19.1850   -7.0560 C.2   160  HEM160      0.0000
     19  CMB       28.6070  -21.1420  -10.1170 C.3   160  HEM160      0.0000
     20  CAB       30.4780  -18.6610   -9.5030 C.2   160  HEM160      0.0000
     21  CBB       30.1550  -17.4100   -9.8620 C.2   160  HEM160      0.0000
     22  C1C       30.2090  -17.9380   -5.0530 C.ar  160  HEM160      0.0000
     23  C2C       31.0360  -16.9910   -4.3450 C.ar  160  HEM160      0.0000
     24  C3C       30.7170  -17.0560   -3.0470 C.ar  160  HEM160      0.0000
     25  C4C       29.6810  -18.0530   -2.8880 C.ar  160  HEM160      0.0000
     26  CMC       32.0990  -16.0730   -4.9940 C.3   160  HEM160      0.0000
     27  CAC       31.3430  -16.2250   -1.9040 C.2   160  HEM160      0.0000
     28  CBC       31.0620  -14.9220   -1.7960 C.2   160  HEM160      0.0000
     29  C1D       28.1930  -19.4570   -1.4990 C.2   160  HEM160      0.0000
     30  C2D       27.5810  -19.7830   -0.2310 C.2   160  HEM160      0.0000
     31  C3D       26.7000  -21.0170   -0.5090 C.2   160  HEM160      0.0000
     32  C4D       26.8730  -21.2920   -1.9180 C.2   160  HEM160      0.0000
     33  CMD       27.7950  -19.0300    1.1000 C.3   160  HEM160      0.0000
     34  CAD       25.7900  -21.8250    0.4530 C.3   160  HEM160      0.0000
     35  CBD       26.3730  -22.0550    1.8510 C.3   160  HEM160      0.0000
     36  CGD       27.7560  -22.6570    1.8540 C.2   160  HEM160      0.0000
     37  O1D       28.0240  -23.6140    1.0830 O.co2 160  HEM160      0.0000
     38  O2D       28.5980  -22.1750    2.6540 O.co2 160  HEM160      0.0000
     39  NA        27.0540  -21.8810   -4.8640 N.ar  160  HEM160      0.0000
     40  NB        28.7180  -20.1050   -6.4700 N.2   160  HEM160      0.0000
     41  NC        29.3940  -18.5670   -4.1360 N.ar  160  HEM160      0.0000
     42  ND        27.7520  -20.3590   -2.4590 N.2   160  HEM160      0.0000
     43 FE         28.3090  -20.2360   -4.4220 Fe    160  HEM160      0.0000
@<TRIPOS>BOND
     1    19    16    1
     2    21    20    2
     3    20    17    1
     4    16    17    2
     5    16    15    1
     6    17    18    1
     7    15     2    1
     8    15    40    2
     9     2     8    2
    10     9     7    1
    11    18    40    1
    12    18     3    2
    13    40    43    1
    14     3    22    1
    15     8     7   ar
    16     8    39   ar
    17     7     6   ar
    18    22    23   ar
    19    22    41   ar
    20    26    23    1
    21    39    43    1
    22    39     5   ar
    23    13    12   ar
    24     6    10    1
    25     6     5   ar
    26    43    41    1
    27    43    42    1
    28    11    12    1
    29    11    10    1
    30    23    24   ar
    31    12    14   ar
    32    41    25   ar
    33     5     1    2
    34    24    25   ar
    35    24    27    1
    36    25     4    1
    37     1    32    1
    38    42    32    2
    39    42    29    1
    40    32    31    1
    41    27    28    2
    42     4    29    2
    43    29    30    1
    44    31    30    2
    45    31    34    1
    46    30    33    1
    47    34    35    1
    48    37    36   ar
    49    35    36    1
    50    36    38   ar
