@<TRIPOS>MOLECULE
2wti_WTI_A_1.pdb
 25 28 0 0 0
SMALL
GASTEIGER

@<TRIPOS>ATOM
      1  N01      -45.1480   14.3200  -13.6520 N.am  1513  WTI1513    -0.0837
      2  C02      -46.1060   13.4790  -12.9480 C.2   1513  WTI1513     0.2842
      3  O03      -46.5170   12.4830  -13.4470 O.2   1513  WTI1513    -0.2667
      4  C04      -46.5490   13.8890  -11.5360 C.ar  1513  WTI1513     0.0567
      5  C05      -45.8800   15.0240  -10.8910 C.ar  1513  WTI1513     0.0046
      6  C06      -46.2700   15.4250   -9.5640 C.ar  1513  WTI1513     0.0002
      7  C07      -47.3370   14.7160   -8.8810 C.ar  1513  WTI1513     0.0028
      8  C08      -47.7380   15.1870   -7.6190 C.ar  1513  WTI1513     0.0349
      9  C09      -47.2440   16.4570   -7.1920 C.ar  1513  WTI1513     0.0050
     10  C10      -47.6290   16.9760   -5.9090 C.ar  1513  WTI1513     0.0283
     11  C11      -47.1200   18.2100   -5.4660 C.ar  1513  WTI1513     0.0680
     12  S12      -46.0260   19.1250   -6.2590 S.2   1513  WTI1513    -0.0800
     13  C13      -45.7230   20.3720   -5.3610 C.ar  1513  WTI1513     0.0755
     14  C14      -46.5680   20.2540   -4.0680 C.ar  1513  WTI1513     0.1793
     15  O15      -46.6780   21.0800   -2.9010 O.3   1513  WTI1513    -0.4678
     16  C16      -47.8170   20.7530   -2.0640 C.3   1513  WTI1513     0.2526
     17  C17      -48.0260   19.2280   -1.8630 C.3   1513  WTI1513     0.2526
     18  O18      -48.3240   18.5310   -3.0950 O.3   1513  WTI1513    -0.4678
     19  C19      -47.4420   18.8790   -4.1600 C.ar  1513  WTI1513     0.1788
     20  C20      -48.5370   16.2380   -5.0500 C.ar  1513  WTI1513     0.1010
     21  N21      -49.0420   14.9690   -5.4860 N.ar  1513  WTI1513    -0.2259
     22  C22      -48.6630   14.4410   -6.7530 C.ar  1513  WTI1513     0.1696
     23  N23      -49.2330   13.1650   -7.1670 N.pl3 1513  WTI1513    -0.1072
     24  C24      -48.0060   13.5860   -9.5310 C.ar  1513  WTI1513     0.0002
     25  C25      -47.6100   13.1790  -10.8630 C.ar  1513  WTI1513     0.0046
@<TRIPOS>BOND
     1     1     2   am
     2     3     2    2
     3     2     4    1
     4     4     5   ar
     5     4    25   ar
     6     5     6   ar
     7    25    24   ar
     8     6     7   ar
     9    24     7   ar
    10     7     8    1
    11     8     9   ar
    12     8    22   ar
    13     9    10   ar
    14    23    22    1
    15    22    21   ar
    16    12    11   ar
    17    12    13   ar
    18    10    11    1
    19    10    20   ar
    20    21    20   ar
    21    11    19   ar
    22    13    14   ar
    23    19    14   ar
    24    19    18    1
    25    14    15    1
    26    18    17    1
    27    15    16    1
    28    16    17    1
