@<TRIPOS>MOLECULE
2wtj_WTJ_A_1.pdb
 24 26 0 0 0
SMALL
GASTEIGER

@<TRIPOS>ATOM
      1  C01        7.0260  -45.6850    2.4090 C.3   1513  WTJ1513     0.1123
      2  N02        8.3880  -46.1290    2.6880 N.pl3 1513  WTJ1513    -0.3020
      3  C03        8.7750  -47.2730    1.8720 C.3   1513  WTJ1513     0.1123
      4  C04        8.5430  -46.4040    4.1230 C.2   1513  WTJ1513     0.0796
      5  C05        9.7140  -47.2970    4.5810 C.2   1513  WTJ1513     0.1044
      6  N06        9.6430  -47.8140    5.9700 N.am  1513  WTJ1513    -0.1758
      7  C07       10.8430  -48.3270    6.6400 C.2   1513  WTJ1513     0.2614
      8  O08       11.9160  -48.2500    6.1310 O.2   1513  WTJ1513    -0.2720
      9  C09       10.6690  -48.9110    8.0610 C.3   1513  WTJ1513     0.2135
     10  C10        9.3610  -49.1210    8.5570 C.2   1513  WTJ1513    -0.0043
     11  C11        9.1850  -49.6230    9.8690 C.2   1513  WTJ1513     0.0366
     12  C12        7.9100  -49.8160   10.4170 C.ar  1513  WTJ1513     0.0664
     13  S13        6.4910  -49.3460    9.7890 S.2   1513  WTJ1513    -0.0802
     14  C14        5.3600  -49.7880   10.8000 C.ar  1513  WTJ1513     0.0755
     15  C15        6.0370  -50.4930   12.0110 C.ar  1513  WTJ1513     0.1793
     16  O16        5.5250  -51.0590   13.2150 O.3   1513  WTJ1513    -0.4678
     17  C17        6.4500  -51.9490   13.8600 C.3   1513  WTJ1513     0.2526
     18  C18        7.8780  -51.3670   14.0020 C.3   1513  WTJ1513     0.2526
     19  O19        8.5110  -51.0750   12.7230 O.3   1513  WTJ1513    -0.4679
     20  C20        7.6320  -50.4950   11.7590 C.ar  1513  WTJ1513     0.1786
     21  C21       10.3560  -49.9310   10.6910 C.3   1513  WTJ1513     0.2900
     22  N22       11.6600  -49.7320   10.1920 N.2   1513  WTJ1513    -0.0564
     23  C23       11.8410  -49.2320    8.8860 C.2   1513  WTJ1513     0.3996
     24  N24       13.1890  -49.0670    8.3770 N.pl3 1513  WTJ1513     0.2114
@<TRIPOS>BOND
     1     3     2    1
     2     1     2    1
     3     2     4    1
     4     4     5    2
     5     5     6    1
     6     6     7   am
     7     8     7    2
     8     7     9    1
     9     9    10    1
    10     9    23    1
    11    24    23    1
    12    10    11    2
    13    23    22    2
    14    13    12   ar
    15    13    14   ar
    16    11    12    1
    17    11    21    1
    18    22    21    1
    19    12    20   ar
    20    14    15   ar
    21    20    15   ar
    22    20    19    1
    23    15    16    1
    24    19    18    1
    25    16    17    1
    26    17    18    1
