@<TRIPOS>MOLECULE
2wtk_ANP_B_1.pdb
 31 33 0 0 0
SMALL
GASTEIGER

@<TRIPOS>ATOM
      1  PG       -53.0380   15.1690   42.3000 P.3   432  ANP432      0.4884
      2  O1G      -53.5450   14.9820   40.8820 O.2   432  ANP432     -0.2331
      3  O2G      -53.0780   16.6130   42.7780 O.3   432  ANP432     -0.1240
      4  O3G      -53.6060   14.1860   43.3170 O.3   432  ANP432     -0.1240
      5  PB       -50.5010   15.8520   43.3260 P.3   432  ANP432      0.4669
      6  O1B      -50.3530   17.1260   42.5330 O.2   432  ANP432     -0.2351
      7  O2B      -51.2680   15.9720   44.6120 O.3   432  ANP432     -0.1253
      8  N3B      -51.3480   14.7390   42.3200 N.3   432  ANP432     -0.0163
      9  PA       -48.7150   14.1600   44.6330 P.3   432  ANP432      0.2220
     10  O1A      -47.4990   14.4560   45.4530 O.3   432  ANP432     -0.4370
     11  O2A      -50.0210   13.6170   45.1870 O.2   432  ANP432     -0.5170
     12  O3A      -49.0090   15.3750   43.6590 O.3   432  ANP432     -0.2360
     13  O5'      -48.2140   13.0020   43.6310 O.3   432  ANP432     -0.3111
     14  C5'      -49.1510   12.1090   43.0130 C.3   432  ANP432      0.1813
     15  C4'      -48.7540   10.6460   43.2020 C.3   432  ANP432      0.1821
     16  O4'      -47.3330   10.4840   43.1860 O.3   432  ANP432     -0.3135
     17  C3'      -49.1720   10.0750   44.5440 C.3   432  ANP432      0.2184
     18  O3'      -50.5390    9.6410   44.5420 O.3   432  ANP432     -0.2174
     19  C2'      -48.1740    8.9510   44.7830 C.3   432  ANP432      0.2570
     20  O2'      -48.5920    7.7470   44.1430 O.3   432  ANP432     -0.2130
     21  C1'      -46.9460    9.4030   44.0400 C.3   432  ANP432      0.3186
     22  N9       -45.9540    9.8850   44.9920 N.pl3 432  ANP432     -0.1439
     23  C8       -45.7380   11.1820   45.3220 C.3   432  ANP432      0.3377
     24  N7       -44.7340   11.2830   46.2400 N.2   432  ANP432     -0.2095
     25  C5       -44.3030   10.0170   46.4850 C.2   432  ANP432      0.2526
     26  C6       -43.2680    9.3830   47.3260 C.2   432  ANP432      0.4393
     27  N6       -42.4700   10.1400   48.1110 N.pl3 432  ANP432      0.2180
     28  N1       -43.1290    8.0320   47.2670 N.2   432  ANP432      0.0021
     29  C2       -43.9150    7.2690   46.4810 C.3   432  ANP432      0.5254
     30  N3       -44.8830    7.7740   45.7000 N.2   432  ANP432     -0.0055
     31  C4       -45.1120    9.1060   45.6520 C.2   432  ANP432      0.3518
@<TRIPOS>BOND
     1     2     1    2
     2     1     8    1
     3     1     3    1
     4     1     4    1
     5     8     5    1
     6     6     5    2
     7    14    15    1
     8    14    13    1
     9    16    15    1
    10    16    21    1
    11    15    17    1
    12     5    12    1
    13     5     7    1
    14    13     9    1
    15    12     9    1
    16    21    19    1
    17    21    22    1
    18    20    19    1
    19    18    17    1
    20    17    19    1
    21     9    11    2
    22     9    10    1
    23    22    23    1
    24    22    31    1
    25    23    24    1
    26    31    30    2
    27    31    25    1
    28    30    29    1
    29    24    25    2
    30    29    28    1
    31    25    26    1
    32    28    26    2
    33    26    27    1
