@<TRIPOS>MOLECULE
2wtn_FER_A_1.pdb
 14 14 0 0 0
SMALL
GASTEIGER

@<TRIPOS>ATOM
      1  C4       -27.7270   15.6380  -22.3290 C.ar  1250  FER1250     0.2293
      2  C5       -27.9520   14.5300  -21.4950 C.ar  1250  FER1250     0.0452
      3  C6       -28.0620   13.2410  -22.0230 C.ar  1250  FER1250     0.0035
      4  C3       -27.5570   15.4460  -23.6960 C.ar  1250  FER1250     0.1774
      5  C2       -27.6580   14.1420  -24.2200 C.ar  1250  FER1250     0.0402
      6  C1       -27.9200   13.0330  -23.3930 C.ar  1250  FER1250     0.0034
      7  C10      -27.4010   16.1950  -25.9280 C.3   1250  FER1250     0.2526
      8  C7       -27.9690   11.7450  -23.9500 C.2   1250  FER1250     0.0069
      9  C8       -28.1230   10.5790  -23.1640 C.2   1250  FER1250     0.0861
     10  C9       -28.1520    9.2710  -23.7110 C.2   1250  FER1250     0.3880
     11  O1       -28.0170    9.1350  -24.9470 O.co2 1250  FER1250    -0.2405
     12  O2       -28.3220    8.3170  -22.9690 O.co2 1250  FER1250    -0.2405
     13  O4       -27.6470   16.9080  -21.8140 O.3   1250  FER1250    -0.2833
     14  O3       -27.3010   16.5390  -24.4880 O.3   1250  FER1250    -0.4682
@<TRIPOS>BOND
     1     7    14    1
     2    11    10   ar
     3    14     4    1
     4     5     4   ar
     5     5     6   ar
     6     8     6    1
     7     8     9    2
     8    10     9    1
     9    10    12   ar
    10     4     1   ar
    11     6     3   ar
    12     1    13    1
    13     1     2   ar
    14     3     2   ar
