@<TRIPOS>MOLECULE
2wtu_ADP_A_1.pdb
 27 29 0 0 0
SMALL
GASTEIGER

@<TRIPOS>ATOM
      1  O1A       15.8710   47.5580   61.0630 O.3   1801  ADP1801    -0.4370
      2  PA        16.8780   47.7800   59.9690 P.3   1801  ADP1801     0.2231
      3  O2A       18.3220   47.9560   60.3430 O.2   1801  ADP1801    -0.5169
      4  O3A       16.7820   46.6070   58.8820 O.3   1801  ADP1801    -0.2261
      5  PB        17.1720   45.0820   59.2190 P.3   1801  ADP1801     0.5373
      6  O1B       18.5570   44.9050   58.6460 O.3   1801  ADP1801    -0.1143
      7  O2B       17.1350   45.0230   60.7220 O.3   1801  ADP1801    -0.1143
      8  O3B       16.0990   44.2730   58.5110 O.2   1801  ADP1801    -0.2221
      9  O5'       16.3830   49.0260   59.0930 O.3   1801  ADP1801    -0.3111
     10  C5'       17.1670   49.4910   58.0030 C.3   1801  ADP1801     0.1813
     11  C4'       16.8380   50.9530   57.7230 C.3   1801  ADP1801     0.1821
     12  C3'       17.1960   51.8690   58.8860 C.3   1801  ADP1801     0.2184
     13  O3'       18.3660   52.6310   58.5820 O.3   1801  ADP1801    -0.2174
     14  C2'       15.9900   52.7630   59.0880 C.3   1801  ADP1801     0.2570
     15  O2'       16.3260   54.1230   58.8080 O.3   1801  ADP1801    -0.2130
     16  C1'       14.9240   52.2650   58.1190 C.3   1801  ADP1801     0.3186
     17  O4'       15.4380   51.0980   57.4750 O.3   1801  ADP1801    -0.3135
     18  N9        13.6580   51.9130   58.8080 N.pl3 1801  ADP1801    -0.1439
     19  C4        12.5210   52.6020   58.7360 C.2   1801  ADP1801     0.3518
     20  C5        11.5540   51.8690   59.5660 C.2   1801  ADP1801     0.2526
     21  N7        12.1920   50.7960   60.0620 N.2   1801  ADP1801    -0.2095
     22  C8        13.4650   50.8330   59.5940 C.3   1801  ADP1801     0.3377
     23  N3        12.1240   53.7380   58.1110 N.2   1801  ADP1801    -0.0055
     24  C2        10.8610   54.1970   58.2470 C.3   1801  ADP1801     0.5254
     25  N1         9.9250   53.5720   58.9960 N.2   1801  ADP1801     0.0021
     26  C6        10.1910   52.4300   59.6700 C.2   1801  ADP1801     0.4393
     27  N6         9.2550   51.8010   60.4160 N.pl3 1801  ADP1801     0.2180
@<TRIPOS>BOND
     1    17    11    1
     2    17    16    1
     3    11    10    1
     4    11    12    1
     5    10     9    1
     6    23    24    1
     7    23    19    2
     8    16    18    1
     9    16    14    1
    10    24    25    1
    11     8     5    2
    12    13    12    1
    13     6     5    1
    14    19    18    1
    15    19    20    1
    16    15    14    1
    17    18    22    1
    18     4     5    1
    19     4     2    1
    20    12    14    1
    21    25    26    2
    22     9     2    1
    23     5     7    1
    24    20    26    1
    25    20    21    2
    26    22    21    1
    27    26    27    1
    28     2     3    2
    29     2     1    1
