@<TRIPOS>MOLECULE
2wtv_ZZL_A_1.pdb
 34 38 0 0 0
SMALL
GASTEIGER

@<TRIPOS>ATOM
      1  C13        0.2390   -8.1290   -4.3300 C.3   1390  ZZL1390     0.1560
      2  C15        1.5590  -10.1680   -4.3770 C.2   1390  ZZL1390     0.0808
      3  C17        1.0890  -12.5210   -5.1880 C.ar  1390  ZZL1390     0.1437
      4  C20        1.7190  -14.4680   -3.8830 C.ar  1390  ZZL1390     0.0046
      5  C21        2.2810  -13.6300   -2.9140 C.ar  1390  ZZL1390     0.0298
      6  C22        2.2390  -12.2390   -3.0830 C.ar  1390  ZZL1390     0.1437
      7  C24        2.9340   -9.5980   -4.6240 C.ar  1390  ZZL1390     0.0207
      8  C26        5.0930   -9.7350   -5.6530 C.ar  1390  ZZL1390     0.0577
      9  C28        5.4760   -8.5410   -5.0110 C.ar  1390  ZZL1390     0.0115
     10  O01        9.5690   -4.9640   -0.1350 O.co2 1390  ZZL1390    -0.2406
     11  C02        8.7770   -4.1540    0.2010 C.2   1390  ZZL1390     0.3878
     12  O03        9.1800   -2.9230    0.7240 O.co2 1390  ZZL1390    -0.2406
     13  C04        7.3020   -4.4660    0.0580 C.ar  1390  ZZL1390     0.0799
     14  C05        6.9150   -5.6960   -0.4810 C.ar  1390  ZZL1390     0.0079
     15  C06        5.5550   -5.9820   -0.6070 C.ar  1390  ZZL1390     0.0176
     16  C07        4.6090   -5.0330   -0.1950 C.ar  1390  ZZL1390     0.0826
     17  N08        3.2160   -5.3050   -0.4440 N.pl3 1390  ZZL1390    -0.1358
     18  C09        2.4760   -6.0720   -1.4070 C.1   1390  ZZL1390     0.1696
     19  N10        1.1010   -5.9200   -1.4820 N.2   1390  ZZL1390    -0.1686
     20  C11        0.4110   -6.6000   -2.4270 C.2   1390  ZZL1390     0.1120
     21  C12        1.0880   -7.4230   -3.2650 C.2   1390  ZZL1390     0.0525
     22  N14        0.4600   -9.5510   -4.2780 N.2   1390  ZZL1390    -0.2653
     23  C16        1.6450  -11.6800   -4.2210 C.ar  1390  ZZL1390     0.0721
     24  F18        0.5450  -11.9900   -6.3170 F     1390  ZZL1390    -0.2040
     25  C19        1.1230  -13.9090   -5.0180 C.ar  1390  ZZL1390     0.0298
     26  F23        2.8150  -11.4270   -2.1510 F     1390  ZZL1390    -0.2040
     27  C25        3.8160  -10.2700   -5.4520 C.ar  1390  ZZL1390     0.0130
     28 CL1         6.1860  -10.5820   -6.7780 Cl    1390  ZZL1390    -0.0822
     29  C29        4.5820   -7.8700   -4.1700 C.ar  1390  ZZL1390     0.0035
     30  C30        3.3080   -8.4120   -3.9780 C.ar  1390  ZZL1390     0.0318
     31  C31        2.4830   -7.5850   -3.1770 C.2   1390  ZZL1390     0.1435
     32  N32        3.1740   -6.9130   -2.2750 N.2   1390  ZZL1390    -0.3364
     33  C33        4.9960   -3.8040    0.3330 C.ar  1390  ZZL1390     0.0176
     34  C34        6.3570   -3.5220    0.4630 C.ar  1390  ZZL1390     0.0079
@<TRIPOS>BOND
     1    28     8    1
     2    24     3    1
     3     8    27   ar
     4     8     9   ar
     5    27     7   ar
     6     3    25   ar
     7     3    23   ar
     8    25     4   ar
     9     9    29   ar
    10     7     2    1
    11     7    30   ar
    12     2    22    2
    13     2    23    1
    14     1    22    1
    15     1    21    1
    16    23     6   ar
    17    29    30   ar
    18    30    31    1
    19     4     5   ar
    20    21    31    1
    21    21    20    2
    22    31    32    2
    23     6     5   ar
    24     6    26    1
    25    20    19    1
    26    32    18    2
    27    19    18    2
    28    18    17    1
    29    15    14   ar
    30    15    16   ar
    31    14    13   ar
    32    17    16    1
    33    16    33   ar
    34    10    11   ar
    35    13    11    1
    36    13    34   ar
    37    11    12   ar
    38    33    34   ar
