@<TRIPOS>MOLECULE
2wtw_ZZL_A_1.pdb
 34 38 0 0 0
SMALL
GASTEIGER

@<TRIPOS>ATOM
      1  O01       11.9750   56.1880   57.2550 O.co2 1390  ZZL1390    -0.2406
      2  C02       11.6370   55.5830   58.2170 C.2   1390  ZZL1390     0.3878
      3  O03       11.0800   54.3040   58.0790 O.co2 1390  ZZL1390    -0.2406
      4  C04       11.7990   56.1880   59.6090 C.ar  1390  ZZL1390     0.0799
      5  C05       12.3580   57.4600   59.7660 C.ar  1390  ZZL1390     0.0079
      6  C06       12.4990   58.0010   61.0480 C.ar  1390  ZZL1390     0.0176
      7  C07       12.0770   57.2810   62.1720 C.ar  1390  ZZL1390     0.0826
      8  N08       12.3070   57.8330   63.4960 N.pl3 1390  ZZL1390    -0.1358
      9  C09       12.8730   58.9890   64.1720 C.1   1390  ZZL1390     0.1696
     10  N10       12.7250   59.1440   65.5510 N.2   1390  ZZL1390    -0.1686
     11  C11       13.2690   60.2140   66.1750 C.2   1390  ZZL1390     0.1120
     12  C12       13.9510   61.1350   65.4520 C.2   1390  ZZL1390     0.0525
     13  C13       14.5600   62.2590   66.3080 C.3   1390  ZZL1390     0.1560
     14  N14       14.8120   63.5280   65.6510 N.2   1390  ZZL1390    -0.2653
     15  C15       14.7300   63.9070   64.4390 C.2   1390  ZZL1390     0.0808
     16  C16       14.2630   65.3080   64.0450 C.ar  1390  ZZL1390     0.0721
     17  C17       13.1860   65.4630   63.1600 C.ar  1390  ZZL1390     0.1437
     18  F18       12.5220   64.3610   62.7010 F     1390  ZZL1390    -0.2040
     19  C19       12.7660   66.7430   62.7660 C.ar  1390  ZZL1390     0.0298
     20  C20       13.4290   67.8730   63.2540 C.ar  1390  ZZL1390     0.0046
     21  C21       14.5010   67.7200   64.1370 C.ar  1390  ZZL1390     0.0298
     22  C22       14.9190   66.4440   64.5300 C.ar  1390  ZZL1390     0.1437
     23  F23       15.9510   66.3230   65.4120 F     1390  ZZL1390    -0.2040
     24  C24       15.0540   63.1440   63.1690 C.ar  1390  ZZL1390     0.0207
     25  C25       15.6600   63.7590   62.0710 C.ar  1390  ZZL1390     0.0130
     26  C26       15.9490   63.0130   60.9110 C.ar  1390  ZZL1390     0.0577
     27 CL1        16.7310   63.8110   59.5260 Cl    1390  ZZL1390    -0.0822
     28  C28       15.6240   61.6470   60.8370 C.ar  1390  ZZL1390     0.0115
     29  C29       15.0130   61.0280   61.9330 C.ar  1390  ZZL1390     0.0035
     30  C30       14.7350   61.7810   63.0920 C.ar  1390  ZZL1390     0.0318
     31  C31       14.1130   60.9670   64.0610 C.2   1390  ZZL1390     0.1435
     32  N32       13.5840   59.9260   63.4430 N.2   1390  ZZL1390    -0.3364
     33  C33       11.5330   56.0010   62.0150 C.ar  1390  ZZL1390     0.0176
     34  C34       11.3850   55.4600   60.7290 C.ar  1390  ZZL1390     0.0079
@<TRIPOS>BOND
     1     1     2   ar
     2     3     2   ar
     3     2     4    1
     4    27    26    1
     5     4     5   ar
     6     4    34   ar
     7     5     6   ar
     8    34    33   ar
     9    28    26   ar
    10    28    29   ar
    11    26    25   ar
    12     6     7   ar
    13    29    30   ar
    14    33     7   ar
    15    25    24   ar
    16     7     8    1
    17    18    17    1
    18    19    17   ar
    19    19    20   ar
    20    30    24   ar
    21    30    31    1
    22    17    16   ar
    23    24    15    1
    24    20    21   ar
    25    32    31    2
    26    32     9    2
    27     8     9    1
    28    16    15    1
    29    16    22   ar
    30    31    12    1
    31    21    22   ar
    32     9    10    2
    33    15    14    2
    34    22    23    1
    35    12    11    2
    36    12    13    1
    37    10    11    1
    38    14    13    1
