@<TRIPOS>MOLECULE
2wtx_UDP_A_1.pdb
 25 26 0 0 0
SMALL
GASTEIGER

@<TRIPOS>ATOM
      1  N1        51.6310  -10.3250   38.2300 N.am  1460  UDP1460    -0.1766
      2  C2        50.6470  -11.1240   37.6740 C.1   1460  UDP1460     0.2845
      3  N3        49.3200  -10.8550   37.9160 N.2   1460  UDP1460    -0.2452
      4  C4        48.9520   -9.8080   38.7190 C.1   1460  UDP1460     0.2182
      5  C5        49.9280   -9.0070   39.3130 C.2   1460  UDP1460     0.1242
      6  C6        51.2660   -9.3290   39.0970 C.2   1460  UDP1460     0.0929
      7  O2        50.9290  -12.0530   36.9260 O.2   1460  UDP1460    -0.1918
      8  O4        47.7590   -9.6070   38.9140 O.2   1460  UDP1460    -0.2085
      9  C1'       53.0570  -10.6390   37.9540 C.3   1460  UDP1460     0.2401
     10  C2'       53.8300   -9.5510   37.2300 C.3   1460  UDP1460     0.2319
     11  O2'       53.7060   -9.6590   35.8230 O.3   1460  UDP1460    -0.2157
     12  C3'       55.2640   -9.7990   37.6900 C.3   1460  UDP1460     0.2158
     13  C4'       55.1000  -10.3890   39.0800 C.3   1460  UDP1460     0.1799
     14  O4'       53.7520  -10.8160   39.1760 O.3   1460  UDP1460    -0.3320
     15  O3'       55.8760  -10.8030   36.8940 O.3   1460  UDP1460    -0.2175
     16  C5'       55.4080   -9.4120   40.1980 C.3   1460  UDP1460     0.1813
     17  O5'       56.8030   -9.3870   40.3670 O.3   1460  UDP1460    -0.3111
     18  PA        57.5880   -8.0650   40.8060 P.3   1460  UDP1460     0.2231
     19  O1A       59.0480   -8.2870   40.7100 O.3   1460  UDP1460    -0.4370
     20  O2A       57.1330   -6.8950   40.0380 O.2   1460  UDP1460    -0.5169
     21  O3A       57.1100   -7.7540   42.3150 O.3   1460  UDP1460    -0.2261
     22  PB        56.9280   -8.7990   43.5140 P.3   1460  UDP1460     0.5373
     23  O1B       55.5190   -9.1280   43.6630 O.3   1460  UDP1460    -0.1143
     24  O2B       57.3470   -8.0930   44.7600 O.3   1460  UDP1460    -0.1143
     25  O3B       57.7230  -10.0370   43.2880 O.2   1460  UDP1460    -0.2221
@<TRIPOS>BOND
     1    11    10    1
     2    15    12    1
     3     7     2    2
     4    10    12    1
     5    10     9    1
     6     2     3    2
     7     2     1   am
     8    12    13    1
     9     3     4    2
    10     9     1    1
    11     9    14    1
    12     1     6    1
    13     4     8    2
    14     4     5    1
    15    13    14    1
    16    13    16    1
    17     6     5    2
    18    20    18    2
    19    16    17    1
    20    17    18    1
    21    19    18    1
    22    18    21    1
    23    21    22    1
    24    25    22    2
    25    22    23    1
    26    22    24    1
