@<TRIPOS>MOLECULE
2wtx_VDO_A_1.pdb
 27 28 0 0 0
SMALL
GASTEIGER

@<TRIPOS>ATOM
      1  OAY       54.2270  -14.5380   49.9770 O.3   1461  VDO1461    -0.1145
      2  PBA       54.3560  -14.7540   48.3850 P.3   1461  VDO1461     0.5326
      3  OAZ       52.8320  -14.9430   48.0010 O.3   1461  VDO1461    -0.1145
      4  OAX       55.1650  -15.9210   47.9270 O.2   1461  VDO1461    -0.2224
      5  OAW       54.9420  -13.4020   47.7260 O.3   1461  VDO1461    -0.2702
      6  CAG       55.3590  -13.3470   46.3390 C.3   1461  VDO1461     0.1563
      7  CAF       56.8480  -13.0540   46.1890 C.3   1461  VDO1461     0.0648
      8  CAV       57.1560  -11.5890   46.5530 C.3   1461  VDO1461     0.0252
      9  CAE       57.6640  -14.0520   47.0380 C.3   1461  VDO1461     0.1871
     10  OAU       57.4410  -15.3700   46.5600 O.3   1461  VDO1461    -0.2202
     11  CAC       59.1500  -13.7770   46.9420 C.3   1461  VDO1461     0.2136
     12  OAP       59.7960  -14.7230   47.7900 O.3   1461  VDO1461    -0.2176
     13  CAB       59.4540  -12.3220   47.3560 C.3   1461  VDO1461     0.2005
     14  OAO       60.8240  -12.0420   47.1590 O.3   1461  VDO1461    -0.2188
     15  CAA       58.6660  -11.2700   46.5410 C.3   1461  VDO1461     0.1063
     16  NAN       59.2250  -11.0290   45.1470 N.3   1461  VDO1461    -0.2111
     17  CAM       60.6390  -10.4780   45.0520 C.3   1461  VDO1461     0.1272
     18  CAL       61.4010  -11.0630   43.8650 C.2   1461  VDO1461    -0.0100
     19  CAJ       60.8330   -8.9160   45.0480 C.3   1461  VDO1461     0.2049
     20  OAT       59.8600   -8.3010   45.8720 O.3   1461  VDO1461    -0.2184
     21  CAI       60.8460   -8.2460   43.6480 C.3   1461  VDO1461     0.2179
     22  OAS       61.1640   -6.8440   43.7650 O.3   1461  VDO1461    -0.2172
     23  CAH       61.9440   -8.7990   42.7600 C.3   1461  VDO1461     0.2053
     24  OAR       61.6970   -8.3500   41.4100 O.3   1461  VDO1461    -0.2157
     25  CAK       62.0180  -10.3250   42.8540 C.2   1461  VDO1461     0.0180
     26  CAD       62.8920  -11.0730   41.8400 C.3   1461  VDO1461     0.2066
     27  OAQ       62.0700  -11.3540   40.7410 O.3   1461  VDO1461    -0.2155
@<TRIPOS>BOND
     1    27    26    1
     2    24    23    1
     3    26    25    1
     4    23    25    1
     5    23    21    1
     6    25    18    2
     7    21    22    1
     8    21    19    1
     9    18    17    1
    10    19    17    1
    11    19    20    1
    12    17    16    1
    13    16    15    1
    14     7     6    1
    15     7     8    1
    16     7     9    1
    17     6     5    1
    18    15     8    1
    19    15    13    1
    20    10     9    1
    21    11     9    1
    22    11    13    1
    23    11    12    1
    24    14    13    1
    25     5     2    1
    26     4     2    2
    27     3     2    1
    28     2     1    1
