@<TRIPOS>MOLECULE
2wu1_FGS_A_1.pdb
 19 18 0 0 0
SMALL
GASTEIGER

@<TRIPOS>ATOM
      1  O18       22.9870   -9.3210   31.1730 O.3   1268  FGS1268    -0.1145
      2  P15       23.3590   -9.4650   29.5770 P.3   1268  FGS1268     0.5327
      3  O16       24.9530   -9.0510   29.3030 O.3   1268  FGS1268    -0.1145
      4  O17       23.1900  -10.8450   29.1350 O.2   1268  FGS1268    -0.2224
      5  O12       22.3380   -8.4830   28.7240 O.3   1268  FGS1268    -0.2674
      6  C10       21.6420   -7.5010   29.4360 C.3   1268  FGS1268     0.1892
      7  C7        21.5110   -6.1340   28.7020 C.3   1268  FGS1268     0.2147
      8  O4        21.1720   -6.3190   27.3420 O.3   1268  FGS1268    -0.2176
      9  C1        22.7660   -5.2670   28.8970 C.3   1268  FGS1268     0.2165
     10  O6        23.1770   -4.6180   27.7160 O.3   1268  FGS1268    -0.2175
     11  C2        22.7340   -4.3430   30.1500 C.3   1268  FGS1268     0.2071
     12  O8        23.8060   -3.4250   30.1580 O.3   1268  FGS1268    -0.2184
     13  C3        22.5950   -5.0860   31.5090 C.3   1268  FGS1268     0.1610
     14  C19       21.5090   -4.5590   32.4910 C.3   1268  FGS1268     0.2063
     15  O20       21.2370   -3.1750   32.5450 O.3   1268  FGS1268    -0.2184
     16  N19       23.9210   -5.2710   32.1100 N.am  1268  FGS1268    -0.2018
     17  C21       24.4910   -6.6120   32.2890 C.2   1268  FGS1268     0.2420
     18  O22       23.7970   -7.5070   32.6550 O.2   1268  FGS1268    -0.2733
     19  C23       26.0310   -6.7240   32.4090 C.3   1268  FGS1268     0.0964
@<TRIPOS>BOND
     1     8     7    1
     2    10     9    1
     3     7     9    1
     4     7     6    1
     5     5     6    1
     6     5     2    1
     7     9    11    1
     8     4     2    2
     9     3     2    1
    10     2     1    1
    11    11    12    1
    12    11    13    1
    13    13    16    1
    14    13    14    1
    15    16    17   am
    16    17    19    1
    17    17    18    2
    18    14    15    1
