@<TRIPOS>MOLECULE
2wu1_16G_A_1.pdb
 19 19 0 0 0
SMALL
GASTEIGER

@<TRIPOS>ATOM
      1  C1         0.8590  -21.9710   22.0120 C.3   1267  16G1267     0.2917
      2  C2        -0.3810  -22.0150   21.1590 C.3   1267  16G1267     0.1871
      3  C3        -0.2120  -21.1470   19.9220 C.3   1267  16G1267     0.2095
      4  C4         0.2050  -19.7090   20.3040 C.3   1267  16G1267     0.2135
      5  C5         1.1020  -19.5360   21.5790 C.3   1267  16G1267     0.1807
      6  C6         0.5490  -18.3810   22.4160 C.3   1267  16G1267     0.1859
      7  C7        -1.4860  -24.1560   21.9340 C.2   1267  16G1267     0.2421
      8  C8        -1.7580  -25.6380   21.6560 C.3   1267  16G1267     0.0964
      9  N2        -0.7990  -23.3910   20.9030 N.am  1267  16G1267    -0.1991
     10  O1         2.0570  -22.4410   21.4720 O.3   1267  16G1267    -0.1879
     11  O3        -1.3590  -21.1560   19.1070 O.3   1267  16G1267    -0.2183
     12  O4         0.3250  -18.7390   19.2840 O.3   1267  16G1267    -0.2176
     13  O5         0.9870  -20.6490   22.5270 O.3   1267  16G1267    -0.3243
     14  O6         0.9570  -17.1410   22.0210 O.3   1267  16G1267    -0.2675
     15  O7        -2.0070  -23.5890   22.8410 O.2   1267  16G1267    -0.2733
     16  P         -0.1020  -16.0510   21.4310 P.3   1267  16G1267     0.5327
     17  O1P        0.7610  -14.6740   21.6410 O.3   1267  16G1267    -0.1145
     18  O2P       -1.5450  -15.9530   22.2160 O.3   1267  16G1267    -0.1145
     19  O3P       -0.3200  -16.2980   19.9900 O.2   1267  16G1267    -0.2224
@<TRIPOS>BOND
     1    11     3    1
     2    12     4    1
     3     3     4    1
     4     3     2    1
     5    19    16    2
     6     4     5    1
     7     9     2    1
     8     9     7   am
     9     2     1    1
    10    16    17    1
    11    16    14    1
    12    16    18    1
    13    10     1    1
    14     5     6    1
    15     5    13    1
    16     8     7    1
    17     7    15    2
    18     1    13    1
    19    14     6    1
