@<TRIPOS>MOLECULE
2wu2_HEM_C_1.pdb
 43 50 0 0 0
SMALL
GASTEIGER

@<TRIPOS>ATOM
      1  CHA       56.0290  -14.6150  -33.6950 C.2   1130  HEM1130     0.0000
      2  CHB       59.8670  -13.6510  -36.4910 C.2   1130  HEM1130     0.0000
      3  CHC       62.6400  -14.8980  -32.6460 C.2   1130  HEM1130     0.0000
      4  CHD       58.7970  -15.8160  -29.8520 C.2   1130  HEM1130     0.0000
      5  C1A       56.7980  -14.2310  -34.7800 C.ar  1130  HEM1130     0.0000
      6  C2A       56.2910  -13.7440  -36.0720 C.ar  1130  HEM1130     0.0000
      7  C3A       57.3600  -13.4980  -36.8350 C.ar  1130  HEM1130     0.0000
      8  C4A       58.5600  -13.7850  -36.0510 C.ar  1130  HEM1130     0.0000
      9  CMA       57.3780  -12.9830  -38.2890 C.3   1130  HEM1130     0.0000
     10  CAA       54.7900  -13.5380  -36.4950 C.3   1130  HEM1130     0.0000
     11  CBA       54.0440  -12.7810  -35.3790 C.3   1130  HEM1130     0.0000
     12  CGA       52.8130  -11.9320  -35.7320 C.2   1130  HEM1130     0.0000
     13  O1A       51.9510  -11.6950  -34.8160 O.co2 1130  HEM1130     0.0000
     14  O2A       52.6780  -11.4270  -36.8790 O.co2 1130  HEM1130     0.0000
     15  C1B       60.9490  -13.9390  -35.6920 C.2   1130  HEM1130     0.0000
     16  C2B       62.3270  -13.8720  -36.1270 C.2   1130  HEM1130     0.0000
     17  C3B       63.0740  -14.2160  -35.0840 C.2   1130  HEM1130     0.0000
     18  C4B       62.2200  -14.5030  -33.9260 C.2   1130  HEM1130     0.0000
     19  CMB       62.8170  -13.4910  -37.5400 C.3   1130  HEM1130     0.0000
     20  CAB       64.6170  -14.2720  -35.1390 C.2   1130  HEM1130     0.0000
     21  CBB       65.2220  -15.0160  -34.2270 C.2   1130  HEM1130     0.0000
     22  C1C       61.8740  -15.2460  -31.5500 C.ar  1130  HEM1130     0.0000
     23  C2C       62.3310  -15.6490  -30.2170 C.ar  1130  HEM1130     0.0000
     24  C3C       61.2530  -15.8670  -29.4560 C.ar  1130  HEM1130     0.0000
     25  C4C       60.0870  -15.6440  -30.2570 C.ar  1130  HEM1130     0.0000
     26  CMC       63.8020  -15.7760  -29.7140 C.3   1130  HEM1130     0.0000
     27  CAC       61.2370  -16.3260  -27.9990 C.2   1130  HEM1130     0.0000
     28  CBC       60.5710  -15.6310  -27.0750 C.2   1130  HEM1130     0.0000
     29  C1D       57.6880  -15.7360  -30.6690 C.2   1130  HEM1130     0.0000
     30  C2D       56.3580  -16.2330  -30.3890 C.2   1130  HEM1130     0.0000
     31  C3D       55.4950  -15.8650  -31.5840 C.2   1130  HEM1130     0.0000
     32  C4D       56.3920  -15.1500  -32.4690 C.2   1130  HEM1130     0.0000
     33  CMD       55.8650  -16.9930  -29.1550 C.3   1130  HEM1130     0.0000
     34  CAD       53.9860  -16.1850  -31.7560 C.3   1130  HEM1130     0.0000
     35  CBD       53.0760  -15.1990  -31.0090 C.3   1130  HEM1130     0.0000
     36  CGD       51.6300  -15.3120  -31.4970 C.2   1130  HEM1130     0.0000
     37  O1D       50.9720  -14.2190  -31.6660 O.co2 1130  HEM1130     0.0000
     38  O2D       51.1390  -16.4790  -31.7330 O.co2 1130  HEM1130     0.0000
     39  NA        58.1890  -14.2250  -34.7970 N.ar  1130  HEM1130     0.0000
     40  NB        60.9110  -14.3170  -34.3420 N.2   1130  HEM1130     0.0000
     41  NC        60.4910  -15.2510  -31.5150 N.ar  1130  HEM1130     0.0000
     42  ND        57.6720  -15.1110  -31.8760 N.2   1130  HEM1130     0.0000
     43 FE         59.2560  -14.8300  -33.0580 Fe    1130  HEM1130     0.0000
@<TRIPOS>BOND
     1     9     7    1
     2    19    16    1
     3    14    12   ar
     4     7     6   ar
     5     7     8   ar
     6    10     6    1
     7    10    11    1
     8     2     8    2
     9     2    15    1
    10    16    15    1
    11    16    17    2
    12     6     5   ar
    13     8    39   ar
    14    12    11    1
    15    12    13   ar
    16    15    40    2
    17    20    17    1
    18    20    21    2
    19    17    18    1
    20    39     5   ar
    21    39    43    1
    22     5     1    2
    23    40    18    1
    24    40    43    1
    25    18     3    2
    26     1    32    1
    27    43    42    1
    28    43    41    1
    29     3    22    1
    30    32    42    2
    31    32    31    1
    32    42    29    1
    33    34    31    1
    34    34    35    1
    35    38    36   ar
    36    37    36   ar
    37    31    30    2
    38    22    41   ar
    39    22    23   ar
    40    41    25   ar
    41    36    35    1
    42    29    30    1
    43    29     4    2
    44    30    33    1
    45    25     4    1
    46    25    24   ar
    47    23    26    1
    48    23    24   ar
    49    24    27    1
    50    27    28    2
