@<TRIPOS>MOLECULE
2wu2_CBE_C_1.pdb
 16 17 0 0 0
SMALL
GASTEIGER

@<TRIPOS>ATOM
      1  C1        45.9570   -9.8160  -37.2550 C.3   1131  CBE1131     0.0725
      2  C2        47.0790   -9.5350  -36.2550 C.2   1131  CBE1131     0.1265
      3  C3        47.5060   -8.2300  -35.9840 C.2   1131  CBE1131     0.1105
      4  S4        48.8150   -7.9460  -34.8560 S.3   1131  CBE1131    -0.1026
      5  C5        48.7260   -9.4910  -33.8790 C.3   1131  CBE1131     0.1096
      6  C6        48.9080  -10.6190  -34.8820 C.3   1131  CBE1131     0.2169
      7  O7        47.7290  -10.6540  -35.7560 O.2   1131  CBE1131    -0.4781
      8  C8        46.7790   -7.0140  -36.4500 C.2   1131  CBE1131     0.2773
      9  O9        46.5080   -6.8160  -37.6440 O.2   1131  CBE1131    -0.2674
     10  N10       46.7200   -6.0810  -35.5020 N.am  1131  CBE1131    -0.1750
     11  C11       46.1920   -4.8700  -35.7770 C.ar  1131  CBE1131     0.0737
     12  C12       45.6750   -4.0700  -34.7350 C.ar  1131  CBE1131     0.0166
     13  C13       45.1410   -2.8170  -35.0330 C.ar  1131  CBE1131     0.0013
     14  C14       45.1130   -2.3440  -36.3370 C.ar  1131  CBE1131     0.0001
     15  C15       45.6130   -3.1480  -37.3550 C.ar  1131  CBE1131     0.0013
     16  C16       46.1560   -4.4030  -37.0690 C.ar  1131  CBE1131     0.0166
@<TRIPOS>BOND
     1     9     8    2
     2    15    16   ar
     3    15    14   ar
     4     1     2    1
     5    16    11   ar
     6     8     3    1
     7     8    10   am
     8    14    13   ar
     9     2     3    2
    10     2     7    1
    11     3     4    1
    12    11    10    1
    13    11    12   ar
    14     7     6    1
    15    13    12   ar
    16     6     5    1
    17     4     5    1
