@<TRIPOS>MOLECULE
2wu3_HI6_A_1.pdb
 18 19 0 0 0
SMALL
GASTEIGER

@<TRIPOS>ATOM
      1  O3        38.3160   18.1540    9.9850 O.2   601  HI6601     -0.2667
      2  C14       38.4950   19.3120   10.3340 C.2   601  HI6601      0.2839
      3  N4        39.5710   19.7080   11.0160 N.am  601  HI6601     -0.0837
      4  C11       37.4530   20.3260    9.9790 C.2   601  HI6601      0.0553
      5  C10       37.3550   21.5580   10.6350 C.2   601  HI6601     -0.0000
      6  C9        36.3470   22.4440   10.2500 C.3   601  HI6601      0.1197
      7  N3        35.4840   22.0860    9.2830 N.pl3 601  HI6601     -0.2775
      8  C13       35.5750   20.9210    8.6280 C.2   601  HI6601      0.0635
      9  C12       36.5590   20.0070    8.9680 C.2   601  HI6601      0.0202
     10  C8        34.4570   22.9930    8.8120 C.3   601  HI6601      0.2421
     11  O2        33.7820   23.6780    9.8310 O.3   601  HI6601     -0.3136
     12  C7        32.5930   24.0890    9.1840 C.3   601  HI6601      0.2421
     13  N2        31.5220   23.2420    9.6920 N.pl3 601  HI6601     -0.2775
     14  C2        31.0550   22.2490    8.9250 C.3   601  HI6601      0.1196
     15  C3        30.0350   21.4480    9.4110 C.2   601  HI6601     -0.0047
     16  C4        29.5190   21.6950   10.6810 C.2   601  HI6601     -0.0016
     17  C5        30.0220   22.7180   11.4640 C.2   601  HI6601      0.0156
     18  C6        31.0380   23.4850   10.9230 C.2   601  HI6601      0.0634
@<TRIPOS>BOND
     1     8     9    2
     2     8     7    1
     3    10     7    1
     4    10    11    1
     5    14    15    1
     6    14    13    1
     7     9     4    1
     8    12    13    1
     9    12    11    1
    10     7     6    1
    11    15    16    2
    12    13    18    1
    13     4     2    1
    14     4     5    2
    15     1     2    2
    16     6     5    1
    17     2     3   am
    18    16    17    1
    19    18    17    2
