@<TRIPOS>MOLECULE
2wu4_HBP_A_1.pdb
 25 26 0 0 0
SMALL
GASTEIGER

@<TRIPOS>ATOM
      1  C1        30.6880   23.7690   11.3150 C.3   1544  HBP1544     0.0914
      2  C5        33.0820   24.4080   10.8980 C.3   1544  HBP1544     0.0018
      3  O10       28.0830   20.3910    8.7630 O.2   1544  HBP1544    -0.1434
      4  N9        28.0340   20.9070   10.0660 N.2   1544  HBP1544    -0.0304
      5  C8A       28.8160   21.8290   10.4350 C.2   1544  HBP1544     0.1425
      6  C7        28.7620   22.3530   11.8220 C.3   1544  HBP1544     0.1406
      7  C6        27.7760   21.8890   12.6880 C.2   1544  HBP1544    -0.0005
      8  C4        28.6430   23.3070   14.3990 C.2   1544  HBP1544     0.0155
      9  C3        29.6050   23.7460   13.5000 C.2   1544  HBP1544     0.0618
     10  N2        29.6500   23.2760   12.2420 N.pl3 1544  HBP1544    -0.2995
     11  C2        32.0720   23.9440   11.9480 C.3   1544  HBP1544     0.0214
     12  C5A       27.7120   22.3640   13.9940 C.2   1544  HBP1544    -0.0012
     13  C8        34.1630   25.3080   11.4890 C.3   1544  HBP1544     0.0001
     14  C11       35.3950   25.3320   10.5960 C.3   1544  HBP1544     0.0018
     15  C14       35.7930   23.9000   10.2710 C.3   1544  HBP1544     0.0214
     16  C17       37.1390   23.7010    9.5600 C.3   1544  HBP1544     0.0911
     17  N20       38.0290   24.8620    9.6130 N.pl3 1544  HBP1544    -0.3023
     18  C21       37.9040   25.8420    8.7070 C.3   1544  HBP1544     0.1175
     19  C22       38.7580   26.9410    8.7550 C.2   1544  HBP1544    -0.0047
     20  C23       39.7450   27.0300    9.7310 C.2   1544  HBP1544    -0.0016
     21  C24       39.8590   26.0010   10.6500 C.2   1544  HBP1544     0.0159
     22  C25       38.9810   24.9280   10.5630 C.2   1544  HBP1544     0.0709
     23  C26       39.1250   23.8480   11.5520 C.2   1544  HBP1544     0.1594
     24  N27       40.0630   23.0230   11.4930 N.2   1544  HBP1544    -0.0265
     25  O28       40.1090   22.0550   12.4840 O.2   1544  HBP1544    -0.1431
@<TRIPOS>BOND
     1    18    19    1
     2    18    17    1
     3    19    20    2
     4     3     4    1
     5    16    17    1
     6    16    15    1
     7    17    22    1
     8    20    21    1
     9     4     5    2
    10    15    14    1
    11     5     6    1
    12    22    21    2
    13    22    23    1
    14    14    13    1
    15     2    13    1
    16     2    11    1
    17     1    11    1
    18     1    10    1
    19    24    23    2
    20    24    25    1
    21     6    10    1
    22     6     7    1
    23    10     9    1
    24     7    12    2
    25     9     8    2
    26    12     8    1
