@<TRIPOS>MOLECULE
2wu5_HEM_C_1.pdb
 43 50 0 0 0
SMALL
GASTEIGER

@<TRIPOS>ATOM
      1  CHA       55.7960  -14.4960  -34.0780 C.2   305  HEM305      0.0000
      2  CHB       59.6730  -13.5040  -36.8240 C.2   305  HEM305      0.0000
      3  CHC       62.5870  -14.9160  -33.1950 C.2   305  HEM305      0.0000
      4  CHD       58.7470  -15.3400  -30.2660 C.2   305  HEM305      0.0000
      5  C1A       56.5830  -14.0800  -35.1300 C.ar  305  HEM305      0.0000
      6  C2A       56.1180  -13.5250  -36.3870 C.ar  305  HEM305      0.0000
      7  C3A       57.1840  -13.2520  -37.1420 C.ar  305  HEM305      0.0000
      8  C4A       58.3680  -13.6260  -36.3970 C.ar  305  HEM305      0.0000
      9  CMA       57.1570  -12.6460  -38.5590 C.3   305  HEM305      0.0000
     10  CAA       54.6430  -13.2860  -36.7720 C.3   305  HEM305      0.0000
     11  CBA       54.1320  -12.0270  -36.0820 C.3   305  HEM305      0.0000
     12  CGA       52.6320  -11.9650  -36.2000 C.2   305  HEM305      0.0000
     13  O1A       52.0380  -10.9540  -35.7470 O.co2 305  HEM305      0.0000
     14  O2A       52.0270  -12.9240  -36.7440 O.co2 305  HEM305      0.0000
     15  C1B       60.8000  -13.7900  -36.0810 C.2   305  HEM305      0.0000
     16  C2B       62.1720  -13.6020  -36.5080 C.2   305  HEM305      0.0000
     17  C3B       62.9770  -13.9880  -35.5190 C.2   305  HEM305      0.0000
     18  C4B       62.1470  -14.4390  -34.4150 C.2   305  HEM305      0.0000
     19  CMB       62.6220  -13.0520  -37.8750 C.3   305  HEM305      0.0000
     20  CAB       64.5200  -13.9550  -35.5610 C.2   305  HEM305      0.0000
     21  CBB       65.2540  -14.3590  -34.5210 C.2   305  HEM305      0.0000
     22  C1C       61.8180  -15.0910  -32.0650 C.ar  305  HEM305      0.0000
     23  C2C       62.3040  -15.3190  -30.7230 C.ar  305  HEM305      0.0000
     24  C3C       61.2500  -15.4360  -29.9150 C.ar  305  HEM305      0.0000
     25  C4C       60.0470  -15.2840  -30.7130 C.ar  305  HEM305      0.0000
     26  CMC       63.7830  -15.4110  -30.2950 C.3   305  HEM305      0.0000
     27  CAC       61.3320  -15.6890  -28.3870 C.2   305  HEM305      0.0000
     28  CBC       60.2150  -15.8070  -27.6450 C.2   305  HEM305      0.0000
     29  C1D       57.6280  -15.3600  -31.0660 C.2   305  HEM305      0.0000
     30  C2D       56.3810  -16.0150  -30.7410 C.2   305  HEM305      0.0000
     31  C3D       55.4590  -15.7510  -31.9410 C.2   305  HEM305      0.0000
     32  C4D       56.2400  -14.9600  -32.8600 C.2   305  HEM305      0.0000
     33  CMD       56.0500  -16.8160  -29.4590 C.3   305  HEM305      0.0000
     34  CAD       54.0010  -16.2170  -32.1280 C.3   305  HEM305      0.0000
     35  CBD       53.0930  -15.4430  -31.1820 C.3   305  HEM305      0.0000
     36  CGD       51.6930  -15.4600  -31.7310 C.2   305  HEM305      0.0000
     37  O1D       50.8570  -14.6440  -31.2580 O.co2 305  HEM305      0.0000
     38  O2D       51.4140  -16.2770  -32.6460 O.co2 305  HEM305      0.0000
     39  NA        57.9630  -14.1290  -35.1720 N.ar  305  HEM305      0.0000
     40  NB        60.8210  -14.3030  -34.7960 N.2   305  HEM305      0.0000
     41  NC        60.4380  -15.0760  -32.0180 N.ar  305  HEM305      0.0000
     42  ND        57.5050  -14.7570  -32.3140 N.2   305  HEM305      0.0000
     43 FE         59.1710  -14.6050  -33.5750 Fe    305  HEM305      0.0000
@<TRIPOS>BOND
     1     9     7    1
     2    19    16    1
     3     7     8   ar
     4     7     6   ar
     5     2     8    2
     6     2    15    1
     7    10     6    1
     8    10    11    1
     9    14    12   ar
    10    16    15    1
    11    16    17    2
    12     8    39   ar
    13     6     5   ar
    14    12    11    1
    15    12    13   ar
    16    15    40    2
    17    20    17    1
    18    20    21    2
    19    17    18    1
    20    39     5   ar
    21    39    43    1
    22     5     1    2
    23    40    18    1
    24    40    43    1
    25    18     3    2
    26     1    32    1
    27    43    42    1
    28    43    41    1
    29     3    22    1
    30    32    42    2
    31    32    31    1
    32    38    36   ar
    33    42    29    1
    34    34    31    1
    35    34    35    1
    36    22    41   ar
    37    22    23   ar
    38    41    25   ar
    39    31    30    2
    40    36    37   ar
    41    36    35    1
    42    29    30    1
    43    29     4    2
    44    30    33    1
    45    23    26    1
    46    23    24   ar
    47    25     4    1
    48    25    24   ar
    49    24    27    1
    50    27    28    2
