@<TRIPOS>MOLECULE
2wu5_CBE_C_1.pdb
 16 17 0 0 0
SMALL
GASTEIGER

@<TRIPOS>ATOM
      1  C1        45.9440   -9.4780  -37.1050 C.3   1130  CBE1130     0.0725
      2  C2        47.0510   -9.2020  -36.1000 C.2   1130  CBE1130     0.1265
      3  C3        47.4810   -7.8870  -35.8260 C.2   1130  CBE1130     0.1105
      4  S4        48.7120   -7.5350  -34.6930 S.3   1130  CBE1130    -0.1026
      5  C5        49.0070   -9.1800  -33.9410 C.3   1130  CBE1130     0.1096
      6  C6        48.9820  -10.2420  -35.0180 C.3   1130  CBE1130     0.2169
      7  O7        47.6130  -10.2980  -35.5090 O.2   1130  CBE1130    -0.4781
      8  C8        46.7480   -6.6780  -36.3300 C.2   1130  CBE1130     0.2773
      9  O9        46.5260   -6.5400  -37.5360 O.2   1130  CBE1130    -0.2674
     10  N10       46.6720   -5.7120  -35.4230 N.am  1130  CBE1130    -0.1750
     11  C11       46.1770   -4.4860  -35.7240 C.ar  1130  CBE1130     0.0737
     12  C12       45.6020   -3.6840  -34.7320 C.ar  1130  CBE1130     0.0166
     13  C13       45.0970   -2.4100  -35.0370 C.ar  1130  CBE1130     0.0013
     14  C14       45.1510   -1.9220  -36.3230 C.ar  1130  CBE1130     0.0001
     15  C15       45.7300   -2.7100  -37.3230 C.ar  1130  CBE1130     0.0013
     16  C16       46.2350   -3.9760  -37.0140 C.ar  1130  CBE1130     0.0166
@<TRIPOS>BOND
     1     9     8    2
     2    15    16   ar
     3    15    14   ar
     4     1     2    1
     5    16    11   ar
     6     8     3    1
     7     8    10   am
     8    14    13   ar
     9     2     3    2
    10     2     7    1
    11     3     4    1
    12    11    10    1
    13    11    12   ar
    14     7     6    1
    15    13    12   ar
    16     6     5    1
    17     4     5    1
