@<TRIPOS>MOLECULE
2wu6_DKI_A_1.pdb
 28 30 0 0 0
SMALL
GASTEIGER

@<TRIPOS>ATOM
      1  FAF       39.1350   54.6520   17.1200 F     1484  DKI1484    -0.2027
      2  CAU       37.8910   54.3560   17.5690 C.ar  1484  DKI1484     0.1575
      3  CAI       37.7050   53.6480   18.7670 C.ar  1484  DKI1484     0.0311
      4  CAH       36.4320   53.3260   19.2380 C.ar  1484  DKI1484     0.0047
      5  CAJ       35.3340   53.7250   18.4960 C.ar  1484  DKI1484     0.0311
      6  CAV       35.5360   54.4100   17.2970 C.ar  1484  DKI1484     0.1575
      7  FAG       34.4450   54.7620   16.5980 F     1484  DKI1484    -0.2027
      8  CAZ       36.8030   54.7260   16.8050 C.ar  1484  DKI1484     0.1271
      9  NAQ       36.9160   55.4570   15.6400 N.am  1484  DKI1484    -0.1854
     10  CAS       37.2490   55.0050   14.4190 C.2   1484  DKI1484     0.1862
     11  SAE       37.6920   53.3300   14.2740 S.2   1484  DKI1484    -0.0145
     12  NBA       37.1790   55.8520   13.3620 N.am  1484  DKI1484    -0.1152
     13  NAP       36.9440   57.0700   13.5150 N.2   1484  DKI1484    -0.0877
     14  CAT       37.2320   55.5520   12.0420 C.2   1484  DKI1484     0.3142
     15  NAA       37.4320   54.3620   11.4430 N.pl3 1484  DKI1484    -0.0755
     16  NAO       37.0540   56.6710   11.3730 N.2   1484  DKI1484    -0.2988
     17  CAX       36.8680   57.6300   12.3120 C.1   1484  DKI1484     0.1878
     18  NAR       36.6730   58.9320   12.0060 N.pl3 1484  DKI1484    -0.1347
     19  CAW       36.4240   60.0430   12.7330 C.ar  1484  DKI1484     0.0827
     20  CAL       36.5920   60.0880   14.1180 C.ar  1484  DKI1484     0.0187
     21  CAN       36.3350   61.2660   14.8290 C.ar  1484  DKI1484     0.0214
     22  CAK       35.9920   61.2080   12.0590 C.ar  1484  DKI1484     0.0187
     23  CAM       35.7320   62.3990   12.7560 C.ar  1484  DKI1484     0.0214
     24  CAY       35.9070   62.4140   14.1510 C.ar  1484  DKI1484     0.1251
     25  SBB       35.5680   63.8820   15.1160 S.O2  1484  DKI1484     0.0935
     26  OAC       34.8640   64.8500   14.1930 O.2   1484  DKI1484    -0.1503
     27  OAD       34.7220   63.5070   16.3000 O.2   1484  DKI1484    -0.1503
     28  NAB       36.9390   64.5420   15.5150 N.3   1484  DKI1484     0.0392
@<TRIPOS>BOND
     1    16    14    2
     2    16    17    2
     3    15    14    1
     4    18    17    1
     5    18    19    1
     6    14    12    1
     7    22    19   ar
     8    22    23   ar
     9    17    13    2
    10    19    20   ar
    11    23    24   ar
    12    12    13    1
    13    12    10    1
    14    20    21   ar
    15    24    21   ar
    16    24    25    1
    17    26    25    2
    18    11    10    2
    19    10     9    1
    20    25    28    1
    21    25    27    2
    22     9     8    1
    23     7     6    1
    24     8     6   ar
    25     8     2   ar
    26     1     2    1
    27     6     5   ar
    28     2     3   ar
    29     5     4   ar
    30     3     4   ar
