@<TRIPOS>MOLECULE
2wu7_V25_A_1.pdb
 22 23 0 0 0
SMALL
GASTEIGER

@<TRIPOS>ATOM
      1  CAA       33.6540   17.4260   20.9730 C.3   1483  V251483     0.0513
      2  CAL       34.6880   16.3710   21.2420 C.3   1483  V251483     0.2089
      3  OAM       35.2090   15.8090   19.9910 O.3   1483  V251483    -0.4444
      4  CAN       35.3970   16.1370   18.7310 C.2   1483  V251483     0.3570
      5  OAE       35.7750   17.2310   18.4890 O.2   1483  V251483    -0.2433
      6  CAS       35.4580   15.3250   17.3800 C.ar  1483  V251483     0.1340
      7  NAV       35.6870   15.7960   15.9550 N.ar  1483  V251483    -0.3196
      8  CAB       35.9390   17.1890   15.4380 C.3   1483  V251483     0.1306
      9  CAU       35.7000   14.7820   15.1310 C.ar  1483  V251483     0.0713
     10  CAQ       35.8910   14.6820   13.7070 C.ar  1483  V251483     0.0839
     11 CL1        36.0960   16.1330   12.7270 Cl    1483  V251483    -0.0799
     12  CAP       35.8730   13.4630   13.0960 C.ar  1483  V251483     0.0696
     13 CL2        36.0860   13.3560   11.4490 Cl    1483  V251483    -0.0813
     14  CAJ       35.6500   12.2500   13.8790 C.ar  1483  V251483     0.0123
     15  CAK       35.4410   12.2920   15.2890 C.ar  1483  V251483     0.0021
     16  CAT       35.4650   13.5460   15.9460 C.ar  1483  V251483     0.0157
     17  CAR       35.3220   13.9410   17.2830 C.ar  1483  V251483     0.0209
     18  CAO       35.0620   12.9580   18.1280 C.3   1483  V251483     0.1581
     19  CAH       35.6880   11.8030   18.6170 C.1   1483  V251483     0.0828
     20  NAC       35.8220   10.9390   19.1320 N.1   1483  V251483    -0.1952
     21  CAI       33.8050   13.0350   18.6270 C.2   1483  V251483     0.1150
     22  NAD       32.7780   13.7800   18.5560 N.2   1483  V251483    -0.1499
@<TRIPOS>BOND
     1    13    12    1
     2    11    10    1
     3    12    10   ar
     4    12    14   ar
     5    10     9   ar
     6    14    15   ar
     7     9    16   ar
     8     9     7   ar
     9    15    16   ar
    10     8     7    1
    11    16    17   ar
    12     7     6   ar
    13    17     6   ar
    14    17    18    1
    15     6     4    1
    16    18    19    1
    17    18    21    1
    18     5     4    2
    19    22    21    2
    20    19    20    3
    21     4     3    1
    22     3     2    1
    23     1     2    1
