@<TRIPOS>MOLECULE
2wue_KEK_B_1.pdb
 20 20 0 0 0
SMALL
GASTEIGER

@<TRIPOS>ATOM
      1 CL         10.8520  -40.7440    6.9840 Cl    1289  KEK1289    -0.0826
      2  C02       12.4910  -40.9300    6.3370 C.ar  1289  KEK1289     0.0537
      3  C03       12.7300  -41.0070    4.8310 C.ar  1289  KEK1289     0.0111
      4  C04       14.1470  -41.1610    4.2750 C.ar  1289  KEK1289     0.0008
      5  C05       15.3340  -41.2280    5.2510 C.ar  1289  KEK1289    -0.0003
      6  C06       15.0870  -41.1330    6.7690 C.ar  1289  KEK1289    -0.0034
      7  C07       13.6700  -40.9680    7.3220 C.ar  1289  KEK1289    -0.0112
      8  C08       13.3730  -40.8680    8.8240 C.3   1289  KEK1289     0.0350
      9  C09       12.2590  -41.9130    8.9920 C.3   1289  KEK1289     0.0695
     10  C10       11.4280  -41.6380   10.2330 C.2   1289  KEK1289     0.1546
     11  C11       10.0320  -41.0520   10.0010 C.3   1289  KEK1289     0.0796
     12  C12        9.3280  -41.1240   11.3330 C.2   1289  KEK1289    -0.0156
     13  C13        9.3160  -40.0260   12.0430 C.2   1289  KEK1289     0.0448
     14  C14        8.9360  -40.1490   13.4940 C.2   1289  KEK1289     0.2744
     15  C15        8.9720  -38.9910   14.4800 C.2   1289  KEK1289     0.4260
     16  O16        8.5400  -37.6970   14.1180 O.co2 1289  KEK1289    -0.2369
     17  O17        9.7830  -39.0380   15.3300 O.co2 1289  KEK1289    -0.2369
     18  O18        8.9470  -41.2310   13.9180 O.2   1289  KEK1289    -0.2795
     19  C19       10.0390  -39.5990    9.5230 C.3   1289  KEK1289     0.0125
     20  O20       11.7820  -41.9140   11.3060 O.2   1289  KEK1289    -0.2957
@<TRIPOS>BOND
     1     4     3   ar
     2     4     5   ar
     3     3     2   ar
     4     5     6   ar
     5     2     1    1
     6     2     7   ar
     7     6     7   ar
     8     7     8    1
     9     8     9    1
    10     9    10    1
    11    19    11    1
    12    11    10    1
    13    11    12    1
    14    10    20    2
    15    12    13    2
    16    13    14    1
    17    14    18    2
    18    14    15    1
    19    16    15   ar
    20    15    17   ar
