@<TRIPOS>MOLECULE
2wuf_KEM_B_1.pdb
 25 26 0 0 0
SMALL
GASTEIGER

@<TRIPOS>ATOM
      1  C01        9.8520  -39.5360    9.4710 C.3   1289  KEM1289     0.0125
      2  C02       10.0020  -40.8720   10.2100 C.3   1289  KEM1289     0.0796
      3  C03        9.3170  -40.9380   11.5830 C.2   1289  KEM1289    -0.0156
      4  C04        9.3580  -39.8410   12.3420 C.2   1289  KEM1289     0.0448
      5  C05        8.8290  -39.7800   13.7770 C.2   1289  KEM1289     0.2744
      6  O06        8.7710  -40.7940   14.3670 O.2   1289  KEM1289    -0.2795
      7  C07        8.4360  -38.4380   14.4350 C.2   1289  KEM1289     0.4260
      8  O08        8.1160  -37.2910   13.7200 O.co2 1289  KEM1289    -0.2369
      9  O09        8.8250  -38.1850   15.5080 O.co2 1289  KEM1289    -0.2369
     10  C10       11.4110  -41.4270   10.1720 C.2   1289  KEM1289     0.1543
     11  O11       11.7950  -41.8220   11.1990 O.2   1289  KEM1289    -0.2957
     12  C12       12.3530  -40.8410    9.0590 C.3   1289  KEM1289     0.0653
     13  C13       11.8860  -40.7930    7.5550 C.3   1289  KEM1289     0.0151
     14  C14       13.1880  -40.7600    6.6710 C.3   1289  KEM1289     0.0584
     15  C15       13.1780  -40.5560    5.0860 C.3   1289  KEM1289     0.0139
     16  C16       13.6170  -39.1350    4.6850 C.3   1289  KEM1289     0.0086
     17  C17       14.2080  -39.2170    3.2680 C.3   1289  KEM1289     0.0645
     18  C18       14.8770  -40.5890    3.1900 C.2   1289  KEM1289     0.1499
     19  O19       15.3420  -41.0980    2.2260 O.2   1289  KEM1289    -0.2961
     20  C20       14.2690  -41.4080    4.3180 C.3   1289  KEM1289     0.0523
     21  C21       13.7930  -42.7620    3.7230 C.3   1289  KEM1289     0.0074
     22  C22       15.3830  -41.8210    5.2510 C.3   1289  KEM1289     0.0147
     23  C23       14.6720  -42.8430    6.1110 C.3   1289  KEM1289     0.0649
     24  C24       13.8430  -42.0530    7.0810 C.2   1289  KEM1289     0.1503
     25  O25       13.5430  -42.5400    8.0880 O.2   1289  KEM1289    -0.2961
@<TRIPOS>BOND
     1    19    18    2
     2    18    17    1
     3    18    20    1
     4    17    16    1
     5    21    20    1
     6    20    15    1
     7    20    22    1
     8    16    15    1
     9    15    14    1
    10    22    23    1
    11    23    24    1
    12    14    24    1
    13    14    13    1
    14    24    25    2
    15    13    12    1
    16    12    10    1
    17     1     2    1
    18    10     2    1
    19    10    11    2
    20     2     3    1
    21     3     4    2
    22     4     5    1
    23     8     7   ar
    24     5     6    2
    25     5     7    1
    26     7     9   ar
