@<TRIPOS>MOLECULE
2wug_HPK_A_1.pdb
 16 16 0 0 0
SMALL
GASTEIGER

@<TRIPOS>ATOM
      1  CB3       -9.9270  -15.7740   38.0440 C.ar  1290  HPK1290     0.0001
      2  CB4      -10.1810  -16.5200   39.1960 C.ar  1290  HPK1290     0.0000
      3  CB5      -10.5280  -17.8660   39.0760 C.ar  1290  HPK1290     0.0001
      4  CB6      -10.5770  -18.4670   37.8160 C.ar  1290  HPK1290     0.0029
      5  CB1      -10.2880  -17.7230   36.6740 C.ar  1290  HPK1290     0.0350
      6  CB2       -9.9440  -16.3800   36.7850 C.ar  1290  HPK1290     0.0029
      7  CA6      -10.3750  -18.3760   35.3040 C.2   1290  HPK1290     0.1774
      8  OA4      -10.9950  -17.8610   34.4500 O.2   1290  HPK1290    -0.2910
      9  CA5       -9.7350  -19.7390   35.0890 C.3   1290  HPK1290     0.0952
     10  CA4       -9.9390  -20.1600   33.6480 C.2   1290  HPK1290    -0.0145
     11  CA3       -8.9930  -20.8500   33.0720 C.2   1290  HPK1290     0.0449
     12  CA2       -9.1310  -21.2310   31.6140 C.2   1290  HPK1290     0.2744
     13  OA3      -10.2180  -21.4290   31.1940 O.2   1290  HPK1290    -0.2795
     14  CA1       -7.9680  -20.9320   30.6730 C.2   1290  HPK1290     0.4260
     15  OA2       -6.7650  -21.6540   30.7290 O.co2 1290  HPK1290    -0.2369
     16  OA1       -7.9770  -19.9060   30.1050 O.co2 1290  HPK1290    -0.2369
@<TRIPOS>BOND
     1    16    14   ar
     2    14    15   ar
     3    14    12    1
     4    13    12    2
     5    12    11    1
     6    11    10    2
     7    10     9    1
     8     8     7    2
     9     9     7    1
    10     7     5    1
    11     5     6   ar
    12     5     4   ar
    13     6     1   ar
    14     4     3   ar
    15     1     2   ar
    16     3     2   ar
