@<TRIPOS>MOLECULE
2wul_GSH_A_1.pdb
 20 19 0 0 0
SMALL
GASTEIGER

@<TRIPOS>ATOM
      1  O31       23.6140   -6.0090   18.3630 O.co2 300  GSH300     -0.2437
      2  C3        23.8270   -6.6610   17.3010 C.2   300  GSH300      0.3865
      3  O32       22.8600   -7.0370   16.5940 O.co2 300  GSH300     -0.2437
      4  CA3       25.2430   -6.9640   16.8870 C.3   300  GSH300      0.2285
      5  N3        26.1490   -5.9060   17.3520 N.am  300  GSH300     -0.1917
      6  C2        26.0420   -4.6150   17.0420 C.2   300  GSH300      0.2627
      7  O2        25.0650   -4.1530   16.1700 O.2   300  GSH300     -0.2714
      8  CA2       27.0040   -3.6500   17.6640 C.3   300  GSH300      0.1843
      9  CB2       26.5570   -3.3190   19.0970 C.3   300  GSH300      0.0997
     10  SG2       25.0950   -2.2400   19.1950 S.3   300  GSH300     -0.0797
     11  N2        27.1740   -2.4330   16.8620 N.am  300  GSH300     -0.1968
     12  CD1       28.3760   -1.9080   16.6010 C.2   300  GSH300      0.2418
     13  OE1       29.5460   -2.6010   16.9280 O.2   300  GSH300     -0.2733
     14  CG1       28.4280   -0.5560   15.9110 C.3   300  GSH300      0.0889
     15  CB1       29.8080    0.0940   15.9580 C.3   300  GSH300      0.0402
     16  CA1       30.6030   -0.0680   14.6550 C.3   300  GSH300      0.1948
     17  N1        32.0200    0.0540   14.9360 N.3   300  GSH300     -0.1208
     18  C1        30.2220    0.9620   13.6130 C.2   300  GSH300      0.3819
     19  O11       31.0880    1.7000   13.1090 O.co2 300  GSH300     -0.2441
     20  O12       29.0390    1.0930   13.2180 O.co2 300  GSH300     -0.2441
@<TRIPOS>BOND
     1    19    18   ar
     2    20    18   ar
     3    18    16    1
     4    16    17    1
     5    16    15    1
     6    14    15    1
     7    14    12    1
     8     7     6    2
     9     3     2   ar
    10    12    11   am
    11    12    13    2
    12    11     8    1
    13     4     2    1
    14     4     5    1
    15     6     5   am
    16     6     8    1
    17     2     1   ar
    18     8     9    1
    19     9    10    1
