@<TRIPOS>MOLECULE
2wuz_HEM_A_1.pdb
 43 50 0 0 0
SMALL
GASTEIGER

@<TRIPOS>ATOM
      1  CHA       40.6140  -16.3870    5.8020 C.2   1450  HEM1450     0.0000
      2  C1A       39.9520  -17.5750    5.8700 C.ar  1450  HEM1450     0.0000
      3  C2A       39.6770  -18.4240    4.7250 C.ar  1450  HEM1450     0.0000
      4  CAA       40.1530  -18.1100    3.2890 C.3   1450  HEM1450     0.0000
      5  CBA       39.4870  -16.8690    2.7230 C.3   1450  HEM1450     0.0000
      6  CGA       39.8340  -16.8270    1.2660 C.2   1450  HEM1450     0.0000
      7  O1A       40.7030  -17.6130    0.7510 O.co2 1450  HEM1450     0.0000
      8  O2A       39.2170  -15.9660    0.6320 O.co2 1450  HEM1450     0.0000
      9  C3A       38.9750  -19.4640    5.1440 C.ar  1450  HEM1450     0.0000
     10  CMA       38.3850  -20.6630    4.3400 C.3   1450  HEM1450     0.0000
     11  C4A       38.7850  -19.2710    6.5740 C.ar  1450  HEM1450     0.0000
     12  NA        39.4000  -18.1040    7.0000 N.ar  1450  HEM1450     0.0000
     13  CHB       38.0870  -20.1400    7.3620 C.2   1450  HEM1450     0.0000
     14  C1B       37.9690  -19.9700    8.6960 C.2   1450  HEM1450     0.0000
     15  C2B       37.2760  -20.8920    9.5790 C.2   1450  HEM1450     0.0000
     16  CMB       36.6010  -22.1480    9.0060 C.3   1450  HEM1450     0.0000
     17  C3B       37.3920  -20.3840   10.8260 C.2   1450  HEM1450     0.0000
     18  CAB       36.9090  -20.9060   12.1580 C.2   1450  HEM1450     0.0000
     19  CBB       36.7810  -22.2220   12.2660 C.2   1450  HEM1450     0.0000
     20  C4B       38.1410  -19.1700   10.7720 C.2   1450  HEM1450     0.0000
     21  NB        38.4820  -18.9230    9.4400 N.2   1450  HEM1450     0.0000
     22  CHC       38.4440  -18.3900   11.8730 C.2   1450  HEM1450     0.0000
     23  C1C       39.0310  -17.1530   11.8700 C.ar  1450  HEM1450     0.0000
     24  C2C       39.3350  -16.3290   13.0210 C.ar  1450  HEM1450     0.0000
     25  CMC       39.0430  -16.6330   14.4910 C.3   1450  HEM1450     0.0000
     26  C3C       39.9280  -15.2190   12.5760 C.ar  1450  HEM1450     0.0000
     27  CAC       40.3900  -14.0610   13.4670 C.2   1450  HEM1450     0.0000
     28  CBC       41.5800  -13.4370   13.2610 C.2   1450  HEM1450     0.0000
     29  C4C       40.0240  -15.3020   11.1330 C.ar  1450  HEM1450     0.0000
     30  NC        39.4390  -16.4900   10.7290 N.ar  1450  HEM1450     0.0000
     31  CHD       40.5530  -14.3730   10.2850 C.2   1450  HEM1450     0.0000
     32  C1D       40.7400  -14.5430    8.9150 C.2   1450  HEM1450     0.0000
     33  C2D       41.3380  -13.5730    8.0200 C.2   1450  HEM1450     0.0000
     34  CMD       41.8860  -12.1780    8.3030 C.3   1450  HEM1450     0.0000
     35  C3D       41.3270  -14.1910    6.6460 C.2   1450  HEM1450     0.0000
     36  CAD       41.9200  -13.6080    5.3530 C.3   1450  HEM1450     0.0000
     37  CBD       43.4590  -13.5430    5.5620 C.3   1450  HEM1450     0.0000
     38  CGD       44.1390  -13.2840    4.2230 C.2   1450  HEM1450     0.0000
     39  O1D       43.4300  -12.7950    3.2870 O.co2 1450  HEM1450     0.0000
     40  O2D       45.3810  -13.5670    4.0540 O.co2 1450  HEM1450     0.0000
     41  C4D       40.7280  -15.4920    6.8330 C.2   1450  HEM1450     0.0000
     42  ND        40.4090  -15.6830    8.1870 N.2   1450  HEM1450     0.0000
     43 FE         39.3970  -17.3670    8.9090 Fe    1450  HEM1450     0.0000
@<TRIPOS>BOND
     1     8     6   ar
     2     7     6   ar
     3     6     5    1
     4     5     4    1
     5    39    38   ar
     6     4     3    1
     7    40    38   ar
     8    38    37    1
     9    10     9    1
    10     3     9   ar
    11     3     2   ar
    12     9    11   ar
    13    36    37    1
    14    36    35    1
    15     1     2    2
    16     1    41    1
    17     2    12   ar
    18    11    12   ar
    19    11    13    2
    20    35    41    1
    21    35    33    2
    22    41    42    2
    23    12    43    1
    24    13    14    1
    25    33    34    1
    26    33    32    1
    27    42    43    1
    28    42    32    1
    29    14    21    2
    30    14    15    1
    31    43    21    1
    32    43    30    1
    33    32    31    2
    34    16    15    1
    35    21    20    1
    36    15    17    2
    37    31    29    1
    38    30    29   ar
    39    30    23   ar
    40    20    17    1
    41    20    22    2
    42    17    18    1
    43    29    26   ar
    44    23    22    1
    45    23    24   ar
    46    18    19    2
    47    26    24   ar
    48    26    27    1
    49    24    25    1
    50    28    27    2
