@<TRIPOS>MOLECULE
2wuz_TPF_A_1.pdb
 22 24 0 0 0
SMALL
GASTEIGER

@<TRIPOS>ATOM
      1  F1        39.4120  -10.6220    6.9860 F     1460  TPF1460    -0.2041
      2  C11       38.3350  -11.4450    6.6940 C.ar  1460  TPF1460     0.1424
      3  C12       38.4250  -12.2130    5.5450 C.ar  1460  TPF1460     0.0590
      4  C13       37.3620  -13.0270    5.2180 C.ar  1460  TPF1460     0.1408
      5  F2        37.3260  -13.7950    4.0630 F     1460  TPF1460    -0.2043
      6  C10       37.2340  -11.5080    7.5590 C.ar  1460  TPF1460     0.0295
      7  C9        36.1190  -12.2760    7.2890 C.ar  1460  TPF1460     0.0027
      8  C8        36.1870  -13.0470    6.1470 C.ar  1460  TPF1460     0.0365
      9  C1        35.1030  -13.9600    5.7310 C.3   1460  TPF1460     0.1922
     10  O         35.5710  -15.0160    4.8550 O.3   1460  TPF1460    -0.2169
     11  C2        34.1720  -13.1030    4.9110 C.3   1460  TPF1460     0.1658
     12  N1        33.0620  -13.9390    4.5870 N.ar  1460  TPF1460    -0.2271
     13  N3        31.9060  -13.6510    5.3270 N.ar  1460  TPF1460    -0.1451
     14  C4        31.0210  -14.5660    4.8570 C.ar  1460  TPF1460     0.2210
     15  N2        31.6150  -15.3500    3.8840 N.ar  1460  TPF1460    -0.2007
     16  C3        32.9070  -14.9460    3.7210 C.ar  1460  TPF1460     0.1973
     17  C5        34.6030  -14.7530    6.9080 C.3   1460  TPF1460     0.1658
     18  N4        35.7200  -15.5080    7.5360 N.ar  1460  TPF1460    -0.2271
     19  N6        35.4900  -15.8720    8.8490 N.ar  1460  TPF1460    -0.1451
     20  C7        36.6070  -16.5140    9.2480 C.ar  1460  TPF1460     0.2210
     21  N5        37.4910  -16.5000    8.2470 N.ar  1460  TPF1460    -0.2007
     22  C6        36.9420  -15.8380    7.2150 C.ar  1460  TPF1460     0.1973
@<TRIPOS>BOND
     1    16    15   ar
     2    16    12   ar
     3    15    14   ar
     4     5     4    1
     5    12    11    1
     6    12    13   ar
     7    10     9    1
     8    14    13   ar
     9    11     9    1
    10     4     3   ar
    11     4     8   ar
    12     3     2   ar
    13     9     8    1
    14     9    17    1
    15     8     7   ar
    16     2     1    1
    17     2     6   ar
    18    17    18    1
    19    22    18   ar
    20    22    21   ar
    21     7     6   ar
    22    18    19   ar
    23    21    20   ar
    24    19    20   ar
