@<TRIPOS>MOLECULE
2wv2_HEM_A_1.pdb
 43 50 0 0 0
SMALL
GASTEIGER

@<TRIPOS>ATOM
      1  CHA      -47.3430   14.3060    1.7410 C.2   1450  HEM1450     0.0000
      2  CHB      -45.4050   14.8460   -2.6470 C.2   1450  HEM1450     0.0000
      3  CHC      -41.6270   13.3040   -0.1740 C.2   1450  HEM1450     0.0000
      4  CHD      -43.7500   11.6960    3.7340 C.2   1450  HEM1450     0.0000
      5  C1A      -47.1620   14.6320    0.4510 C.ar  1450  HEM1450     0.0000
      6  C2A      -48.1830   15.2960   -0.3490 C.ar  1450  HEM1450     0.0000
      7  C3A      -47.6460   15.4350   -1.5910 C.ar  1450  HEM1450     0.0000
      8  C4A      -46.2900   14.8930   -1.5550 C.ar  1450  HEM1450     0.0000
      9  CMA      -48.2440   16.0540   -2.8520 C.3   1450  HEM1450     0.0000
     10  CAA      -49.5900   15.6980    0.1460 C.3   1450  HEM1450     0.0000
     11  CBA      -50.4500   14.4560   -0.0280 C.3   1450  HEM1450     0.0000
     12  CGA      -51.9540   14.7650    0.1210 C.2   1450  HEM1450     0.0000
     13  O1A      -52.2730   15.9830    0.0800 O.co2 1450  HEM1450     0.0000
     14  O2A      -52.8360   13.8200    0.2510 O.co2 1450  HEM1450     0.0000
     15  C1B      -44.1180   14.4870   -2.3210 C.2   1450  HEM1450     0.0000
     16  C2B      -42.9140   14.6850   -3.1250 C.2   1450  HEM1450     0.0000
     17  C3B      -41.9110   14.2100   -2.3690 C.2   1450  HEM1450     0.0000
     18  C4B      -42.4380   13.7640   -1.1070 C.2   1450  HEM1450     0.0000
     19  CMB      -42.8550   15.2510   -4.5370 C.3   1450  HEM1450     0.0000
     20  CAB      -40.4310   14.1270   -2.6800 C.2   1450  HEM1450     0.0000
     21  CBB      -40.0270   14.7200   -3.8290 C.2   1450  HEM1450     0.0000
     22  C1C      -41.8750   12.7110    0.9880 C.ar  1450  HEM1450     0.0000
     23  C2C      -40.8510   11.9590    1.6760 C.ar  1450  HEM1450     0.0000
     24  C3C      -41.4140   11.5040    2.7470 C.ar  1450  HEM1450     0.0000
     25  C4C      -42.7830   11.9560    2.8030 C.ar  1450  HEM1450     0.0000
     26  CMC      -39.3860   11.7080    1.2860 C.3   1450  HEM1450     0.0000
     27  CAC      -40.6380   10.6890    3.7360 C.3   1450  HEM1450     0.0000
     28  CBC      -41.0620   10.9870    4.9710 C.3   1450  HEM1450     0.0000
     29  C1D      -45.0110   12.2660    3.5350 C.2   1450  HEM1450     0.0000
     30  C2D      -46.1450   12.1780    4.4410 C.2   1450  HEM1450     0.0000
     31  C3D      -47.2230   12.9970    3.8360 C.2   1450  HEM1450     0.0000
     32  C4D      -46.6320   13.5090    2.6020 C.2   1450  HEM1450     0.0000
     33  CMD      -46.2360   11.4390    5.7390 C.3   1450  HEM1450     0.0000
     34  CAD      -48.6410   13.2120    4.3840 C.3   1450  HEM1450     0.0000
     35  CBD      -48.5450   13.7430    5.8140 C.3   1450  HEM1450     0.0000
     36  CGD      -49.8930   14.3030    6.2790 C.2   1450  HEM1450     0.0000
     37  O1D      -51.0120   13.8510    5.7950 O.co2 1450  HEM1450     0.0000
     38  O2D      -49.8060   15.2470    7.1470 O.co2 1450  HEM1450     0.0000
     39  NA       -46.0380   14.4210   -0.2640 N.ar  1450  HEM1450     0.0000
     40  NB       -43.7670   13.9120   -1.0790 N.2   1450  HEM1450     0.0000
     41  NC       -43.0230   12.6870    1.6770 N.ar  1450  HEM1450     0.0000
     42  ND       -45.3580   13.0660    2.4630 N.2   1450  HEM1450     0.0000
     43 FE        -44.5350   13.4460    0.6850 Fe    1450  HEM1450     0.0000
@<TRIPOS>BOND
     1    19    16    1
     2    21    20    2
     3    16    17    2
     4    16    15    1
     5     9     7    1
     6    20    17    1
     7     2    15    1
     8     2     8    2
     9    17    18    1
    10    15    40    2
    11     7     8   ar
    12     7     6   ar
    13     8    39   ar
    14    18    40    1
    15    18     3    2
    16    40    43    1
    17     6    10    1
    18     6     5   ar
    19    39     5   ar
    20    39    43    1
    21     3    22    1
    22    11    12    1
    23    11    10    1
    24    13    12   ar
    25    12    14   ar
    26     5     1    2
    27    43    41    1
    28    43    42    1
    29    22    23   ar
    30    22    41   ar
    31    26    23    1
    32    23    24   ar
    33    41    25   ar
    34     1    32    1
    35    42    32    2
    36    42    29    1
    37    32    31    1
    38    24    25   ar
    39    24    27    1
    40    25     4    1
    41    29     4    2
    42    29    30    1
    43    27    28    1
    44    31    34    1
    45    31    30    2
    46    34    35    1
    47    30    33    1
    48    37    36   ar
    49    35    36    1
    50    36    38   ar
