@<TRIPOS>MOLECULE
2wv2_TPF_A_1.pdb
 22 24 0 0 0
SMALL
GASTEIGER

@<TRIPOS>ATOM
      1  O        -48.9870   10.5010   -0.4780 O.3     1  TPF1       -0.2169
      2  C1       -48.4300    9.1710   -0.2970 C.3     1  TPF1        0.1922
      3  C2       -47.3090    9.1940   -1.3300 C.3     1  TPF1        0.1658
      4  C5       -49.4590    7.9540   -0.4790 C.3     1  TPF1        0.1658
      5  C8       -48.0620    8.9190    1.1250 C.ar    1  TPF1        0.0365
      6  N1       -46.3970   10.2170   -0.9060 N.ar    1  TPF1       -0.2271
      7  C3       -46.5630   11.3120   -0.1500 C.ar    1  TPF1        0.1973
      8  N3       -45.0680    9.9510   -1.3740 N.ar    1  TPF1       -0.1451
      9  N2       -45.3140   11.8170   -0.1340 N.ar    1  TPF1       -0.2007
     10  C4       -44.4060   11.0280   -0.8540 C.ar    1  TPF1        0.2210
     11  N4       -49.7770    7.9620   -1.9120 N.ar    1  TPF1       -0.2271
     12  C6       -50.6280    8.7460   -2.6760 C.ar    1  TPF1        0.1973
     13  N6       -48.9670    7.0520   -2.6840 N.ar    1  TPF1       -0.1451
     14  N5       -50.4190    8.2960   -3.9670 N.ar    1  TPF1       -0.2007
     15  C7       -49.4210    7.2990   -3.9660 C.ar    1  TPF1        0.2210
     16  C9       -47.1260    8.0320    1.5670 C.ar    1  TPF1        0.0027
     17  C13      -49.0140    9.5820    2.0370 C.ar    1  TPF1        0.1408
     18  C10      -47.0990    7.9580    2.9990 C.ar    1  TPF1        0.0295
     19  C11      -47.9930    8.6270    3.8710 C.ar    1  TPF1        0.1424
     20  F1       -47.8990    8.4930    5.2140 F       1  TPF1       -0.2041
     21  C12      -48.9830    9.4510    3.4270 C.ar    1  TPF1        0.0590
     22  F2       -49.9340   10.3710    1.3690 F       1  TPF1       -0.2043
@<TRIPOS>BOND
     1    14    15   ar
     2    14    12   ar
     3    15    13   ar
     4    13    11   ar
     5    12    11   ar
     6    11     4    1
     7     8     6   ar
     8     8    10   ar
     9     3     6    1
    10     3     2    1
    11     6     7   ar
    12    10     9   ar
    13     4     2    1
    14     1     2    1
    15     2     5    1
    16     7     9   ar
    17     5    16   ar
    18     5    17   ar
    19    22    17    1
    20    16    18   ar
    21    17    21   ar
    22    18    19   ar
    23    21    19   ar
    24    19    20    1
