@<TRIPOS>MOLECULE
2wv8_FMN_A_1.pdb
 31 33 0 0 0
SMALL
GASTEIGER

@<TRIPOS>ATOM
      1  N1        41.7900   36.1690    8.6370 N.2   398  FMN398     -0.2890
      2  C2        42.1890   35.5070    9.8070 C.1   398  FMN398      0.3669
      3  O2        41.6090   35.6330   10.8510 O.2   398  FMN398     -0.1744
      4  N3        43.3390   34.6620    9.6840 N.2   398  FMN398     -0.2300
      5  C4        44.0880   34.4380    8.5330 C.1   398  FMN398      0.2513
      6  O4        45.0690   33.6850    8.5470 O.2   398  FMN398     -0.2057
      7  C4A       43.6590   35.1330    7.3280 C.2   398  FMN398      0.2700
      8  N5        44.3210   34.9800    6.1730 N.2   398  FMN398     -0.3878
      9  C5A       43.8900   35.6740    5.0540 C.2   398  FMN398      0.1320
     10  C6        44.5730   35.5500    3.8270 C.2   398  FMN398      0.0250
     11  C7        44.1590   36.2650    2.6770 C.2   398  FMN398     -0.0238
     12  C7M       45.0020   36.0490    1.4030 C.3   398  FMN398      0.0308
     13  C8        43.0210   37.1460    2.7100 C.2   398  FMN398     -0.0280
     14  C8M       42.5470   37.9460    1.4990 C.3   398  FMN398      0.0304
     15  C9        42.3440   37.2640    3.9070 C.2   398  FMN398     -0.0041
     16  C9A       42.7400   36.5590    5.0860 C.3   398  FMN398      0.1497
     17  N10       42.0560   36.6790    6.3430 N.pl3 398  FMN398     -0.2691
     18  C10       42.4600   36.0110    7.4760 C.2   398  FMN398      0.2416
     19  C1'       40.8740   37.5590    6.4250 C.3   398  FMN398      0.1294
     20  C2'       41.1570   39.0420    6.6480 C.3   398  FMN398      0.2044
     21  O2'       41.7810   39.1940    7.9630 O.3   398  FMN398     -0.2185
     22  C3'       39.8310   39.8620    6.6690 C.3   398  FMN398      0.2164
     23  O3'       38.9230   39.3510    7.7180 O.3   398  FMN398     -0.2175
     24  C4'       39.0500   39.7760    5.3350 C.3   398  FMN398      0.2147
     25  O4'       39.9450   39.5930    4.2060 O.3   398  FMN398     -0.2176
     26  C5'       38.2050   41.0260    5.0930 C.3   398  FMN398      0.1892
     27  O5'       39.0160   42.1890    4.9510 O.3   398  FMN398     -0.2674
     28  P         39.4650   42.7880    3.5290 P.3   398  FMN398      0.5327
     29  O1P       40.5440   41.8940    2.9530 O.3   398  FMN398     -0.1145
     30  O2P       39.9470   44.1780    3.8660 O.3   398  FMN398     -0.1145
     31  O3P       38.2170   42.8360    2.6340 O.2   398  FMN398     -0.2224
@<TRIPOS>BOND
     1    12    11    1
     2    14    13    1
     3    31    28    2
     4    11    13    1
     5    11    10    2
     6    13    15    2
     7    29    28    1
     8    28    30    1
     9    28    27    1
    10    10     9    1
    11    15    16    1
    12    25    24    1
    13    27    26    1
    14     9    16    1
    15     9     8    2
    16    16    17    1
    17    26    24    1
    18    24    22    1
    19     8     7    2
    20    17    19    1
    21    17    18    1
    22    19    20    1
    23    20    22    1
    24    20    21    1
    25    22    23    1
    26     7    18    1
    27     7     5    1
    28    18     1    2
    29     5     6    2
    30     5     4    2
    31     1     2    2
    32     4     2    2
    33     2     3    2
