@<TRIPOS>MOLECULE
2wv8_VGN_A_1.pdb
 25 27 0 0 0
SMALL
GASTEIGER

@<TRIPOS>ATOM
      1  CB        49.5040   41.3600   -1.2740 C.ar  400  VGN400      0.0168
      2  CG        50.3840   42.5060   -1.1980 C.ar  400  VGN400      0.0013
      3  C16       53.5040   46.3950   -1.7650 C.ar  400  VGN400      0.0000
      4  O1        47.7700   40.5140   -5.1420 O.co2 400  VGN400     -0.2405
      5  C22       55.8900   49.3980   -2.3660 C.ar  400  VGN400      0.0000
      6  C9        51.5080   45.1940   -0.9750 C.ar  400  VGN400      0.0000
      7  C19       54.8410   48.4700   -2.5870 C.ar  400  VGN400      0.0000
      8  C17       54.5980   47.4650   -1.6200 C.ar  400  VGN400      0.0000
      9  C8        52.6170   44.5160   -3.0790 C.ar  400  VGN400      0.0000
     10  C12       53.5330   45.5330   -2.8710 C.ar  400  VGN400      0.0000
     11  C18       55.4230   47.4130   -0.4430 C.ar  400  VGN400      0.0000
     12  C6        48.9150   40.9570   -2.5060 C.ar  400  VGN400      0.0797
     13  C3        50.6390   43.2010   -2.3430 C.ar  400  VGN400      0.0003
     14  C4        49.2260   41.7220   -3.6600 C.ar  400  VGN400      0.0951
     15  O2        49.1420   41.9700   -6.0680 O.co2 400  VGN400     -0.2405
     16  C13       52.4580   46.2300   -0.7850 C.ar  400  VGN400      0.0000
     17  C5        48.6340   41.3360   -4.9930 C.2   400  VGN400      0.3890
     18  C2        50.0860   42.8460   -3.5840 C.ar  400  VGN400      0.0079
     19  C21       56.6910   49.3430   -1.2130 C.ar  400  VGN400      0.0000
     20  C23       51.5880   44.3400   -2.1060 C.ar  400  VGN400      0.0000
     21  C20       56.4610   48.3480   -0.2440 C.ar  400  VGN400      0.0000
     22  N10       48.0080   39.7740   -2.5810 N.am  400  VGN400     -0.1790
     23  C1        46.6690   37.7530   -1.7330 C.3   400  VGN400      0.0968
     24  C14       47.6180   38.9180   -1.4670 C.2   400  VGN400      0.2461
     25  O15       48.0990   39.1450   -0.1390 O.2   400  VGN400     -0.2730
@<TRIPOS>BOND
     1    15    17   ar
     2     4    17   ar
     3    17    14    1
     4    14    18   ar
     5    14    12   ar
     6    18    13   ar
     7     9    10   ar
     8     9    20   ar
     9    10     3   ar
    10     7     5   ar
    11     7     8   ar
    12    22    12    1
    13    22    24   am
    14    12     1   ar
    15     5    19   ar
    16    13    20    1
    17    13     2   ar
    18    20     6   ar
    19     3     8    1
    20     3    16   ar
    21    23    24    1
    22     8    11   ar
    23    24    25    2
    24     1     2   ar
    25    19    21   ar
    26     6    16   ar
    27    11    21   ar
