@<TRIPOS>MOLECULE
2wva_TPU_A_1.pdb
 26 27 0 0 0
SMALL
GASTEIGER

@<TRIPOS>ATOM
      1  O23       18.3930   32.2590   -7.4120 O.3   600  TPU600     -0.1143
      2  P2        17.8200   31.0660   -8.3900 P.3   600  TPU600      0.5373
      3  O22       18.5800   29.6430   -8.0630 O.3   600  TPU600     -0.1143
      4  O21       18.1790   31.3990   -9.7600 O.2   600  TPU600     -0.2221
      5  O11       16.1880   30.9720   -8.1590 O.3   600  TPU600     -0.2261
      6  P1        15.1590   30.1370   -9.1360 P.3   600  TPU600      0.2230
      7  O12       14.8140   31.0610  -10.4350 O.2   600  TPU600     -0.5169
      8  O13       13.8920   29.9420   -8.4230 O.3   600  TPU600     -0.4370
      9  O5G       15.7810   28.6960   -9.6000 O.3   600  TPU600     -0.3134
     10  C5B       15.1970   27.5070   -9.1770 C.3   600  TPU600      0.1552
     11  C5A       15.7110   26.2270   -9.8290 C.3   600  TPU600      0.0769
     12  C5        15.5520   24.9520   -9.0180 C.2   600  TPU600      0.0757
     13  C4        14.9930   23.8110   -9.4530 C.3   600  TPU600      0.1169
     14  C4A       14.4530   23.6050  -10.8590 C.3   600  TPU600      0.0254
     15  N1        15.9420   24.7620   -7.6770 N.2   600  TPU600     -0.1540
     16  N2        15.6090   23.5160   -7.3350 N.pl3 600  TPU600     -0.0629
     17  N3        15.0110   22.8930   -8.4260 N.3   600  TPU600     -0.1605
     18  C35       14.5310   21.5130   -8.4690 C.3   600  TPU600      0.1276
     19  C5'       13.0130   21.4620   -8.2670 C.2   600  TPU600      0.0634
     20  C6'       12.1840   21.1910   -9.2820 C.2   600  TPU600      0.1113
     21  N1'       10.8490   21.1700   -9.0690 N.2   600  TPU600     -0.1861
     22  C2'       10.3290   21.4320   -7.7980 C.1   600  TPU600      0.0663
     23  C2A        8.8130   21.4160   -7.5940 C.3   600  TPU600      0.1291
     24  N3'       11.1820   21.7110   -6.7360 N.2   600  TPU600     -0.3368
     25  C4'       12.4770   21.7350   -6.9350 C.2   600  TPU600      0.2290
     26  N4'       13.4240   21.9970   -5.8620 N.pl3 600  TPU600     -0.0925
@<TRIPOS>BOND
     1    14    13    1
     2     7     6    2
     3    11    10    1
     4    11    12    1
     5     4     2    2
     6     9    10    1
     7     9     6    1
     8    13    12    1
     9    13    17    1
    10    20    21    1
    11    20    19    2
    12     6     8    1
    13     6     5    1
    14    21    22    2
    15    12    15    2
    16    18    17    1
    17    18    19    1
    18    17    16    1
    19     2     5    1
    20     2     3    1
    21     2     1    1
    22    19    25    1
    23    22    23    1
    24    22    24    2
    25    15    16    1
    26    25    24    2
    27    25    26    1
