@<TRIPOS>MOLECULE
2wvg_TPU_A_1.pdb
 26 27 0 0 0
SMALL
GASTEIGER

@<TRIPOS>ATOM
      1  O23      -18.0120   -6.8620   32.8740 O.3   600  TPU600     -0.1143
      2  P2       -17.8080   -7.8690   31.6050 P.3   600  TPU600      0.5373
      3  O22      -18.8810   -7.4950   30.4200 O.2   600  TPU600     -0.2221
      4  O21      -17.9950   -9.2560   32.0050 O.3   600  TPU600     -0.1143
      5  O11      -16.2850   -7.6020   31.0590 O.3   600  TPU600     -0.2261
      6  P1       -15.0950   -8.7020   30.8150 P.3   600  TPU600      0.2230
      7  O12      -15.0160   -9.9770   31.8250 O.3   600  TPU600     -0.4370
      8  O13      -13.8390   -7.9440   30.8910 O.2   600  TPU600     -0.5169
      9  O5G      -15.3390   -9.3130   29.3220 O.3   600  TPU600     -0.3134
     10  C5B      -15.3950   -8.4540   28.2130 C.3   600  TPU600      0.1552
     11  C5A      -15.8200   -9.1950   26.9520 C.3   600  TPU600      0.0769
     12  C5       -15.5820   -8.5030   25.6170 C.2   600  TPU600      0.0757
     13  C4       -15.0730   -9.0760   24.5080 C.3   600  TPU600      0.1169
     14  C4A      -14.5760  -10.5150   24.3480 C.3   600  TPU600      0.0254
     15  N1       -15.8860   -7.1610   25.3330 N.2   600  TPU600     -0.1540
     16  N2       -15.5580   -6.9560   24.0520 N.pl3 600  TPU600     -0.0629
     17  N3       -15.0390   -8.1300   23.5220 N.3   600  TPU600     -0.1605
     18  C35      -14.5900   -8.3400   22.1410 C.3   600  TPU600      0.1276
     19  C5'      -13.0940   -8.0720   21.9810 C.2   600  TPU600      0.0634
     20  C6'      -12.2640   -9.0630   21.6520 C.2   600  TPU600      0.1113
     21  N1'      -10.9290   -8.8370   21.5440 N.2   600  TPU600     -0.1861
     22  C2'      -10.4200   -7.5470   21.7830 C.1   600  TPU600      0.0663
     23  C2A       -8.9200   -7.3070   21.7150 C.3   600  TPU600      0.1291
     24  N3'      -11.2690   -6.5240   22.1370 N.2   600  TPU600     -0.3368
     25  C4'      -12.5530   -6.7350   22.2310 C.2   600  TPU600      0.2290
     26  N4'      -13.4440   -5.6510   22.5630 N.pl3 600  TPU600     -0.0925
@<TRIPOS>BOND
     1    21    20    1
     2    21    22    2
     3    20    19    2
     4    23    22    1
     5    22    24    2
     6    19    18    1
     7    19    25    1
     8    24    25    2
     9    18    17    1
    10    25    26    1
    11    17    16    1
    12    17    13    1
    13    16    15    1
    14    14    13    1
    15    13    12    1
    16    15    12    2
    17    12    11    1
    18    11    10    1
    19    10     9    1
    20     9     6    1
    21     3     2    2
    22     6     8    2
    23     6     5    1
    24     6     7    1
    25     5     2    1
    26     2     4    1
    27     2     1    1
