@<TRIPOS>MOLECULE
2wvj_TTP_A_1.pdb
 29 30 0 0 0
SMALL
GASTEIGER

@<TRIPOS>ATOM
      1  PA        16.4910  -13.9300   44.7690 P.3   1192  TTP1192     0.2189
      2  O1A       15.1280  -13.6050   45.3510 O.3   1192  TTP1192    -0.4371
      3  O2A       16.6850  -15.4030   44.5420 O.2   1192  TTP1192    -0.5170
      4  O3A       16.8220  -13.1040   43.4360 O.3   1192  TTP1192    -0.2700
      5  PB        15.8940  -13.1090   42.1230 P.3   1192  TTP1192     0.2277
      6  O1B       14.7090  -12.2080   42.3500 O.3   1192  TTP1192    -0.4368
      7  O2B       16.7150  -12.6400   40.9430 O.2   1192  TTP1192    -0.5168
      8  O3B       15.3890  -14.6410   41.9460 O.3   1192  TTP1192    -0.2258
      9  PG        15.5540  -15.5290   40.6000 P.3   1192  TTP1192     0.5373
     10  O1G       16.9990  -15.6190   40.1920 O.3   1192  TTP1192    -0.1143
     11  O2G       14.7530  -14.8700   39.5130 O.2   1192  TTP1192    -0.2221
     12  O3G       15.0650  -16.9280   40.8730 O.3   1192  TTP1192    -0.1143
     13  O5'       17.5810  -13.3680   45.8100 O.3   1192  TTP1192    -0.3112
     14  C5'       18.9620  -13.4520   45.5170 C.3   1192  TTP1192     0.1812
     15  C4'       19.6850  -12.4980   46.4460 C.3   1192  TTP1192     0.1773
     16  O4'       19.4430  -12.8670   47.8100 O.3   1192  TTP1192    -0.3339
     17  C3'       21.1750  -12.5990   46.1860 C.3   1192  TTP1192     0.1857
     18  O3'       21.7000  -11.2780   46.0800 O.3   1192  TTP1192    -0.2203
     19  C2'       21.7430  -13.2940   47.4060 C.3   1192  TTP1192     0.0874
     20  C1'       20.6980  -13.0050   48.4800 C.3   1192  TTP1192     0.2090
     21  N1        20.6670  -13.9990   49.5580 N.am  1192  TTP1192    -0.1794
     22  C2        21.0000  -13.5600   50.8700 C.1   1192  TTP1192     0.2844
     23  O2        21.3070  -12.3580   51.0630 O.2   1192  TTP1192    -0.1918
     24  N3        20.9860  -14.4140   51.9120 N.2   1192  TTP1192    -0.2455
     25  C4        20.6720  -15.7070   51.7450 C.1   1192  TTP1192     0.2134
     26  O4        20.6750  -16.4860   52.7270 O.2   1192  TTP1192    -0.2088
     27  C5        20.3220  -16.1930   50.3790 C.2   1192  TTP1192     0.0891
     28  C5M       19.9570  -17.6380   50.1420 C.3   1192  TTP1192     0.0462
     29  C6        20.3390  -15.2850   49.3230 C.2   1192  TTP1192     0.0877
@<TRIPOS>BOND
     1    11     9    2
     2    10     9    1
     3     9    12    1
     4     9     8    1
     5     7     5    2
     6     8     5    1
     7     5     6    1
     8     5     4    1
     9     4     1    1
    10     3     1    2
    11     1     2    1
    12     1    13    1
    13    14    13    1
    14    14    15    1
    15    18    17    1
    16    17    15    1
    17    17    19    1
    18    15    16    1
    19    19    20    1
    20    16    20    1
    21    20    21    1
    22    29    21    1
    23    29    27    2
    24    21    22   am
    25    28    27    1
    26    27    25    1
    27    22    23    2
    28    22    24    2
    29    25    24    2
    30    25    26    2
