@<TRIPOS>MOLECULE
2wvl_GDD_A_1.pdb
 39 42 0 0 0
SMALL
GASTEIGER

@<TRIPOS>ATOM
      1  N2       114.1300   25.5590   13.4510 N.pl3 400  GDD400     -0.0226
      2  C2       115.4610   25.1330   13.9580 C.1   400  GDD400      0.2531
      3  N1       116.5140   25.9780   13.8340 N.2   400  GDD400     -0.2485
      4  N3       115.6030   23.9110   14.5360 N.2   400  GDD400     -0.3074
      5  C4       116.8270   23.5240   15.0000 C.2   400  GDD400      0.2300
      6  C5       117.9160   24.3810   14.8750 C.2   400  GDD400      0.2182
      7  C6       117.7420   25.6290   14.2750 C.1   400  GDD400      0.2372
      8  O6       118.7810   26.5010   14.1220 O.2   400  GDD400     -0.2069
      9  N7       118.9760   23.7440   15.4000 N.2   400  GDD400     -0.2322
     10  C8       118.5610   22.5430   15.8540 C.3   400  GDD400      0.2246
     11  N9       117.2570   22.4040   15.6000 N.pl3 400  GDD400     -0.2354
     12  C1'      116.3970   21.2330   15.9170 C.3   400  GDD400      0.2293
     13  C2'      117.1290   19.8810   15.9910 C.3   400  GDD400      0.2310
     14  O2'      116.8730   18.9450   14.9270 O.3   400  GDD400     -0.2158
     15  C3'      116.6180   19.2870   17.2780 C.3   400  GDD400      0.2158
     16  O3'      115.4390   18.5130   17.0180 O.3   400  GDD400     -0.2175
     17  C4'      116.2960   20.5090   18.1210 C.3   400  GDD400      0.1799
     18  O4'      115.8400   21.4960   17.2050 O.3   400  GDD400     -0.3326
     19  C5'      117.5650   20.9830   18.8210 C.3   400  GDD400      0.1813
     20  O5'      118.1300   19.7750   19.3110 O.3   400  GDD400     -0.3112
     21  PA       119.6990   19.4570   19.4370 P.3   400  GDD400      0.2189
     22  O1A      119.7020   17.9670   19.7070 O.3   400  GDD400     -0.4371
     23  O2A      120.5290   20.0420   18.2970 O.2   400  GDD400     -0.5170
     24  O3A      120.0520   20.2770   20.7880 O.3   400  GDD400     -0.2703
     25  PB       120.5520   19.5410   22.1390 P.3   400  GDD400      0.2208
     26  O2B      120.0700   18.1060   22.0940 O.2   400  GDD400     -0.5170
     27  O3B      122.0500   19.8060   22.2640 O.3   400  GDD400     -0.4371
     28  O1B      119.7310   20.2330   23.3680 O.3   400  GDD400     -0.2857
     29  C11      118.2940   20.1260   23.5190 C.3   400  GDD400      0.2742
     30  O51      117.8350   19.5310   24.7580 O.3   400  GDD400     -0.3254
     31  C51      117.9630   20.2680   25.9970 C.3   400  GDD400      0.1835
     32  C61      117.2990   19.4370   27.1350 C.3   400  GDD400      0.2142
     33  O6A      116.2100   20.0340   27.9110 O.3   400  GDD400     -0.2176
     34  C21      117.6810   21.5040   23.3200 C.3   400  GDD400      0.2409
     35  O21      116.2880   21.4050   23.0390 O.3   400  GDD400     -0.2149
     36  C31      117.9300   22.4010   24.5220 C.3   400  GDD400      0.2198
     37  O31      117.2510   23.6360   24.2410 O.3   400  GDD400     -0.2174
     38  C41      117.4950   21.7410   25.8440 C.3   400  GDD400      0.2144
     39  O41      118.0320   22.5150   26.9280 O.3   400  GDD400     -0.2176
@<TRIPOS>BOND
     1     1     2    1
     2     3     2    2
     3     3     7    2
     4     2     4    2
     5     8     7    2
     6     7     6    1
     7     4     5    2
     8     6     5    1
     9     6     9    2
    10    14    13    1
    11     5    11    1
    12     9    10    1
    13    11    10    1
    14    11    12    1
    15    12    13    1
    16    12    18    1
    17    13    15    1
    18    16    15    1
    19    18    17    1
    20    15    17    1
    21    17    19    1
    22    23    21    2
    23    19    20    1
    24    20    21    1
    25    21    22    1
    26    21    24    1
    27    24    25    1
    28    26    25    2
    29    25    27    1
    30    25    28    1
    31    35    34    1
    32    34    29    1
    33    34    36    1
    34    28    29    1
    35    29    30    1
    36    37    36    1
    37    36    38    1
    38    30    31    1
    39    38    31    1
    40    38    39    1
    41    31    32    1
    42    32    33    1
