@<TRIPOS>MOLECULE
2wvm_GDD_A_1.pdb
 39 42 0 0 0
SMALL
GASTEIGER

@<TRIPOS>ATOM
      1  N2       -26.1830    1.0920  -35.3130 N.pl3 400  GDD400     -0.0226
      2  C2       -25.8750    2.4520  -34.8030 C.1   400  GDD400      0.2531
      3  N1       -26.7520    3.4860  -34.9820 N.2   400  GDD400     -0.2485
      4  N3       -24.6950    2.6340  -34.1600 N.2   400  GDD400     -0.3074
      5  C4       -24.3710    3.8740  -33.6870 C.2   400  GDD400      0.2300
      6  C5       -25.2420    4.9410  -33.8590 C.2   400  GDD400      0.2182
      7  C6       -26.4530    4.7270  -34.5230 C.1   400  GDD400      0.2372
      8  O6       -27.3260    5.7550  -34.7040 O.2   400  GDD400     -0.2069
      9  N7       -24.6580    6.0170  -33.3010 N.2   400  GDD400     -0.2322
     10  C8       -23.4680    5.6340  -32.7860 C.3   400  GDD400      0.2246
     11  N9       -23.3050    4.3310  -33.0270 N.pl3 400  GDD400     -0.2354
     12  C1'      -22.1500    3.4830  -32.6880 C.3   400  GDD400      0.2293
     13  C2'      -20.8440    4.2720  -32.7740 C.3   400  GDD400      0.2310
     14  O2'      -20.1460    4.1020  -34.0270 O.3   400  GDD400     -0.2158
     15  C3'      -20.0900    3.7350  -31.5860 C.3   400  GDD400      0.2158
     16  O3'      -19.4950    2.4880  -31.9760 O.3   400  GDD400     -0.2175
     17  C4'      -21.2060    3.4440  -30.5910 C.3   400  GDD400      0.1799
     18  O4'      -22.2960    2.9740  -31.3600 O.3   400  GDD400     -0.3326
     19  C5'      -21.6710    4.7000  -29.8820 C.3   400  GDD400      0.1813
     20  O5'      -20.5260    5.1580  -29.2070 O.3   400  GDD400     -0.3112
     21  PA       -20.3240    6.7250  -29.1050 P.3   400  GDD400      0.2189
     22  O1A      -18.8130    6.9850  -29.0090 O.3   400  GDD400     -0.4371
     23  O2A      -21.2070    7.2920  -30.1590 O.2   400  GDD400     -0.5170
     24  O3A      -21.0830    6.9470  -27.7090 O.3   400  GDD400     -0.2703
     25  PB       -20.2210    7.4120  -26.4360 P.3   400  GDD400      0.2208
     26  O2B      -18.8480    6.7530  -26.5550 O.2   400  GDD400     -0.5170
     27  O3B      -20.3930    8.9280  -26.2480 O.3   400  GDD400     -0.4371
     28  O1B      -20.9660    6.6430  -25.2470 O.3   400  GDD400     -0.2857
     29  C11      -20.8210    5.2400  -25.2760 C.3   400  GDD400      0.2742
     30  O51      -20.2260    4.7320  -24.0740 O.3   400  GDD400     -0.3254
     31  C51      -20.9770    4.9360  -22.8720 C.3   400  GDD400      0.1835
     32  C61      -20.2680    4.2580  -21.7040 C.3   400  GDD400      0.2142
     33  O6A      -19.5230    3.1420  -22.1900 O.3   400  GDD400     -0.2176
     34  C21      -22.1700    4.6080  -25.5310 C.3   400  GDD400      0.2409
     35  O21      -21.8680    3.2250  -25.7070 O.3   400  GDD400     -0.2149
     36  C31      -23.0790    4.7620  -24.3230 C.3   400  GDD400      0.2198
     37  O31      -24.2210    3.9280  -24.5530 O.3   400  GDD400     -0.2174
     38  C41      -22.3750    4.3500  -23.0150 C.3   400  GDD400      0.2144
     39  O41      -23.1170    4.7510  -21.8570 O.3   400  GDD400     -0.2176
@<TRIPOS>BOND
     1     1     2    1
     2     3     2    2
     3     3     7    2
     4     2     4    2
     5     8     7    2
     6     7     6    1
     7     4     5    2
     8    14    13    1
     9     6     5    1
    10     6     9    2
    11     5    11    1
    12     9    10    1
    13    11    10    1
    14    11    12    1
    15    13    12    1
    16    13    15    1
    17    12    18    1
    18    16    15    1
    19    15    17    1
    20    18    17    1
    21    17    19    1
    22    23    21    2
    23    19    20    1
    24    20    21    1
    25    21    22    1
    26    21    24    1
    27    24    25    1
    28    26    25    2
    29    25    27    1
    30    25    28    1
    31    35    34    1
    32    34    29    1
    33    34    36    1
    34    29    28    1
    35    29    30    1
    36    37    36    1
    37    36    38    1
    38    30    31    1
    39    38    31    1
    40    38    39    1
    41    31    32    1
    42    33    32    1
