@<TRIPOS>MOLECULE
2wvp_420_A_1.pdb
 23 24 0 0 0
SMALL
GASTEIGER

@<TRIPOS>ATOM
      1  C1       -25.9900  -18.4430    2.7900 C.3   1284  4201284     0.0964
      2  C2       -25.0570  -17.3420    2.2840 C.2   1284  4201284     0.2419
      3  O3       -24.8180  -16.3100    2.9200 O.2   1284  4201284    -0.2733
      4  N4       -24.5090  -17.5480    1.0260 N.am  1284  4201284    -0.2038
      5  C5       -23.5430  -16.6250    0.4130 C.3   1284  4201284     0.1359
      6  C6       -24.1060  -15.2460    0.0130 C.3   1284  4201284     0.1388
      7  N7       -23.3860  -14.6170   -1.1380 N.3   1284  4201284    -0.0759
      8  S8       -23.5660  -12.9760   -1.5640 S.O2  1284  4201284     0.0769
      9  O10      -24.7270  -12.9140   -2.4390 O.2   1284  4201284    -0.1516
     10  O9       -22.2840  -12.4400   -1.9940 O.2   1284  4201284    -0.1516
     11  C11      -23.8690  -12.1790    0.0130 C.ar  1284  4201284     0.1236
     12  C12      -25.0890  -11.5060    0.2230 C.ar  1284  4201284     0.0200
     13  C13      -25.3410  -10.8860    1.4450 C.ar  1284  4201284     0.0014
     14  C14      -24.3800  -10.9510    2.4580 C.ar  1284  4201284     0.0013
     15  C15      -23.1340  -11.6150    2.2990 C.ar  1284  4201284     0.0146
     16  C16      -22.8690  -12.2460    1.0490 C.ar  1284  4201284     0.0199
     17  C17      -21.6220  -12.9140    0.8960 C.ar  1284  4201284     0.0014
     18  C18      -20.6700  -12.9630    1.9010 C.ar  1284  4201284     0.0013
     19  C19      -20.9380  -12.3470    3.1150 C.ar  1284  4201284     0.0145
     20  C20      -22.1520  -11.6660    3.3390 C.ar  1284  4201284     0.0479
     21  N21      -22.3130  -11.0760    4.5950 N.pl3 1284  4201284    -0.3041
     22  C23      -23.5370  -10.3550    4.9020 C.3   1284  4201284     0.1122
     23  C22      -21.2390  -11.1930    5.5700 C.3   1284  4201284     0.1122
@<TRIPOS>BOND
     1     9     8    2
     2    10     8    2
     3     8     7    1
     4     8    11    1
     5     7     6    1
     6     6     5    1
     7    11    12   ar
     8    11    16   ar
     9    12    13   ar
    10     5     4    1
    11    17    16   ar
    12    17    18   ar
    13     4     2   am
    14    16    15   ar
    15    13    14   ar
    16    18    19   ar
    17     2     1    1
    18     2     3    2
    19    15    14   ar
    20    15    20   ar
    21    19    20   ar
    22    20    21    1
    23    21    22    1
    24    21    23    1
