@<TRIPOS>MOLECULE
2wvp_C8E_A_1.pdb
 13 12 0 0 0
SMALL
GASTEIGER

@<TRIPOS>ATOM
      1  O9         0.1620    1.6310   15.8750 O.3   1285  C8E1285    -0.2176
      2  C10        0.1280    2.9270   15.3230 C.3   1285  C8E1285     0.2140
      3  C11       -0.4810    2.8650   13.9230 C.3   1285  C8E1285     0.1777
      4  O12        0.2360    1.9790   13.0700 O.3   1285  C8E1285    -0.3483
      5  C13       -0.4760    1.7540   11.8730 C.3   1285  C8E1285     0.1742
      6  C14        0.4580    1.2510   10.7930 C.3   1285  C8E1285     0.1742
      7  O15        0.2150   -0.1220   10.5790 O.3   1285  C8E1285    -0.3484
      8  C16       -0.0790   -0.3920    9.2380 C.3   1285  C8E1285     0.1742
      9  C17       -0.0350   -1.8890    9.0190 C.3   1285  C8E1285     0.1742
     10  O18        0.5480   -2.1170    7.7570 O.3   1285  C8E1285    -0.3483
     11  C19       -0.3920   -2.4190    6.7490 C.3   1285  C8E1285     0.1777
     12  C20        0.2910   -2.4290    5.3880 C.3   1285  C8E1285     0.2140
     13  O21        1.6930   -2.2890    5.5390 O.3   1285  C8E1285    -0.2176
@<TRIPOS>BOND
     1    12    13    1
     2    12    11    1
     3    11    10    1
     4    10     9    1
     5     9     8    1
     6     8     7    1
     7     7     6    1
     8     6     5    1
     9     5     4    1
    10     4     3    1
    11     3     2    1
    12     2     1    1
