@<TRIPOS>MOLECULE
2wvs_FUF_A_1.pdb
 10 10 0 0 0
SMALL
GASTEIGER

@<TRIPOS>ATOM
      1  C1         5.8710  -10.5430   87.4460 C.3   1449  FUF1449     0.1800
      2  C2         4.4280  -11.0280   87.1280 C.3   1449  FUF1449     0.2230
      3  C3         3.3320  -10.0570   87.5920 C.3   1449  FUF1449     0.2193
      4  C4         3.7880   -8.5940   87.5390 C.3   1449  FUF1449     0.2118
      5  C5         5.0100   -8.3660   88.4890 C.3   1449  FUF1449     0.1483
      6  C6         5.7050   -7.0030   88.3180 C.3   1449  FUF1449     0.0349
      7  F2         4.1910  -12.2870   87.6620 F     1449  FUF1449    -0.2317
      8  O3         2.1640  -10.2770   86.7800 O.3   1449  FUF1449    -0.2173
      9  O4         4.1200   -8.2540   86.1910 O.3   1449  FUF1449    -0.2177
     10  O5         6.0270   -9.4160   88.3840 O.3   1449  FUF1449    -0.3506
@<TRIPOS>BOND
     1     9     4    1
     2     8     3    1
     3     2     1    1
     4     2     3    1
     5     2     7    1
     6     1    10    1
     7     4     3    1
     8     4     5    1
     9     6     5    1
    10    10     5    1
