@<TRIPOS>MOLECULE
2wvt_FHN_A_1.pdb
 13 13 0 0 0
SMALL
GASTEIGER

@<TRIPOS>ATOM
      1  O2       -27.7290    0.9920   29.3090 O.3   1473  FHN1473    -0.2187
      2  C2       -27.0330    2.1630   28.8140 C.3   1473  FHN1473     0.2031
      3  C3       -25.6630    1.7410   28.2990 C.3   1473  FHN1473     0.2151
      4  O3       -24.9660    1.1290   29.3780 O.3   1473  FHN1473    -0.2176
      5  C4       -24.9190    2.9610   27.8180 C.3   1473  FHN1473     0.2031
      6  O4       -24.7170    3.8990   28.8960 O.3   1473  FHN1473    -0.2187
      7  C5       -25.7370    3.6090   26.7150 C.3   1473  FHN1473     0.1387
      8  C7       -25.0640    4.9000   26.2620 C.3   1473  FHN1473     0.2020
      9  O7       -25.8680    5.4510   25.2360 O.3   1473  FHN1473    -0.2188
     10  N        -27.1200    3.9780   27.1270 N.3   1473  FHN1473    -0.2102
     11  C1       -27.8450    2.8270   27.7290 C.3   1473  FHN1473     0.1387
     12  C6       -28.2960    1.8110   26.6530 C.3   1473  FHN1473     0.2020
     13  O6       -29.0250    2.5480   25.6680 O.3   1473  FHN1473    -0.2188
@<TRIPOS>BOND
     1     9     8    1
     2    13    12    1
     3     8     7    1
     4    12    11    1
     5     7    10    1
     6     7     5    1
     7    10    11    1
     8    11     2    1
     9     5     3    1
    10     5     6    1
    11     3     2    1
    12     3     4    1
    13     2     1    1
