@<TRIPOS>MOLECULE
2wvu_147_A_1.pdb
 20 21 0 0 0
SMALL
GASTEIGER

@<TRIPOS>ATOM
      1  C1        28.8660    6.3690   56.3680 C.3   2001  1472001     0.3266
      2  C2        29.8780    5.9550   55.2630 C.3   2001  1472001     0.2806
      3  O2        31.2290    6.3810   55.5570 O.3   2001  1472001    -0.2082
      4  C3        29.7910    4.4310   55.0420 C.2   2001  1472001     0.2197
      5  O3        30.7940    3.7560   54.8170 O.2   2001  1472001    -0.2904
      6  C4        28.4110    3.7600   54.9470 C.3   2001  1472001     0.2383
      7  O4        27.9720    3.9990   53.6270 O.3   2001  1472001    -0.2124
      8  C5        27.4110    4.4000   55.9430 C.3   2001  1472001     0.1565
      9  C6        25.9450    4.0880   55.5690 C.3   2001  1472001     0.0354
     10  O5        27.5270    5.8720   56.0570 O.3   2001  1472001    -0.3178
     11  O1'       29.2620    5.8620   57.6560 O.3   2001  1472001    -0.4502
     12  C1'       28.5530    6.2990   58.7340 C.ar  2001  1472001     0.1415
     13  C2'       28.0020    7.5870   58.7800 C.ar  2001  1472001     0.0387
     14  C3'       27.3020    7.9840   59.9190 C.ar  2001  1472001     0.0272
     15  C4'       27.1720    7.1020   60.9990 C.ar  2001  1472001     0.1431
     16  C5'       27.7300    5.8170   60.9470 C.ar  2001  1472001     0.0272
     17  C6'       28.4200    5.4170   59.8120 C.ar  2001  1472001     0.0387
     18  N1'       26.5030    7.4750   62.0930 N.pl3 2001  1472001     0.0577
     19  O2'       26.4490    6.5880   63.2090 O.2   2001  1472001    -0.1261
     20  O3'       25.8410    8.7590   62.1440 O.2   2001  1472001    -0.1261
@<TRIPOS>BOND
     1     7     6    1
     2     5     4    2
     3     6     4    1
     4     6     8    1
     5     4     2    1
     6     2     3    1
     7     2     1    1
     8     9     8    1
     9     8    10    1
    10    10     1    1
    11     1    11    1
    12    11    12    1
    13    12    13   ar
    14    12    17   ar
    15    13    14   ar
    16    17    16   ar
    17    14    15   ar
    18    16    15   ar
    19    15    18    1
    20    18    20    2
    21    18    19    2
