@<TRIPOS>MOLECULE
2wvz_KIF_A_1.pdb
 16 17 0 0 0
SMALL
GASTEIGER

@<TRIPOS>ATOM
      1  C4       -15.1620  -21.7940   47.1850 C.3   801  KIF801      0.2054
      2  O4       -16.3110  -22.4880   47.6020 O.3   801  KIF801     -0.2184
      3  C3       -15.3790  -20.2730   47.4290 C.3   801  KIF801      0.2177
      4  O3       -16.0680  -19.6680   46.3000 O.3   801  KIF801     -0.2175
      5  C2       -14.0380  -19.5430   47.7070 C.3   801  KIF801      0.2268
      6  O2       -14.1070  -18.1820   47.2900 O.3   801  KIF801     -0.2163
      7  C1       -12.8710  -20.2760   47.0480 C.3   801  KIF801      0.2260
      8  N9       -11.5840  -19.5460   47.3080 N.2   801  KIF801     -0.1772
      9  C8       -10.9190  -20.2010   48.2880 C.1   801  KIF801      0.2069
     10  O8        -9.8290  -19.8920   48.7910 O.2   801  KIF801     -0.2176
     11  C7       -11.6400  -21.3410   48.6720 C.2   801  KIF801      0.3335
     12  O7       -11.2800  -22.1100   49.5610 O.2   801  KIF801     -0.2568
     13  N        -12.8050  -21.4790   47.8830 N.am  801  KIF801     -0.2424
     14  C5       -13.9650  -22.3840   47.9640 C.3   801  KIF801      0.1439
     15  C6       -13.6040  -23.7940   47.5100 C.3   801  KIF801      0.2045
     16  O6       -13.1980  -23.6940   46.1550 O.3   801  KIF801     -0.2185
@<TRIPOS>BOND
     1    16    15    1
     2     4     3    1
     3     7     8    1
     4     7     5    1
     5     7    13    1
     6     1     3    1
     7     1     2    1
     8     1    14    1
     9     6     5    1
    10     8     9    2
    11     3     5    1
    12    15    14    1
    13    13    14    1
    14    13    11   am
    15     9    11    1
    16     9    10    2
    17    11    12    2
