@<TRIPOS>MOLECULE
2ww0_SWA_A_1.pdb
 12 13 0 0 0
SMALL
GASTEIGER

@<TRIPOS>ATOM
      1  C1        45.4520   21.7970  101.7070 C.3   801  SWA801      0.1691
      2  O1        46.2560   21.0420  102.5920 O.3   801  SWA801     -0.2216
      3  C3        46.3180   22.8660  101.0210 C.3   801  SWA801      0.1214
      4  N4        45.6960   23.4080   99.7660 N.3   801  SWA801     -0.2674
      5  C5        44.8190   22.5630   98.9280 C.3   801  SWA801      0.0724
      6  C6        43.9610   21.6330   99.7790 C.3   801  SWA801      0.0200
      7  C2        44.8410   20.8380  100.7140 C.3   801  SWA801      0.0358
      8  C9        45.1090   24.6990  100.1320 C.3   801  SWA801      0.1082
      9  C8        46.2820   25.2570  100.9330 C.3   801  SWA801      0.1994
     10  O13       45.8820   26.4490  101.6080 O.3   801  SWA801     -0.2189
     11  C7        46.4970   24.1120  101.9220 C.3   801  SWA801      0.2004
     12  O11       45.4540   24.1320  102.9010 O.3   801  SWA801     -0.2188
@<TRIPOS>BOND
     1     5     4    1
     2     5     6    1
     3     4     8    1
     4     4     3    1
     5     6     7    1
     6     8     9    1
     7     7     1    1
     8     9    10    1
     9     9    11    1
    10     3     1    1
    11     3    11    1
    12     1     2    1
    13    11    12    1
