@<TRIPOS>MOLECULE
2ww1_SMD_A_1.pdb
 24 25 0 0 0
SMALL
GASTEIGER

@<TRIPOS>ATOM
      1  O12       -2.9050   -1.9070    9.8240 O.3   801  SMD801     -0.2167
      2  C12       -4.3100   -1.7260    9.5730 C.3   801  SMD801      0.2219
      3  C13       -4.7090   -2.6860    8.4550 C.3   801  SMD801      0.2181
      4  O13       -3.7810   -2.4800    7.3690 O.3   801  SMD801     -0.2175
      5  C14       -4.6920   -4.1220    9.0070 C.3   801  SMD801      0.2143
      6  O14       -5.0960   -5.0620    8.0010 O.3   801  SMD801     -0.2176
      7  C15       -5.6670   -4.1710   10.1680 C.3   801  SMD801      0.1820
      8  C16       -5.7120   -5.5860   10.7390 C.3   801  SMD801      0.2142
      9  O16       -4.4580   -5.9190   11.3660 O.3   801  SMD801     -0.2176
     10  O15       -5.2940   -3.2550   11.2210 O.3   801  SMD801     -0.3398
     11  C11       -5.1160   -1.9200   10.8600 C.3   801  SMD801      0.1957
     12  S22       -6.7600   -1.2050   10.6170 S.3   801  SMD801     -0.1024
     13  C22       -7.2560   -0.8990   12.3460 C.3   801  SMD801      0.1391
     14  C21       -8.7760   -1.0050   12.4320 C.3   801  SMD801      0.2482
     15  O21       -8.9390   -1.0060   13.8000 O.3   801  SMD801     -0.3271
     16  C27      -10.2820   -1.5130   13.9950 C.3   801  SMD801      0.1769
     17  O25       -9.5880    0.1350   12.0750 O.3   801  SMD801     -0.3269
     18  C23       -6.7340    0.4360   12.9110 C.3   801  SMD801      0.1995
     19  O23       -5.3770    0.6900   12.4900 O.3   801  SMD801     -0.2192
     20  C24       -7.6610    1.5630   12.4400 C.3   801  SMD801      0.2127
     21  O24       -7.2260    2.7920   13.0130 O.3   801  SMD801     -0.2177
     22  C25       -9.1230    1.2080   12.8160 C.3   801  SMD801      0.1834
     23  C26       -9.9360    2.3330   12.2330 C.3   801  SMD801      0.2142
     24  O26      -11.2970    2.0000   12.4170 O.3   801  SMD801     -0.2176
@<TRIPOS>BOND
     1     4     3    1
     2     6     5    1
     3     3     5    1
     4     3     2    1
     5     5     7    1
     6     2     1    1
     7     2    11    1
     8     7     8    1
     9     7    10    1
    10    12    11    1
    11    12    13    1
    12     8     9    1
    13    11    10    1
    14    17    14    1
    15    17    22    1
    16    23    24    1
    17    23    22    1
    18    13    14    1
    19    13    18    1
    20    14    15    1
    21    20    22    1
    22    20    18    1
    23    20    21    1
    24    19    18    1
    25    15    16    1
