@<TRIPOS>MOLECULE
2ww2_SWA_B_1.pdb
 12 13 0 0 0
SMALL
GASTEIGER

@<TRIPOS>ATOM
      1  C1       -25.3520  -30.6910   88.4460 C.3   900  SWA900      0.1691
      2  O1       -25.7860  -31.8930   87.7980 O.3   900  SWA900     -0.2216
      3  C3       -26.1290  -29.5160   87.8660 C.3   900  SWA900      0.1214
      4  N4       -25.7080  -28.2800   88.5330 N.3   900  SWA900     -0.2674
      5  C5       -26.1110  -28.3050   89.9520 C.3   900  SWA900      0.0724
      6  C6       -25.3210  -29.4160   90.6620 C.3   900  SWA900      0.0200
      7  C2       -25.5510  -30.7750   89.9740 C.3   900  SWA900      0.0358
      8  C9       -26.3940  -27.2500   87.7290 C.3   900  SWA900      0.1082
      9  C8       -26.2730  -27.7790   86.2790 C.3   900  SWA900      0.1994
     10  O13      -25.3690  -26.9640   85.5080 O.3   900  SWA900     -0.2189
     11  C7       -25.7280  -29.2110   86.4290 C.3   900  SWA900      0.2004
     12  O11      -24.2960  -29.2270   86.3090 O.3   900  SWA900     -0.2188
@<TRIPOS>BOND
     1    10     9    1
     2     9    11    1
     3     9     8    1
     4    12    11    1
     5    11     3    1
     6     8     4    1
     7     2     1    1
     8     3     1    1
     9     3     4    1
    10     1     7    1
    11     4     5    1
    12     5     6    1
    13     7     6    1
