@<TRIPOS>MOLECULE
2ww3_SMD_A_1.pdb
 24 25 0 0 0
SMALL
GASTEIGER

@<TRIPOS>ATOM
      1  O12       -5.7810  -71.6750  153.1440 O.3   801  SMD801     -0.2167
      2  C12       -5.7650  -73.0340  153.6030 C.3   801  SMD801      0.2219
      3  C13       -6.7970  -73.2590  154.7090 C.3   801  SMD801      0.2181
      4  O13       -6.7250  -72.1910  155.6590 O.3   801  SMD801     -0.2175
      5  C14       -8.2040  -73.2870  154.1060 C.3   801  SMD801      0.2143
      6  O14       -9.1900  -73.5980  155.0750 O.3   801  SMD801     -0.2176
      7  C15       -8.2920  -74.3510  153.0270 C.3   801  SMD801      0.1820
      8  C16       -9.7180  -74.4110  152.4940 C.3   801  SMD801      0.2142
      9  O16      -10.0050  -73.2800  151.6560 O.3   801  SMD801     -0.2176
     10  O15       -7.4080  -73.9620  151.9760 O.3   801  SMD801     -0.3398
     11  C11       -6.0170  -73.8910  152.3580 C.3   801  SMD801      0.1957
     12  S22       -5.3270  -75.5160  152.5480 S.3   801  SMD801     -0.1024
     13  C22       -5.1940  -75.9460  150.8130 C.3   801  SMD801      0.1391
     14  C21       -5.4080  -77.4390  150.5720 C.3   801  SMD801      0.2482
     15  O21       -5.6310  -77.6640  149.1650 O.3   801  SMD801     -0.3271
     16  C27       -5.8710  -79.0340  148.8310 C.3   801  SMD801      0.1769
     17  O25       -4.2820  -78.1820  151.0480 O.3   801  SMD801     -0.3269
     18  C23       -3.8710  -75.4990  150.1940 C.3   801  SMD801      0.1995
     19  O23       -3.6260  -74.1440  150.5410 O.3   801  SMD801     -0.2192
     20  C24       -2.7240  -76.3880  150.6830 C.3   801  SMD801      0.2127
     21  O24       -1.4750  -76.0890  150.0430 O.3   801  SMD801     -0.2177
     22  C25       -3.0460  -77.8470  150.4080 C.3   801  SMD801      0.1834
     23  C26       -1.9210  -78.7150  150.9680 C.3   801  SMD801      0.2142
     24  O26       -2.4260  -80.0280  151.2520 O.3   801  SMD801     -0.2176
@<TRIPOS>BOND
     1    16    15    1
     2    15    14    1
     3    21    20    1
     4    18    19    1
     5    18    20    1
     6    18    13    1
     7    22    20    1
     8    22    23    1
     9    22    17    1
    10    14    13    1
    11    14    17    1
    12    13    12    1
    13    23    24    1
    14     9     8    1
    15    10    11    1
    16    10     7    1
    17    11    12    1
    18    11     2    1
    19     8     7    1
    20     7     5    1
    21     1     2    1
    22     2     3    1
    23     5     3    1
    24     5     6    1
    25     3     4    1
