@<TRIPOS>MOLECULE
2ww4_ADP_A_1.pdb
 27 29 0 0 0
SMALL
GASTEIGER

@<TRIPOS>ATOM
      1  PB        23.0770   39.7730    0.2910 P.3   1284  ADP1284     0.5373
      2  O1B       22.2020   40.9320    0.7130 O.3   1284  ADP1284    -0.1143
      3  O2B       22.6940   38.4460    0.9190 O.3   1284  ADP1284    -0.1143
      4  O3B       24.5610   40.0920    0.3330 O.2   1284  ADP1284    -0.2221
      5  PA        23.9570   39.1980   -2.2810 P.3   1284  ADP1284     0.2231
      6  O1A       24.8070   40.4470   -2.3170 O.3   1284  ADP1284    -0.4370
      7  O2A       23.4120   38.6500   -3.5800 O.2   1284  ADP1284    -0.5169
      8  O3A       22.7540   39.5430   -1.2740 O.3   1284  ADP1284    -0.2261
      9  O5'       24.7200   38.0060   -1.4940 O.3   1284  ADP1284    -0.3111
     10  C5'       25.1300   36.8100   -2.1620 C.3   1284  ADP1284     0.1813
     11  C4'       25.1290   35.6040   -1.2190 C.3   1284  ADP1284     0.1821
     12  O4'       23.8070   35.2080   -0.8120 O.3   1284  ADP1284    -0.3135
     13  C3'       25.7400   34.4070   -1.9260 C.3   1284  ADP1284     0.2184
     14  O3'       26.6040   33.7010   -1.0300 O.3   1284  ADP1284    -0.2174
     15  C2'       24.5630   33.5440   -2.3240 C.3   1284  ADP1284     0.2570
     16  O2'       24.9240   32.1590   -2.3240 O.3   1284  ADP1284    -0.2130
     17  C1'       23.5090   33.8810   -1.2760 C.3   1284  ADP1284     0.3186
     18  N9        22.1170   33.8350   -1.7980 N.pl3 1284  ADP1284    -0.1439
     19  C8        21.1790   32.9280   -1.4540 C.3   1284  ADP1284     0.3377
     20  N7        20.0060   33.1720   -2.1000 N.2   1284  ADP1284    -0.2095
     21  C5        20.1790   34.2600   -2.8670 C.2   1284  ADP1284     0.2526
     22  C6        19.3470   35.0590   -3.8040 C.2   1284  ADP1284     0.4393
     23  N6        18.0530   34.7470   -4.0650 N.pl3 1284  ADP1284     0.2180
     24  N1        19.9330   36.1210   -4.3990 N.2   1284  ADP1284     0.0021
     25  C2        21.2190   36.4590   -4.1680 C.3   1284  ADP1284     0.5254
     26  N3        22.0260   35.7810   -3.3310 N.2   1284  ADP1284    -0.0055
     27  C4        21.5740   34.6950   -2.6620 C.2   1284  ADP1284     0.3518
@<TRIPOS>BOND
     1    24    25    1
     2    24    22    2
     3    25    26    1
     4    23    22    1
     5    22    21    1
     6     7     5    2
     7    26    27    2
     8    21    27    1
     9    21    20    2
    10    27    18    1
    11    16    15    1
    12    15    13    1
    13    15    17    1
    14     6     5    1
    15     5     9    1
    16     5     8    1
    17    10     9    1
    18    10    11    1
    19    20    19    1
    20    13    11    1
    21    13    14    1
    22    18    19    1
    23    18    17    1
    24    17    12    1
    25     8     1    1
    26    11    12    1
    27     1     4    2
    28     1     2    1
    29     1     3    1
