@<TRIPOS>MOLECULE
2wwd_MU2_A_1.pdb
 33 33 0 0 0
SMALL
GASTEIGER

@<TRIPOS>ATOM
      1  C1        17.7800   13.3520   14.5540 C.3   470  MU2470      0.2916
      2  O1        19.1450   13.1550   14.9410 O.3   470  MU2470     -0.1879
      3  C2        16.9720   14.1250   15.6100 C.3   470  MU2470      0.1839
      4  N2        17.7200   15.3170   16.0150 N.am  470  MU2470     -0.1993
      5  C7        17.1890   16.5330   15.8500 C.2   470  MU2470      0.2420
      6  O7        16.0920   16.7010   15.3540 O.2   470  MU2470     -0.2733
      7  C8        18.0190   17.6950   16.3030 C.3   470  MU2470      0.0964
      8  C3        16.7310   13.3100   16.8820 C.3   470  MU2470      0.1734
      9  O3        15.8400   14.0590   17.7220 O.3   470  MU2470     -0.3449
     10  C4        16.1440   11.9350   16.5420 C.3   470  MU2470      0.2103
     11  O4        16.0730   11.1540   17.7380 O.3   470  MU2470     -0.2178
     12  C5        16.9740   11.2330   15.4550 C.3   470  MU2470      0.1834
     13  O5        17.1480   12.0890   14.3110 O.3   470  MU2470     -0.3242
     14  C6        16.3060    9.9500   14.9680 C.3   470  MU2470      0.2142
     15  O6        17.2780    9.0830   14.3770 O.3   470  MU2470     -0.2176
     16  C18       16.1370   14.0960   19.1210 C.3   470  MU2470      0.1926
     17  C20       14.9420   14.7620   19.7960 C.3   470  MU2470      0.0421
     18  C19       17.4000   14.8660   19.3840 C.2   470  MU2470      0.2689
     19  O18       17.4290   16.0800   19.2890 O.2   470  MU2470     -0.2707
     20  N4        18.4670   14.1410   19.7140 N.am  470  MU2470     -0.1957
     21  C21       19.7720   14.7380   19.9860 C.3   470  MU2470      0.1729
     22  C23       20.5840   13.7600   20.8340 C.3   470  MU2470      0.0334
     23  C22       20.5080   15.1020   18.7140 C.2   470  MU2470      0.2617
     24  O19       20.2010   14.5640   17.6580 O.2   470  MU2470     -0.2715
     25  N5        21.4800   16.0230   18.7980 N.am  470  MU2470     -0.1941
     26  C24       22.2790   16.4500   17.6470 C.3   470  MU2470      0.1982
     27  C25       23.5570   17.0240   18.2550 C.3   470  MU2470      0.0415
     28  C26       24.6870   15.9960   18.2710 C.3   470  MU2470      0.0746
     29  C27       26.0130   16.6910   18.0470 C.2   470  MU2470      0.2075
     30  O21       26.5320   17.3600   18.9300 O.2   470  MU2470     -0.2883
     31  C28       21.6210   17.4880   16.7770 C.2   470  MU2470      0.3842
     32  O22       21.4620   17.2810   15.5700 O.co2 470  MU2470     -0.2437
     33  O23       21.2520   18.5680   17.3390 O.co2 470  MU2470     -0.2437
@<TRIPOS>BOND
     1    13     1    1
     2    13    12    1
     3    15    14    1
     4     1     2    1
     5     1     3    1
     6    14    12    1
     7     6     5    2
     8    12    10    1
     9    32    31   ar
    10     3     4    1
    11     3     8    1
    12     5     4   am
    13     5     7    1
    14    10     8    1
    15    10    11    1
    16    31    33   ar
    17    31    26    1
    18     8     9    1
    19    26    27    1
    20    26    25    1
    21    24    23    2
    22     9    16    1
    23    29    28    1
    24    29    30    2
    25    27    28    1
    26    23    25   am
    27    23    21    1
    28    16    18    1
    29    16    17    1
    30    19    18    2
    31    18    20   am
    32    20    21    1
    33    21    22    1
