@<TRIPOS>MOLECULE
2wwf_ADP_A_1.pdb
 27 29 0 0 0
SMALL
GASTEIGER

@<TRIPOS>ATOM
      1  PB        15.7230  -13.4120  -12.6530 P.3   212  ADP212      0.5373
      2  O1B       15.0230  -12.4870  -13.5390 O.2   212  ADP212     -0.2221
      3  O2B       15.2120  -14.8410  -12.6100 O.3   212  ADP212     -0.1143
      4  O3B       15.9850  -12.8750  -11.2990 O.3   212  ADP212     -0.1143
      5  PA        17.9200  -12.7460  -14.4660 P.3   212  ADP212      0.2231
      6  O1A       17.4390  -13.0350  -15.8330 O.2   212  ADP212     -0.5169
      7  O2A       18.0500  -11.3130  -14.0510 O.3   212  ADP212     -0.4370
      8  O3A       17.2420  -13.6160  -13.2840 O.3   212  ADP212     -0.2261
      9  O5'       19.4040  -13.3960  -14.3360 O.3   212  ADP212     -0.3111
     10  C5'       20.2150  -13.3160  -13.1360 C.3   212  ADP212      0.1813
     11  C4'       21.7160  -13.2260  -13.5590 C.3   212  ADP212      0.1821
     12  O4'       22.0870  -14.4370  -14.2300 O.3   212  ADP212     -0.3135
     13  C3'       21.9610  -12.1060  -14.5490 C.3   212  ADP212      0.2184
     14  O3'       23.2300  -11.5620  -14.2660 O.3   212  ADP212     -0.2174
     15  C2'       21.9440  -12.8160  -15.8940 C.3   212  ADP212      0.2570
     16  O2'       22.7280  -12.1900  -16.8770 O.3   212  ADP212     -0.2130
     17  C1'       22.5400  -14.1510  -15.5690 C.3   212  ADP212      0.3186
     18  N9        21.9800  -15.2910  -16.2940 N.pl3 212  ADP212     -0.1439
     19  C8        20.6730  -15.5440  -16.6080 C.3   212  ADP212      0.3377
     20  N7        20.5420  -16.7580  -17.2410 N.2   212  ADP212     -0.2095
     21  C5        21.8050  -17.2810  -17.3230 C.2   212  ADP212      0.2526
     22  C6        22.3730  -18.5160  -17.8620 C.2   212  ADP212      0.4393
     23  N6        21.5040  -19.4300  -18.3630 N.pl3 212  ADP212      0.2180
     24  N1        23.7160  -18.7030  -17.7280 N.2   212  ADP212      0.0021
     25  C2        24.5230  -17.7790  -17.1620 C.3   212  ADP212      0.5254
     26  N3        24.0630  -16.6130  -16.6800 N.2   212  ADP212     -0.0055
     27  C4        22.7340  -16.3300  -16.7110 C.2   212  ADP212      0.3518
@<TRIPOS>BOND
     1    23    22    1
     2    22    24    2
     3    22    21    1
     4    24    25    1
     5    21    20    2
     6    21    27    1
     7    20    19    1
     8    25    26    1
     9    16    15    1
    10    27    26    2
    11    27    18    1
    12    19    18    1
    13    18    17    1
    14    15    17    1
    15    15    13    1
    16     6     5    2
    17    17    12    1
    18    13    14    1
    19    13    11    1
    20     5     9    1
    21     5     7    1
    22     5     8    1
    23     9    10    1
    24    12    11    1
    25    11    10    1
    26     2     1    2
    27     8     1    1
    28     1     3    1
    29     1     4    1
