@<TRIPOS>MOLECULE
2wwf_TMP_A_1.pdb
 21 22 0 0 0
SMALL
GASTEIGER

@<TRIPOS>ATOM
      1  P         12.2520  -10.5410   -8.3980 P.3   211  TMP211      0.5327
      2  O1P       11.2910  -11.2120   -9.1360 O.2   211  TMP211     -0.2224
      3  O2P       13.0540  -11.6080   -7.8380 O.3   211  TMP211     -0.1145
      4  O3P       13.2390   -9.6230   -8.6760 O.3   211  TMP211     -0.1145
      5  O5'       11.7810  -10.2280   -6.7880 O.3   211  TMP211     -0.2675
      6  C5'       10.5550  -10.5830   -6.3140 C.3   211  TMP211      0.1858
      7  C4'       10.7120  -11.2620   -4.9650 C.3   211  TMP211      0.1774
      8  O4'        9.3240  -11.3550   -4.5280 O.3   211  TMP211     -0.3339
      9  C3'       11.1230  -12.7140   -5.2660 C.3   211  TMP211      0.1857
     10  O3'       11.9240  -13.2090   -4.1420 O.3   211  TMP211     -0.2203
     11  C2'        9.7970  -13.5200   -5.3730 C.3   211  TMP211      0.0874
     12  C1'        8.9620  -12.7540   -4.3210 C.3   211  TMP211      0.2090
     13  N1         7.5010  -12.7770   -4.6050 N.am  211  TMP211     -0.1794
     14  C2         6.6090  -13.1850   -3.6100 C.1   211  TMP211      0.2844
     15  O2         6.9910  -13.5340   -2.4830 O.2   211  TMP211     -0.1918
     16  N3         5.2140  -13.2390   -3.8610 N.2   211  TMP211     -0.2455
     17  C4         4.7450  -12.8700   -5.1290 C.1   211  TMP211      0.2134
     18  O4         3.5280  -12.9240   -5.2710 O.2   211  TMP211     -0.2088
     19  C5         5.6230  -12.4700   -6.1330 C.2   211  TMP211      0.0891
     20  C5M        5.0950  -12.0070   -7.5780 C.3   211  TMP211      0.0462
     21  C6         7.0010  -12.4230   -5.8840 C.2   211  TMP211      0.0877
@<TRIPOS>BOND
     1     2     1    2
     2     4     1    1
     3     1     3    1
     4     1     5    1
     5    20    19    1
     6     5     6    1
     7     6     7    1
     8    19    21    2
     9    19    17    1
    10    21    13    1
    11    11     9    1
    12    11    12    1
    13    18    17    2
    14     9     7    1
    15     9    10    1
    16    17    16    2
    17     7     8    1
    18    13    12    1
    19    13    14   am
    20     8    12    1
    21    16    14    2
    22    14    15    2
