@<TRIPOS>MOLECULE
2wwi_ADP_A_1.pdb
 27 29 0 0 0
SMALL
GASTEIGER

@<TRIPOS>ATOM
      1  PB        15.7000  -13.6720  -12.7890 P.3   212  ADP212      0.5373
      2  O1B       15.0600  -12.6540  -13.6960 O.2   212  ADP212     -0.2221
      3  O2B       15.0560  -15.0300  -12.8370 O.3   212  ADP212     -0.1143
      4  O3B       15.9520  -13.1500  -11.4060 O.3   212  ADP212     -0.1143
      5  PA        17.9000  -12.9550  -14.5000 P.3   212  ADP212      0.2231
      6  O1A       17.2160  -13.2470  -15.8160 O.2   212  ADP212     -0.5169
      7  O2A       18.0150  -11.5200  -14.0620 O.3   212  ADP212     -0.4370
      8  O3A       17.2100  -13.8740  -13.3450 O.3   212  ADP212     -0.2261
      9  O5'       19.4080  -13.5090  -14.4720 O.3   212  ADP212     -0.3111
     10  C5'       20.1750  -13.4040  -13.2620 C.3   212  ADP212      0.1813
     11  C4'       21.6570  -13.1960  -13.5590 C.3   212  ADP212      0.1821
     12  O4'       22.1720  -14.4380  -14.0100 O.3   212  ADP212     -0.3135
     13  C3'       21.8800  -12.1880  -14.6900 C.3   212  ADP212      0.2184
     14  O3'       23.0650  -11.3890  -14.4930 O.3   212  ADP212     -0.2174
     15  C2'       22.0590  -13.0290  -15.9310 C.3   212  ADP212      0.2570
     16  O2'       23.0240  -12.3970  -16.7690 O.3   212  ADP212     -0.2130
     17  C1'       22.5840  -14.3450  -15.3790 C.3   212  ADP212      0.3186
     18  N9        22.0700  -15.5150  -16.1260 N.pl3 212  ADP212     -0.1439
     19  C8        20.7840  -15.7470  -16.4230 C.3   212  ADP212      0.3377
     20  N7        20.6500  -16.9030  -17.1150 N.2   212  ADP212     -0.2095
     21  C5        21.8660  -17.4330  -17.2640 C.2   212  ADP212      0.2526
     22  C6        22.4110  -18.6550  -17.8900 C.2   212  ADP212      0.4393
     23  N6        21.5590  -19.5250  -18.4960 N.pl3 212  ADP212      0.2180
     24  N1        23.7630  -18.8460  -17.8310 N.2   212  ADP212      0.0021
     25  C2        24.5930  -17.9680  -17.2220 C.3   212  ADP212      0.5254
     26  N3        24.1530  -16.8390  -16.6310 N.2   212  ADP212     -0.0055
     27  C4        22.8170  -16.5210  -16.6130 C.2   212  ADP212      0.3518
@<TRIPOS>BOND
     1    23    22    1
     2    22    24    2
     3    22    21    1
     4    24    25    1
     5    21    20    2
     6    21    27    1
     7    25    26    1
     8    20    19    1
     9    16    15    1
    10    26    27    2
    11    27    18    1
    12    19    18    1
    13    18    17    1
    14    15    17    1
    15    15    13    1
    16     6     5    2
    17    17    12    1
    18    13    14    1
    19    13    11    1
    20     5     9    1
    21     5     7    1
    22     5     8    1
    23     9    10    1
    24    12    11    1
    25     2     1    2
    26    11    10    1
    27     8     1    1
    28     3     1    1
    29     1     4    1
