@<TRIPOS>MOLECULE
2wwi_ATM_A_1.pdb
 23 24 0 0 0
SMALL
GASTEIGER

@<TRIPOS>ATOM
      1  P         12.0330  -10.3750   -8.4100 P.3   211  ATM211      0.5327
      2  OP1       13.1890  -11.3210   -8.3480 O.3   211  ATM211     -0.1145
      3  OP2       10.8130  -10.9550   -9.2650 O.2   211  ATM211     -0.2224
      4  OP3       12.3850   -9.0540   -9.1490 O.3   211  ATM211     -0.1145
      5  O5'       11.4490   -9.9850   -6.9730 O.3   211  ATM211     -0.2676
      6  C5'       10.3370  -10.6950   -6.4650 C.3   211  ATM211      0.1853
      7  C4'       10.6180  -11.3260   -5.1360 C.3   211  ATM211      0.1724
      8  O4'        9.3080  -11.4100   -4.5930 O.3   211  ATM211     -0.3345
      9  C3'       11.0620  -12.7580   -5.3570 C.3   211  ATM211      0.1731
     10  N3'       12.0450  -13.1800   -4.3310 N.2   211  ATM211     -0.0969
     11  N4'       12.8200  -12.4310   -3.9310 N.2   211  ATM211     -0.1663
     12  N5'       13.6270  -11.7720   -3.4520 N.2   211  ATM211      0.0678
     13  C2'        9.7840  -13.6000   -5.1860 C.3   211  ATM211      0.0819
     14  C1'        8.9350  -12.7700   -4.2790 C.3   211  ATM211      0.2085
     15  N1         7.4870  -12.7590   -4.5710 N.am  211  ATM211     -0.1794
     16  C2         6.5400  -13.1840   -3.6110 C.1   211  ATM211      0.2844
     17  O2         6.8960  -13.5750   -2.5010 O.2   211  ATM211     -0.1918
     18  N3         5.2180  -13.1560   -3.8750 N.2   211  ATM211     -0.2455
     19  C4         4.7860  -12.7200   -5.0630 C.1   211  ATM211      0.2134
     20  O4         3.4490  -12.7080   -5.2820 O.2   211  ATM211     -0.2088
     21  C5         5.6830  -12.2830   -6.0230 C.2   211  ATM211      0.0891
     22  C5A        5.2040  -11.7830   -7.3740 C.3   211  ATM211      0.0462
     23  C6         7.0350  -12.2910   -5.7830 C.2   211  ATM211      0.0877
@<TRIPOS>BOND
     1     3     1    2
     2     4     1    1
     3     1     2    1
     4     1     5    1
     5    22    21    1
     6     5     6    1
     7     6     7    1
     8    21    23    2
     9    21    19    1
    10    23    15    1
    11     9    13    1
    12     9     7    1
    13     9    10    1
    14    20    19    2
    15    13    14    1
    16     7     8    1
    17    19    18    2
    18     8    14    1
    19    15    14    1
    20    15    16   am
    21    10    11    2
    22    11    12    2
    23    18    16    2
    24    16    17    2
