@<TRIPOS>MOLECULE
2wwj_Y28_A_1.pdb
 25 26 0 0 0
SMALL
GASTEIGER

@<TRIPOS>ATOM
      1  CAD      -19.7810  -18.4080  -18.9070 C.ar  1354  Y281354    -0.0007
      2  CAF      -19.7600  -17.0120  -18.7460 C.ar  1354  Y281354    -0.0002
      3  CAH      -20.5210  -16.3680  -17.7610 C.ar  1354  Y281354    -0.0000
      4  CAG      -21.3320  -17.1330  -16.9250 C.ar  1354  Y281354    -0.0002
      5  CAE      -21.3590  -18.5310  -17.0890 C.ar  1354  Y281354    -0.0007
      6  CAB      -20.5840  -19.1790  -18.0700 C.ar  1354  Y281354     0.0212
      7  CAC      -20.6340  -20.5740  -18.2190 C.3   1354  Y281354     0.2320
      8  OH       -21.9460  -21.2140  -18.1430 O.3   1354  Y281354    -0.4706
      9  CZ       -22.7590  -20.9480  -19.2460 C.ar  1354  Y281354     0.1390
     10  CE2      -22.2180  -20.6430  -20.4970 C.ar  1354  Y281354     0.0366
     11  CD2      -23.0580  -20.3930  -21.5970 C.ar  1354  Y281354    -0.0011
     12  CE1      -24.1600  -20.9890  -19.1520 C.ar  1354  Y281354     0.0366
     13  CD1      -25.0040  -20.7490  -20.2520 C.ar  1354  Y281354    -0.0011
     14  CG       -24.4550  -20.4460  -21.5000 C.ar  1354  Y281354    -0.0197
     15  CB       -25.3590  -20.1970  -22.7460 C.3   1354  Y281354     0.0596
     16  CA       -25.6550  -21.5450  -23.5030 C.3   1354  Y281354     0.2026
     17  C        -24.6600  -21.8030  -24.6230 C.2   1354  Y281354     0.3846
     18  OXT      -23.4800  -22.0650  -24.2950 O.co2 1354  Y281354    -0.2437
     19  O        -25.1090  -21.7860  -25.7900 O.co2 1354  Y281354    -0.2437
     20  N        -26.9730  -21.4360  -24.0960 N.am  1354  Y281354    -0.1858
     21  CAR      -28.0400  -21.4240  -23.3140 C.2   1354  Y281354     0.3454
     22  OAW      -27.9430  -21.5990  -22.0980 O.2   1354  Y281354    -0.2611
     23  CAS      -29.4420  -21.1610  -23.9150 C.2   1354  Y281354     0.4419
     24  OAY      -29.5660  -21.0060  -25.1690 O.co2 1354  Y281354    -0.2354
     25  OAX      -30.3870  -21.1120  -23.0800 O.co2 1354  Y281354    -0.2354
@<TRIPOS>BOND
     1    19    17   ar
     2    24    23   ar
     3    17    18   ar
     4    17    16    1
     5    20    16    1
     6    20    21   am
     7    23    21    1
     8    23    25   ar
     9    16    15    1
    10    21    22    2
    11    15    14    1
    12    11    14   ar
    13    11    10   ar
    14    14    13   ar
    15    10     9   ar
    16    13    12   ar
    17     9    12   ar
    18     9     8    1
    19     1     2   ar
    20     1     6   ar
    21     2     3   ar
    22     7     8    1
    23     7     6    1
    24     6     5   ar
    25     3     4   ar
    26     5     4   ar
