@<TRIPOS>MOLECULE
2wwu_BGC_A_1.pdb
 12 12 0 0 0
SMALL
GASTEIGER

@<TRIPOS>ATOM
      1  C2        58.8440   59.6980   23.8640 C.3   1492  BGC1492     0.2434
      2  C3        57.7130   58.7650   24.3010 C.3   1492  BGC1492     0.2199
      3  C4        58.0310   57.2980   24.0150 C.3   1492  BGC1492     0.2144
      4  C5        59.3970   56.8760   24.5810 C.3   1492  BGC1492     0.1836
      5  C6        59.9760   55.6470   23.8690 C.3   1492  BGC1492     0.2142
      6  C1        60.1220   58.9260   23.5440 C.3   1492  BGC1492     0.3024
      7  O1        60.0500   58.3830   22.2370 O.3   1492  BGC1492    -0.1869
      8  O2        59.1180   60.6490   24.8750 O.3   1492  BGC1492    -0.2148
      9  O3        56.5280   59.1130   23.6170 O.3   1492  BGC1492    -0.2174
     10  O4        56.9940   56.4990   24.5490 O.3   1492  BGC1492    -0.2176
     11  O5        60.3500   57.9330   24.5320 O.3   1492  BGC1492    -0.3236
     12  O6        59.8400   54.4770   24.6470 O.3   1492  BGC1492    -0.2176
@<TRIPOS>BOND
     1     7     6    1
     2     6     1    1
     3     6    11    1
     4     9     2    1
     5     1     2    1
     6     1     8    1
     7     5     4    1
     8     5    12    1
     9     3     2    1
    10     3    10    1
    11     3     4    1
    12    11     4    1
