@<TRIPOS>MOLECULE
2www_GDP_A_1.pdb
 28 30 0 0 0
SMALL
GASTEIGER

@<TRIPOS>ATOM
      1  PB        28.9170   58.6020   97.0750 P.3   600  GDP600      0.5373
      2  O1B       27.7300   59.4960   97.2830 O.3   600  GDP600     -0.1143
      3  O2B       30.1220   59.1670   97.7910 O.3   600  GDP600     -0.1143
      4  O3B       29.3290   58.5540   95.6150 O.2   600  GDP600     -0.2221
      5  O3A       28.5990   57.1440   97.6690 O.3   600  GDP600     -0.2261
      6  PA        27.1550   56.4710   97.8740 P.3   600  GDP600      0.2231
      7  O1A       26.4420   56.9830   99.0960 O.3   600  GDP600     -0.4370
      8  O2A       26.2230   56.5950   96.7030 O.2   600  GDP600     -0.5169
      9  O5'       27.6130   54.9540   98.1300 O.3   600  GDP600     -0.3111
     10  C5'       28.7130   54.3140   97.4590 C.3   600  GDP600      0.1813
     11  C4'       28.5450   52.7870   97.5020 C.3   600  GDP600      0.1799
     12  O4'       28.9060   52.3420   98.8250 O.3   600  GDP600     -0.3326
     13  C3'       27.0740   52.3400   97.2550 C.3   600  GDP600      0.2158
     14  O3'       26.9510   51.0640   96.5750 O.3   600  GDP600     -0.2175
     15  C2'       26.5590   52.2120   98.6730 C.3   600  GDP600      0.2310
     16  O2'       25.4280   51.3700   98.7940 O.3   600  GDP600     -0.2158
     17  C1'       27.7600   51.7240   99.4650 C.3   600  GDP600      0.2293
     18  N9        27.6140   52.1700  100.8800 N.pl3 600  GDP600     -0.2354
     19  C8        27.2890   53.4080  101.3030 C.3   600  GDP600      0.2246
     20  N7        27.2950   53.4910  102.6560 N.2   600  GDP600     -0.2322
     21  C5        27.6750   52.2960  103.1270 C.2   600  GDP600      0.2182
     22  C6        27.9040   51.6990  104.4700 C.1   600  GDP600      0.2372
     23  O6        27.7390   52.3560  105.5240 O.2   600  GDP600     -0.2069
     24  N1        28.2470   50.4080  104.5120 N.2   600  GDP600     -0.2485
     25  C2        28.4870   49.6990  103.3930 C.1   600  GDP600      0.2531
     26  N2        28.9230   48.4320  103.5110 N.pl3 600  GDP600     -0.0226
     27  N3        28.3380   50.1950  102.1370 N.2   600  GDP600     -0.3074
     28  C4        27.9000   51.4450  101.9480 C.2   600  GDP600      0.2300
@<TRIPOS>BOND
     1     4     1    2
     2    14    13    1
     3     8     6    2
     4     1     2    1
     5     1     5    1
     6     1     3    1
     7    13    11    1
     8    13    15    1
     9    10    11    1
    10    10     9    1
    11    11    12    1
    12     5     6    1
    13     6     9    1
    14     6     7    1
    15    15    16    1
    16    15    17    1
    17    12    17    1
    18    17    18    1
    19    18    19    1
    20    18    28    1
    21    19    20    1
    22    28    27    2
    23    28    21    1
    24    27    25    2
    25    20    21    2
    26    21    22    1
    27    25    26    1
    28    25    24    2
    29    22    24    2
    30    22    23    2
