@<TRIPOS>MOLECULE
2wwy_NUC_R_1.pdb
 48 53 0 0 0
SMALL
GASTEIGER

@<TRIPOS>ATOM
      1  P        -13.5100   19.1400   18.8860 P.3     2  DG2         0.3942
      2  OP1      -13.2070   17.7660   18.4200 O.3     2  DG2        -0.1425
      3  OP2      -12.9030   19.6360   20.1420 O.3     2  DG2        -0.1425
      4  O5'      -13.1750   20.2070   17.7350 O.3     2  DG2        -0.2926
      5  C5'      -14.1090   20.4980   16.6800 C.3     2  DG2         0.1828
      6  C4'      -14.3260   21.9920   16.5220 C.3     2  DG2         0.1745
      7  O4'      -15.7320   22.2580   16.7470 O.3     2  DG2        -0.3348
      8  C3'      -13.6200   22.8200   17.5830 C.3     2  DG2         0.1555
      9  O3'      -13.5670   24.2090   17.2670 O.3     2  DG2        -0.3139
     10  C2'      -14.5580   22.5840   18.7570 C.3     2  DG2         0.0836
     11  C1'      -15.9060   22.7770   18.0620 C.3     2  DG2         0.1980
     12  N9       -17.0420   22.1590   18.7770 N.pl3   2  DG2        -0.2374
     13  C8       -17.4720   20.8500   18.7080 C.3     2  DG2         0.2245
     14  N7       -18.5060   20.5920   19.4640 N.2     2  DG2        -0.2322
     15  C5       -18.7900   21.8050   20.0850 C.2     2  DG2         0.2182
     16  C6       -19.8090   22.1450   21.0170 C.1     2  DG2         0.2372
     17  O6       -20.6930   21.4160   21.4980 O.2     2  DG2        -0.2069
     18  N1       -19.7480   23.4870   21.3980 N.2     2  DG2        -0.2485
     19  C2       -18.8210   24.3930   20.9410 C.1     2  DG2         0.2531
     20  N2       -18.9240   25.6430   21.4290 N.pl3   2  DG2        -0.0226
     21  N3       -17.8620   24.0870   20.0660 N.2     2  DG2        -0.3074
     22  C4       -17.9000   22.7800   19.6770 C.2     2  DG2         0.2299
     23  P        -12.8090   25.1780   18.2970 P.3     3  DG3         0.2141
     24  OP1      -12.2930   24.3380   19.4000 O.3     3  DG3        -0.4373
     25  OP2      -13.6750   26.3420   18.5940 O.2     3  DG3        -0.5172
     26  O5'      -11.5780   25.6900   17.4060 O.3     3  DG3        -0.3114
     27  C5'      -10.3030   26.1020   17.9380 C.3     3  DG3         0.1811
     28  C4'       -9.5780   27.0130   16.9490 C.3     3  DG3         0.1746
     29  O4'       -9.1320   26.2480   15.7860 O.3     3  DG3        -0.3348
     30  C3'      -10.4420   28.1540   16.3960 C.3     3  DG3         0.1600
     31  O3'      -10.3290   29.3920   17.1790 O.3     3  DG3        -0.2700
     32  C2'       -9.9530   28.2880   14.9470 C.3     3  DG3         0.0837
     33  C1'       -9.5570   26.8570   14.5690 C.3     3  DG3         0.1980
     34  N9       -10.6000   26.0260   13.9240 N.pl3   3  DG3        -0.2374
     35  C8       -11.9690   26.2260   13.9070 C.3     3  DG3         0.2245
     36  N7       -12.6390   25.3090   13.2600 N.2     3  DG3        -0.2322
     37  C5       -11.6560   24.4350   12.8120 C.2     3  DG3         0.2182
     38  C6       -11.7670   23.2450   12.0490 C.1     3  DG3         0.2372
     39  O6       -12.7910   22.7040   11.6030 O.2     3  DG3        -0.2069
     40  N1       -10.5240   22.6660   11.8110 N.2     3  DG3        -0.2485
     41  C2        -9.3260   23.1660   12.2540 C.1     3  DG3         0.2531
     42  N2        -8.2290   22.4690   11.9320 N.pl3   3  DG3        -0.0226
     43  N3        -9.2030   24.2750   12.9660 N.2     3  DG3        -0.3074
     44  C4       -10.4030   24.8580   13.2080 C.2     3  DG3         0.2299
     45  P        -11.6020   30.0810   17.9030 P.3     4  DT4         0.5326
     46  OP1      -11.7110   29.5560   19.2820 O.3     4  DT4        -0.1145
     47  OP2      -12.7750   29.9770   17.0020 O.2     4  DT4        -0.2224
     48  O5'      -11.1830   31.6230   17.9790 O.3     4  DT4        -0.1145
@<TRIPOS>BOND
     1    39    38    2
     2    40    38    2
     3    40    41    2
     4    42    41    1
     5    38    37    1
     6    41    43    2
     7    37    44    1
     8    37    36    2
     9    43    44    2
    10    44    34    1
    11    36    35    1
    12    35    34    1
    13    34    33    1
    14    33    32    1
    15    33    29    1
    16    32    30    1
    17    29    28    1
    18    30    28    1
    19    30    31    1
    20     6     5    1
    21     6     7    1
    22     6     8    1
    23     5     4    1
    24     7    11    1
    25    28    27    1
    26    47    45    2
    27    31    45    1
    28     9     8    1
    29     9    23    1
    30    26    27    1
    31    26    23    1
    32     8    10    1
    33     4     1    1
    34    45    48    1
    35    45    46    1
    36    11    10    1
    37    11    12    1
    38    23    25    2
    39    23    24    1
    40     2     1    1
    41    13    12    1
    42    13    14    1
    43    12    22    1
    44     1     3    1
    45    14    15    2
    46    22    21    2
    47    22    15    1
    48    21    19    2
    49    15    16    1
    50    19    18    2
    51    19    20    1
    52    16    18    2
    53    16    17    2
