@<TRIPOS>MOLECULE
2wx2_TPF_A_1.pdb
 22 24 0 0 0
SMALL
GASTEIGER

@<TRIPOS>ATOM
      1  O          5.1760   15.4340   14.7580 O.3   1460  TPF1460    -0.2169
      2  C1         3.9030   15.5410   15.4030 C.3   1460  TPF1460     0.1922
      3  C2         3.4740   14.1650   15.9500 C.3   1460  TPF1460     0.1658
      4  C5         3.9780   16.6600   16.4490 C.3   1460  TPF1460     0.1658
      5  C8         2.8340   15.8400   14.3910 C.ar  1460  TPF1460     0.0365
      6  N1         4.1720   13.8570   17.1760 N.ar  1460  TPF1460    -0.2271
      7  C3         5.4070   13.4390   17.4730 C.ar  1460  TPF1460     0.1973
      8  N3         3.4140   14.0280   18.3370 N.ar  1460  TPF1460    -0.1451
      9  N2         5.4490   13.3430   18.8350 N.ar  1460  TPF1460    -0.2007
     10  C4         4.2490   13.7010   19.3600 C.ar  1460  TPF1460     0.2210
     11  N4         4.2750   17.9490   15.8250 N.ar  1460  TPF1460    -0.2271
     12  C6         4.8340   18.3310   14.6670 C.ar  1460  TPF1460     0.1973
     13  N6         3.9460   19.0800   16.5720 N.ar  1460  TPF1460    -0.1451
     14  N5         4.8630   19.6850   14.6830 N.ar  1460  TPF1460    -0.2007
     15  C7         4.3280   20.1390   15.8320 C.ar  1460  TPF1460     0.2210
     16  C9         3.0050   15.5410   13.0410 C.ar  1460  TPF1460     0.0027
     17  C13        1.5430   16.4020   14.8380 C.ar  1460  TPF1460     0.1408
     18  C10        1.9740   15.8140   12.1360 C.ar  1460  TPF1460     0.0295
     19  C11        0.7700   16.3640   12.5750 C.ar  1460  TPF1460     0.1424
     20  F1        -0.2170   16.6140   11.7120 F     1460  TPF1460    -0.2041
     21  C12        0.5540   16.6540   13.9090 C.ar  1460  TPF1460     0.0590
     22  F2         1.3370   16.6940   16.1300 F     1460  TPF1460    -0.2043
@<TRIPOS>BOND
     1    20    19    1
     2    18    19   ar
     3    18    16   ar
     4    19    21   ar
     5    16     5   ar
     6    21    17   ar
     7     5    17   ar
     8     5     2    1
     9    12    14   ar
    10    12    11   ar
    11    14    15   ar
    12     1     2    1
    13    17    22    1
    14     2     3    1
    15     2     4    1
    16    11     4    1
    17    11    13   ar
    18    15    13   ar
    19     3     6    1
    20     6     7   ar
    21     6     8   ar
    22     7     9   ar
    23     8    10   ar
    24     9    10   ar
