@<TRIPOS>MOLECULE
2wx2_HEM_A_1.pdb
 43 50 0 0 0
SMALL
GASTEIGER

@<TRIPOS>ATOM
      1  CHA        7.0920   18.2000   11.8900 C.2   1450  HEM1450     0.0000
      2  CHB        8.5570   20.6680   15.7640 C.2   1450  HEM1450     0.0000
      3  CHC        5.0170   23.7780   14.6060 C.2   1450  HEM1450     0.0000
      4  CHD        2.9760   20.7770   11.3970 C.2   1450  HEM1450     0.0000
      5  C1A        7.8090   18.5410   13.0100 C.2   1450  HEM1450     0.0000
      6  C2A        8.9750   17.8560   13.5910 C.2   1450  HEM1450     0.0000
      7  C3A        9.3710   18.5550   14.6740 C.2   1450  HEM1450     0.0000
      8  C4A        8.4870   19.6950   14.8080 C.2   1450  HEM1450     0.0000
      9  CMA       10.5420   18.2020   15.6240 C.3   1450  HEM1450     0.0000
     10  CAA        9.6820   16.5470   13.1300 C.3   1450  HEM1450     0.0000
     11  CBA        8.7090   15.4140   12.8420 C.3   1450  HEM1450     0.0000
     12  CGA        9.3700   14.0660   12.6810 C.2   1450  HEM1450     0.0000
     13  O1A       10.5530   13.9750   12.2510 O.co2 1450  HEM1450     0.0000
     14  O2A        8.7020   13.0530   13.0170 O.co2 1450  HEM1450     0.0000
     15  C1B        7.7280   21.7620   15.7340 C.ar  1450  HEM1450     0.0000
     16  C2B        7.8220   22.9190   16.5970 C.ar  1450  HEM1450     0.0000
     17  C3B        6.8380   23.7570   16.2680 C.ar  1450  HEM1450     0.0000
     18  C4B        6.1030   23.1740   15.1690 C.ar  1450  HEM1450     0.0000
     19  CMB        8.8670   23.0840   17.7040 C.3   1450  HEM1450     0.0000
     20  CAB        6.4620   25.1440   16.8730 C.2   1450  HEM1450     0.0000
     21  CBB        7.3500   25.8520   17.5730 C.2   1450  HEM1450     0.0000
     22  C1C        4.1310   23.2340   13.7140 C.2   1450  HEM1450     0.0000
     23  C2C        2.9040   23.8730   13.2140 C.2   1450  HEM1450     0.0000
     24  C3C        2.3650   23.0320   12.3320 C.2   1450  HEM1450     0.0000
     25  C4C        3.2090   21.8510   12.2300 C.2   1450  HEM1450     0.0000
     26  CMC        2.3540   25.2610   13.6320 C.3   1450  HEM1450     0.0000
     27  CAC        1.0720   23.1840   11.5140 C.2   1450  HEM1450     0.0000
     28  CBC        0.3000   24.2650   11.5980 C.2   1450  HEM1450     0.0000
     29  C1D        3.9040   19.8030   11.2010 C.ar  1450  HEM1450     0.0000
     30  C2D        3.7870   18.6890   10.2940 C.ar  1450  HEM1450     0.0000
     31  C3D        5.0940   17.9070   10.4490 C.ar  1450  HEM1450     0.0000
     32  C4D        5.8460   18.6250   11.4520 C.ar  1450  HEM1450     0.0000
     33  CMD        2.6000   18.3810    9.3400 C.3   1450  HEM1450     0.0000
     34  CAD        5.6050   16.5830    9.8150 C.3   1450  HEM1450     0.0000
     35  CBD        5.1980   16.2570    8.4140 C.3   1450  HEM1450     0.0000
     36  CGD        5.6580   14.8300    8.0750 C.2   1450  HEM1450     0.0000
     37  O1D        5.5230   13.8510    8.8900 O.co2 1450  HEM1450     0.0000
     38  O2D        6.1770   14.6900    6.9340 O.co2 1450  HEM1450     0.0000
     39  NA         7.5410   19.6570   13.7770 N.2   1450  HEM1450     0.0000
     40  NB         6.6680   21.9420   14.8580 N.ar  1450  HEM1450     0.0000
     41  NC         4.2930   22.0130   13.0890 N.2   1450  HEM1450     0.0000
     42  ND         5.1200   19.7350   11.8580 N.ar  1450  HEM1450     0.0000
     43 FE          5.9330   20.8640   13.3780 Fe    1450  HEM1450     0.0000
@<TRIPOS>BOND
     1    38    36   ar
     2    36    35    1
     3    36    37   ar
     4    35    34    1
     5    33    30    1
     6    34    31    1
     7    30    31   ar
     8    30    29   ar
     9    31    32   ar
    10    29     4    2
    11    29    42   ar
    12     4    25    1
    13    32    42   ar
    14    32     1    2
    15    27    28    2
    16    27    24    1
    17    42    43    1
    18     1     5    1
    19    25    24    1
    20    25    41    2
    21    13    12   ar
    22    24    23    2
    23    12    11    1
    24    12    14   ar
    25    11    10    1
    26     5     6    1
    27     5    39    2
    28    41    43    1
    29    41    22    1
    30    10     6    1
    31    23    26    1
    32    23    22    1
    33    43    39    1
    34    43    40    1
    35     6     7    2
    36    22     3    2
    37    39     8    1
    38     3    18    1
    39     7     8    1
    40     7     9    1
    41     8     2    2
    42    40    18   ar
    43    40    15   ar
    44    18    17   ar
    45    15     2    1
    46    15    16   ar
    47    17    16   ar
    48    17    20    1
    49    16    19    1
    50    20    21    2
