@<TRIPOS>MOLECULE
2wx5_SPN_M_1.pdb
 43 42 0 0 0
SMALL
GASTEIGER

@<TRIPOS>ATOM
      1  CMA      -27.3450  -37.6560   55.1620 C.3   1315  SPN1315     0.1745
      2  O1       -26.2760  -36.6950   55.2800 O.3   1315  SPN1315    -0.3489
      3  CM1      -24.5790  -37.7510   53.8730 C.3   1315  SPN1315     0.0372
      4  CM2      -24.2060  -35.4830   54.8110 C.3   1315  SPN1315     0.0372
      5  C1       -25.2700  -36.4420   54.2670 C.3   1315  SPN1315     0.1440
      6  C2       -25.8400  -35.7920   53.0080 C.2   1315  SPN1315     0.1791
      7  O2       -25.1000  -35.6510   52.0430 O.2   1315  SPN1315    -0.2933
      8  C3       -27.2790  -35.3100   52.9040 C.3   1315  SPN1315     0.0923
      9  C4       -27.4760  -34.2570   51.8100 C.2   1315  SPN1315    -0.0267
     10  C5       -28.6120  -33.5280   51.6190 C.2   1315  SPN1315    -0.0474
     11  CM3      -29.7960  -33.7110   52.5370 C.3   1315  SPN1315     0.0260
     12  C6       -28.6600  -32.5000   50.4900 C.3   1315  SPN1315     0.0264
     13  C7       -30.0130  -32.4190   49.7820 C.3   1315  SPN1315     0.0297
     14  C8       -29.9520  -31.5860   48.5090 C.2   1315  SPN1315    -0.0342
     15  C9       -31.0510  -31.0170   48.0090 C.2   1315  SPN1315    -0.0478
     16  CM4      -32.3800  -31.2100   48.7060 C.3   1315  SPN1315     0.0260
     17  C10      -30.9100  -30.2020   46.7500 C.3   1315  SPN1315     0.0263
     18  C11      -32.1570  -29.3730   46.3590 C.3   1315  SPN1315     0.0297
     19  C12      -31.9320  -28.7530   44.9760 C.2   1315  SPN1315    -0.0343
     20  C13      -32.9020  -28.5630   44.0500 C.2   1315  SPN1315    -0.0482
     21  CM5      -34.3010  -29.0000   44.3850 C.3   1315  SPN1315     0.0260
     22  C14      -32.5360  -27.9780   42.6850 C.3   1315  SPN1315     0.0217
     23  C15      -33.4100  -26.8060   42.2560 C.3   1315  SPN1315     0.0047
     24  C16      -32.8780  -26.0810   41.0260 C.3   1315  SPN1315     0.0047
     25  C17      -31.3650  -26.1560   41.0220 C.3   1315  SPN1315     0.0217
     26  C18      -30.8750  -25.3850   39.8220 C.2   1315  SPN1315    -0.0482
     27  CM6      -31.8510  -24.7500   38.8630 C.3   1315  SPN1315     0.0260
     28  C19      -29.5530  -25.3060   39.6270 C.2   1315  SPN1315    -0.0346
     29  C20      -28.9200  -24.6010   38.4630 C.3   1315  SPN1315     0.0254
     30  C21      -27.4280  -24.5510   38.7780 C.3   1315  SPN1315     0.0047
     31  C22      -26.5340  -24.5050   37.5460 C.3   1315  SPN1315     0.0007
     32  CM7      -27.1050  -23.7820   36.3420 C.3   1315  SPN1315     0.0000
     33  C23      -25.1620  -24.0240   38.0090 C.3   1315  SPN1315     0.0047
     34  C24      -24.7530  -22.6030   37.6530 C.3   1315  SPN1315     0.0254
     35  C25      -23.3560  -22.4310   38.2190 C.2   1315  SPN1315    -0.0346
     36  C26      -22.9290  -21.4670   39.0640 C.2   1315  SPN1315    -0.0478
     37  CM8      -23.8210  -20.3640   39.5700 C.3   1315  SPN1315     0.0260
     38  C27      -21.4780  -21.4920   39.5080 C.3   1315  SPN1315     0.0263
     39  C28      -20.5660  -21.5480   38.2800 C.3   1315  SPN1315     0.0297
     40  C29      -19.3890  -20.6130   38.4450 C.2   1315  SPN1315    -0.0342
     41  C30      -18.4360  -20.4870   37.5010 C.2   1315  SPN1315    -0.0478
     42  CM9      -18.4840  -21.2750   36.2120 C.3   1315  SPN1315     0.0260
     43  CMB      -17.3040  -19.5310   37.7650 C.3   1315  SPN1315     0.0260
@<TRIPOS>BOND
     1    42    41    1
     2    32    31    1
     3    41    43    1
     4    41    40    2
     5    31    33    1
     6    31    30    1
     7    34    33    1
     8    34    35    1
     9    35    36    2
    10    39    40    1
    11    39    38    1
    12    29    30    1
    13    29    28    1
    14    27    26    1
    15    36    38    1
    16    36    37    1
    17    28    26    2
    18    26    25    1
    19    25    24    1
    20    24    23    1
    21    23    22    1
    22    22    20    1
    23    20    21    1
    24    20    19    2
    25    19    18    1
    26    18    17    1
    27    17    15    1
    28    15    14    2
    29    15    16    1
    30    14    13    1
    31    13    12    1
    32    12    10    1
    33    10     9    2
    34    10    11    1
    35     9     8    1
    36     7     6    2
    37     8     6    1
    38     6     5    1
    39     3     5    1
    40     5     4    1
    41     5     2    1
    42     1     2    1
