@<TRIPOS>MOLECULE
2wx5_U10_M_1.pdb
 48 48 0 0 0
SMALL
GASTEIGER

@<TRIPOS>ATOM
      1  C1       -49.5890  -44.4030   18.3180 C.3   1316  U101316     0.0675
      2  C2       -48.6700  -45.4490   18.3110 C.2   1316  U101316     0.1804
      3  C3       -48.3360  -46.0390   17.0680 C.3   1316  U101316     0.2061
      4  C4       -48.9600  -45.5850   15.8750 C.3   1316  U101316     0.2061
      5  C5       -49.8920  -44.5320   15.9360 C.2   1316  U101316     0.1807
      6  C6       -50.1940  -43.9490   17.1530 C.3   1316  U101316     0.0715
      7  C1M      -49.9530  -43.7860   19.6270 C.3   1316  U101316     0.0083
      8  C3M      -46.4420  -47.3790   17.3490 C.3   1316  U101316     0.1747
      9  C4M      -48.0110  -46.7390   14.1080 C.3   1316  U101316     0.1747
     10  C7       -50.8940  -42.6060   17.1040 C.3   1316  U101316     0.0332
     11  C8       -49.9000  -41.5550   17.4330 C.2   1316  U101316    -0.0341
     12  C9       -49.7410  -40.3800   16.5890 C.2   1316  U101316    -0.0478
     13  C10      -50.3560  -40.3770   15.2300 C.3   1316  U101316     0.0260
     14  C11      -48.9510  -39.1870   17.0950 C.3   1316  U101316     0.0263
     15  C12      -49.7660  -37.9220   16.9200 C.3   1316  U101316     0.0297
     16  C13      -50.8100  -37.8860   18.0260 C.2   1316  U101316    -0.0342
     17  C14      -50.8330  -36.8240   19.0600 C.2   1316  U101316    -0.0478
     18  C15      -49.6770  -35.8560   19.1240 C.3   1316  U101316     0.0260
     19  C16      -52.0270  -36.7370   19.9920 C.3   1316  U101316     0.0263
     20  C17      -52.9630  -35.5730   19.6380 C.3   1316  U101316     0.0297
     21  C18      -54.1250  -35.9960   18.7570 C.2   1316  U101316    -0.0342
     22  C19      -54.8820  -34.9600   18.0150 C.2   1316  U101316    -0.0478
     23  C20      -54.5150  -33.5110   18.2110 C.3   1316  U101316     0.0260
     24  C21      -55.9910  -35.3230   17.0500 C.3   1316  U101316     0.0263
     25  C22      -57.3700  -35.2030   17.6970 C.3   1316  U101316     0.0297
     26  C23      -58.5110  -35.4590   16.7140 C.2   1316  U101316    -0.0343
     27  C24      -59.6080  -36.3630   17.1050 C.2   1316  U101316    -0.0482
     28  C25      -59.5130  -37.1100   18.4060 C.3   1316  U101316     0.0260
     29  C26      -60.8420  -36.6060   16.2710 C.3   1316  U101316     0.0217
     30  C27      -60.9310  -35.6700   15.0920 C.3   1316  U101316     0.0043
     31  C28      -62.0130  -36.2270   14.2120 C.3   1316  U101316     0.0003
     32  C29      -63.3650  -35.6460   14.2400 C.3   1316  U101316     0.0000
     33  C30      -63.7210  -34.5510   13.2390 C.3   1316  U101316     0.0000
     34  C31      -64.3300  -36.1750   15.3060 C.3   1316  U101316     0.0000
     35  C32      -65.7280  -36.5700   14.7840 C.3   1316  U101316     0.0000
     36  C33      -66.2790  -37.8540   15.3950 C.3   1316  U101316     0.0000
     37  C34      -65.9580  -39.1620   14.7720 C.3   1316  U101316     0.0000
     38  C35      -64.7990  -39.2420   13.8090 C.3   1316  U101316     0.0000
     39  C36      -66.7900  -40.4040   15.0770 C.3   1316  U101316     0.0000
     40  C37      -67.2910  -41.0450   13.7770 C.3   1316  U101316     0.0000
     41  C38      -68.5100  -40.3090   13.2550 C.3   1316  U101316     0.0000
     42  C39      -68.6800  -39.7140   11.9090 C.3   1316  U101316     0.0000
     43  C40      -70.0680  -39.7980   11.3040 C.3   1316  U101316     0.0000
     44  C41      -67.5600  -39.0240   11.1600 C.3   1316  U101316     0.0000
     45  O2       -48.3650  -46.0130   19.3980 O.2   1316  U101316    -0.2934
     46  O3       -47.8070  -47.1800   17.0650 O.3   1316  U101316    -0.3432
     47  O4       -49.0940  -46.3890   14.9290 O.3   1316  U101316    -0.3432
     48  O5       -50.3660  -44.0110   14.9010 O.2   1316  U101316    -0.2934
@<TRIPOS>BOND
     1    44    42    1
     2    43    42    1
     3    42    41    1
     4    33    32    1
     5    41    40    1
     6    40    39    1
     7    38    37    1
     8     9    47    1
     9    31    32    1
    10    31    30    1
    11    32    34    1
    12    37    39    1
    13    37    36    1
    14    35    34    1
    15    35    36    1
    16    48     5    2
    17    47     4    1
    18    30    29    1
    19    13    12    1
    20     4     5    1
    21     4     3    1
    22     5     6    1
    23    29    27    1
    24    12    14    1
    25    12    11    2
    26    26    27    2
    27    26    25    1
    28    15    14    1
    29    15    16    1
    30    24    25    1
    31    24    22    1
    32    46     3    1
    33    46     8    1
    34     3     2    1
    35    10     6    1
    36    10    11    1
    37    27    28    1
    38     6     1    1
    39    22    23    1
    40    22    21    2
    41    16    17    2
    42     2     1    1
    43     2    45    2
    44     1     7    1
    45    21    20    1
    46    17    18    1
    47    17    19    1
    48    20    19    1
