@<TRIPOS>MOLECULE
2wx9_NGE_A_1.pdb
 22 22 0 0 0
SMALL
GASTEIGER

@<TRIPOS>ATOM
      1  O8         8.1260   -6.1240  -17.6100 O.3   1309  NGE1309    -0.2175
      2  C8         7.2440   -6.6550  -16.6220 C.3   1309  NGE1309     0.2175
      3  C7         7.8720   -7.5440  -15.5630 C.3   1309  NGE1309     0.2173
      4  O7         8.4050   -8.6990  -16.1870 O.3   1309  NGE1309    -0.2175
      5  C6         8.9910   -6.7820  -14.8230 C.3   1309  NGE1309     0.2135
      6  O6         8.3960   -5.6680  -14.1710 O.3   1309  NGE1309    -0.2176
      7  C5         9.6750   -7.7180  -13.8030 C.3   1309  NGE1309     0.1734
      8  O5         8.5930   -8.2820  -13.0360 O.3   1309  NGE1309    -0.3220
      9  C9         7.6840   -9.5550  -11.3280 C.2   1309  NGE1309     0.4179
     10  O9B        7.0630   -8.5760  -10.8260 O.co2 1309  NGE1309    -0.2401
     11  O9A        7.3030  -10.7390  -11.2820 O.co2 1309  NGE1309    -0.2401
     12  O1         9.4280  -10.4060  -12.7960 O.3   1309  NGE1309    -0.1830
     13  C2        10.0870   -8.7460  -11.1490 C.3   1309  NGE1309     0.1056
     14  C3        11.2790   -8.1710  -11.9680 C.3   1309  NGE1309     0.1798
     15  O3        12.2350   -7.6810  -11.0650 O.3   1309  NGE1309    -0.2210
     16  C4        10.6590   -7.0670  -12.8710 C.3   1309  NGE1309     0.1555
     17  N4        11.7170   -6.3490  -13.6110 N.am  1309  NGE1309    -0.1998
     18  C20        8.9770   -9.2680  -12.0950 C.3   1309  NGE1309     0.3155
     19  C10       12.1130   -5.1510  -13.2250 C.2   1309  NGE1309     0.2751
     20  O10       11.6380   -4.5080  -12.2950 O.2   1309  NGE1309    -0.2705
     21  C11       13.1950   -4.5210  -14.0330 C.3   1309  NGE1309     0.2680
     22  O11       13.5540   -5.2370  -15.2040 O.3   1309  NGE1309    -0.2098
@<TRIPOS>BOND
     1     1     2    1
     2     2     3    1
     3     4     3    1
     4     3     5    1
     5    22    21    1
     6     5     6    1
     7     5     7    1
     8    21    19    1
     9     7     8    1
    10     7    16    1
    11    17    19   am
    12    17    16    1
    13    19    20    2
    14     8    18    1
    15    16    14    1
    16    12    18    1
    17    18     9    1
    18    18    13    1
    19    14    13    1
    20    14    15    1
    21     9    11   ar
    22     9    10   ar
