@<TRIPOS>MOLECULE
2wxd_E18_M_1.pdb
 20 20 0 0 0
SMALL
GASTEIGER

@<TRIPOS>ATOM
      1  O20       48.4250  115.6210   46.7350 O.3   1501  E181501    -0.2572
      2  S19       47.9040  116.9280   46.7210 S.3   1501  E181501     0.0672
      3  O21       46.5110  116.9750   46.1670 O.2   1501  E181501    -0.3344
      4  O22       48.7180  117.9040   45.9910 O.2   1501  E181501    -0.3344
      5  O18       47.7430  117.6640   48.1600 O.2   1501  E181501    -0.2479
      6  N17       46.8930  118.7250   48.2070 N.2   1501  E181501    -0.0512
      7  C13       47.0640  119.6010   49.1030 C.2   1501  E181501     0.1293
      8  S1        48.3910  119.3700   50.1930 S.3   1501  E181501    -0.0943
      9  C1        48.2930  119.8600   51.9440 C.3   1501  E181501     0.0807
     10  C2        47.7810  121.2840   52.1280 C.3   1501  E181501     0.0843
     11  N18       48.4010  122.2200   53.1180 N.3   1501  E181501    -0.2695
     12  C20       48.3140  121.7680   54.5400 C.3   1501  E181501     0.0897
     13  C19       47.6230  123.4760   53.0240 C.3   1501  E181501     0.0897
     14  CB        46.0100  120.7230   48.9760 C.3   1501  E181501     0.0819
     15  CG        46.5720  121.9730   48.3900 C.ar  1501  E181501    -0.0156
     16  CD2       46.4560  123.2070   49.0010 C.ar  1501  E181501    -0.0039
     17  CE2       47.1160  124.3010   48.5570 C.ar  1501  E181501    -0.0003
     18  CZ        47.9140  124.1810   47.4230 C.ar  1501  E181501    -0.0000
     19  CE1       48.0620  122.9620   46.8280 C.ar  1501  E181501    -0.0003
     20  CD1       47.4340  121.8210   47.3120 C.ar  1501  E181501    -0.0039
@<TRIPOS>BOND
     1     4     2    2
     2     3     2    2
     3     2     1    1
     4     2     5    1
     5    19    20   ar
     6    19    18   ar
     7    20    15   ar
     8    18    17   ar
     9     5     6    1
    10     6     7    2
    11    15    14    1
    12    15    16   ar
    13    17    16   ar
    14    14     7    1
    15     7     8    1
    16     8     9    1
    17     9    10    1
    18    10    11    1
    19    13    11    1
    20    11    12    1
