@<TRIPOS>MOLECULE
2wxd_NAG_M_1.pdb
 14 14 0 0 0
SMALL
GASTEIGER

@<TRIPOS>ATOM
      1  C1        22.3640  132.4250   62.5100 C.3   901  NAG901      0.1665
      2  C2        21.7700  133.7030   63.1050 C.3   901  NAG901      0.1576
      3  C3        20.2410  133.4500   62.9310 C.3   901  NAG901      0.2069
      4  C4        19.8420  133.1870   61.4750 C.3   901  NAG901      0.2134
      5  C5        20.7030  132.0010   60.9740 C.3   901  NAG901      0.1809
      6  C6        20.5290  131.6540   59.5230 C.3   901  NAG901      0.2141
      7  C7        22.4700  134.9950   65.0650 C.2   901  NAG901      0.2420
      8  C8        22.7540  135.1880   66.5170 C.3   901  NAG901      0.0964
      9  N2        22.0500  133.8830   64.5070 N.am  901  NAG901     -0.2019
     10  O3        19.5390  134.5020   63.5740 O.3   901  NAG901     -0.2184
     11  O4        18.4450  132.8960   61.2290 O.3   901  NAG901     -0.2176
     12  O5        22.0840  132.2960   61.1620 O.3   901  NAG901     -0.3489
     13  O6        21.0840  130.3610   59.2780 O.3   901  NAG901     -0.2176
     14  O7        22.6650  135.9480   64.3390 O.2   901  NAG901     -0.2733
@<TRIPOS>BOND
     1    13     6    1
     2     6     5    1
     3     5    12    1
     4     5     4    1
     5    12     1    1
     6    11     4    1
     7     4     3    1
     8     1     2    1
     9     3     2    1
    10     3    10    1
    11     2     9    1
    12    14     7    2
    13     9     7   am
    14     7     8    1
