@<TRIPOS>MOLECULE
2wxf_039_A_1.pdb
 31 35 0 0 0
SMALL
GASTEIGER

@<TRIPOS>ATOM
      1  CAU       -2.3240   -2.1270   24.7810 C.3   1500  0391500     0.2525
      2  OAT       -3.3890   -1.8100   23.8370 O.3   1500  0391500    -0.4702
      3  CAP       -4.0460   -2.9650   23.6980 C.ar  1500  0391500     0.1526
      4  CAQ       -3.7200   -4.1220   24.4530 C.ar  1500  0391500     0.0382
      5  CAR       -4.4650   -5.2750   24.2260 C.ar  1500  0391500     0.0032
      6  CAJ       -5.4940   -5.3170   23.2680 C.ar  1500  0391500     0.0015
      7  CAI       -5.7870   -4.1700   22.5440 C.ar  1500  0391500     0.0184
      8  CAH       -5.0450   -2.9990   22.7830 C.ar  1500  0391500     0.0942
      9  NAG       -5.4260   -1.8730   22.0030 N.am  1500  0391500    -0.2085
     10  CAF       -4.8380   -1.6660   20.7800 C.2   1500  0391500     0.2612
     11  OAB       -3.9150   -2.4190   20.5000 O.2   1500  0391500    -0.2691
     12  CAE       -5.2610   -0.5990   19.9690 C.2   1500  0391500     0.0905
     13  CAD       -4.6890   -0.2990   18.7210 C.2   1500  0391500     0.0639
     14 CL         -3.3900   -1.1920   18.0070 Cl    1500  0391500    -0.0820
     15  CAC       -5.1640    0.7740   17.9680 C.2   1500  0391500     0.0075
     16  CAK       -6.2100    1.5330   18.4570 C.2   1500  0391500    -0.0178
     17  CAL       -6.8020    1.2600   19.6930 C.3   1500  0391500     0.0852
     18  CAM       -6.3210    0.1860   20.4560 C.2   1500  0391500     0.1198
     19  NAN       -6.8800   -0.0700   21.6540 N.2   1500  0391500    -0.3937
     20  CAO       -6.4760   -1.0990   22.4200 C.2   1500  0391500     0.1808
     21  CAS       -7.1170   -1.4000   23.7750 C.3   1500  0391500     0.1388
     22  S6        -8.1410    0.0030   24.3990 S.3   1500  0391500    -0.0840
     23  C6        -6.8810    1.0830   25.0350 C.2   1500  0391500     0.1308
     24  C5        -7.3490    2.2800   25.5610 C.2   1500  0391500     0.1625
     25  N7        -8.5830    2.7610   25.6980 N.2   1500  0391500    -0.2314
     26  C8        -8.4530    3.9680   26.3010 C.3   1500  0391500     0.2617
     27  N9        -7.1760    4.2230   26.5190 N.2   1500  0391500    -0.1916
     28  C4        -6.4530    3.1890   26.0820 C.1   1500  0391500     0.0501
     29  N3        -5.1270    2.9090   26.0870 N.2   1500  0391500    -0.1916
     30  C2        -4.6880    1.7640   25.5480 C.3   1500  0391500     0.2615
     31  N1        -5.5590    0.8560   25.0410 N.2   1500  0391500    -0.2351
@<TRIPOS>BOND
     1    15    16    2
     2    15    13    1
     3    14    13    1
     4    16    17    1
     5    13    12    2
     6    17    18    1
     7    12    18    1
     8    12    10    1
     9    18    19    2
    10    11    10    2
    11    10     9   am
    12    19    20    2
    13     9    20    1
    14     9     8    1
    15    20    21    1
    16     7     8   ar
    17     7     6   ar
    18     8     3   ar
    19     6     5   ar
    20     3     2    1
    21     3     4   ar
    22    21    22    1
    23     2     1    1
    24     5     4   ar
    25    22    23    1
    26    23    31    2
    27    23    24    1
    28    31    30    1
    29    30    29    1
    30    24    25    2
    31    24    28    1
    32    25    26    1
    33    28    29    2
    34    28    27    2
    35    26    27    1
