@<TRIPOS>MOLECULE
2wxg_ZZN_A_1.pdb
 38 43 0 0 0
SMALL
GASTEIGER

@<TRIPOS>ATOM
      1  CAT        2.8310  -34.0650  -23.9930 C.3   1500  ZZN1500     0.0323
      2  CAP        3.5990  -35.3540  -23.8360 C.ar  1500  ZZN1500    -0.0078
      3  CAQ        3.2290  -36.4940  -24.6000 C.ar  1500  ZZN1500    -0.0030
      4  CAR        3.9610  -37.6630  -24.4330 C.ar  1500  ZZN1500    -0.0002
      5  CAJ        5.0470  -37.7330  -23.5560 C.ar  1500  ZZN1500     0.0013
      6  CAI        5.4100  -36.6100  -22.8110 C.ar  1500  ZZN1500     0.0150
      7  CAH        4.6840  -35.4060  -22.9710 C.ar  1500  ZZN1500     0.0565
      8  NAG        5.1470  -34.3410  -22.1540 N.am  1500  ZZN1500    -0.2091
      9  CAF        4.5900  -34.1750  -20.8630 C.2   1500  ZZN1500     0.2600
     10  OAB        3.6510  -34.8970  -20.5630 O.2   1500  ZZN1500    -0.2691
     11  CAE        5.0650  -33.1690  -20.0020 C.2   1500  ZZN1500     0.0760
     12  CAD        4.5260  -32.9260  -18.7180 C.2   1500  ZZN1500    -0.0156
     13  CAA        3.3580  -33.7280  -18.1130 C.3   1500  ZZN1500     0.0312
     14  CAC        5.0640  -31.8940  -17.9410 C.2   1500  ZZN1500    -0.0082
     15  CAK        6.1220  -31.1290  -18.4040 C.2   1500  ZZN1500    -0.0190
     16  CAL        6.6700  -31.3660  -19.6740 C.3   1500  ZZN1500     0.0851
     17  CAM        6.1250  -32.3760  -20.4780 C.2   1500  ZZN1500     0.1188
     18  NAN        6.6610  -32.5940  -21.7140 N.2   1500  ZZN1500    -0.3903
     19  CAO        6.2220  -33.5570  -22.5450 C.2   1500  ZZN1500     0.2196
     20  CAS        6.8590  -33.7510  -23.9670 C.3   1500  ZZN1500     0.3059
     21  NAV        7.3730  -32.4100  -24.3350 N.pl3 1500  ZZN1500    -0.0705
     22  NAU        8.5080  -32.0010  -24.0190 N.2   1500  ZZN1500    -0.0907
     23  C6         6.6760  -31.5020  -24.9840 C.2   1500  ZZN1500     0.3411
     24  N1         5.4140  -31.5210  -25.4680 N.2   1500  ZZN1500    -0.0087
     25  C2         4.9410  -30.4420  -26.0760 C.3   1500  ZZN1500     0.5248
     26  N3         5.7090  -29.3440  -26.2030 N.2   1500  ZZN1500    -0.0027
     27  C4         6.9540  -29.2530  -25.7460 C.2   1500  ZZN1500     0.4081
     28  NBK        7.6090  -28.0940  -25.9390 N.pl3 1500  ZZN1500     0.2118
     29  C5         7.4950  -30.3710  -25.0810 C.3   1500  ZZN1500     0.2639
     30  CBD        8.6940  -30.7500  -24.4410 C.2   1500  ZZN1500     0.1228
     31  CBC        9.9110  -30.0870  -24.1810 C.ar  1500  ZZN1500     0.0236
     32  CBB       10.7490  -29.4970  -25.1180 C.ar  1500  ZZN1500     0.0435
     33  CBJ       10.3450  -30.1110  -22.8350 C.ar  1500  ZZN1500     0.0312
     34  CBI       11.5560  -29.5270  -22.4490 C.ar  1500  ZZN1500     0.1434
     35  F         11.9560  -29.5350  -21.1680 F     1500  ZZN1500    -0.2041
     36  CBH       12.3820  -28.9170  -23.3940 C.ar  1500  ZZN1500     0.0716
     37  CBA       11.9550  -28.8900  -24.7140 C.ar  1500  ZZN1500     0.1980
     38  OAZ       12.7760  -28.3020  -25.6170 O.3   1500  ZZN1500    -0.2865
@<TRIPOS>BOND
     1    26    25    1
     2    26    27    2
     3    25    24    1
     4    28    27    1
     5    27    29    1
     6    38    37    1
     7    24    23    2
     8    32    37   ar
     9    32    31   ar
    10    29    23    1
    11    29    30    1
    12    23    21    1
    13    37    36   ar
    14     3     4   ar
    15     3     2   ar
    16    30    31    1
    17    30    22    2
    18     4     5   ar
    19    21    22    1
    20    21    20    1
    21    31    33   ar
    22     1     2    1
    23    20    19    1
    24     2     7   ar
    25     5     6   ar
    26    36    34   ar
    27     7     6   ar
    28     7     8    1
    29    33    34   ar
    30    19     8    1
    31    19    18    2
    32    34    35    1
    33     8     9   am
    34    18    17    2
    35     9    10    2
    36     9    11    1
    37    17    11    1
    38    17    16    1
    39    11    12    2
    40    16    15    1
    41    12    13    1
    42    12    14    1
    43    15    14    2
