@<TRIPOS>MOLECULE
2wxh_ZZO_A_1.pdb
 38 43 0 0 0
SMALL
GASTEIGER

@<TRIPOS>ATOM
      1  CAT       -3.3030  -33.6830   23.9610 C.3   1500  ZZO1500     0.0323
      2  CAL       -4.0530  -34.9750   23.8390 C.ar  1500  ZZO1500    -0.0078
      3  CAM       -3.6970  -36.0840   24.6400 C.ar  1500  ZZO1500    -0.0030
      4  CAE       -4.4230  -37.2630   24.5140 C.ar  1500  ZZO1500    -0.0002
      5  CAD       -5.4900  -37.3720   23.6190 C.ar  1500  ZZO1500     0.0013
      6  CAC       -5.8460  -36.2650   22.8470 C.ar  1500  ZZO1500     0.0150
      7  CAK       -5.1050  -35.0700   22.9700 C.ar  1500  ZZO1500     0.0565
      8  NAJ       -5.5130  -33.9960   22.1490 N.am  1500  ZZO1500    -0.2091
      9  CAI       -4.9440  -33.8550   20.8740 C.2   1500  ZZO1500     0.2600
     10  OAB       -4.0310  -34.6410   20.5680 O.2   1500  ZZO1500    -0.2691
     11  CAH       -5.3750  -32.7980   20.0500 C.2   1500  ZZO1500     0.0760
     12  CAG       -4.8390  -32.5590   18.7580 C.2   1500  ZZO1500    -0.0156
     13  CAA       -3.7060  -33.4080   18.1300 C.3   1500  ZZO1500     0.0312
     14  CAF       -5.3320  -31.4910   18.0030 C.2   1500  ZZO1500    -0.0082
     15  CAN       -6.3610  -30.6940   18.4660 C.2   1500  ZZO1500    -0.0190
     16  CAO       -6.8990  -30.9400   19.7380 C.3   1500  ZZO1500     0.0851
     17  CAP       -6.4110  -31.9800   20.5240 C.2   1500  ZZO1500     0.1188
     18  NAQ       -6.9690  -32.1690   21.7520 N.2   1500  ZZO1500    -0.3903
     19  CAR       -6.5410  -33.1750   22.5490 C.2   1500  ZZO1500     0.2196
     20  CAS       -7.1760  -33.3710   23.9380 C.3   1500  ZZO1500     0.3059
     21  NAV       -7.6400  -32.0110   24.3330 N.pl3 1500  ZZO1500    -0.0705
     22  NAU       -8.7820  -31.5840   24.0580 N.2   1500  ZZO1500    -0.0907
     23  C6        -6.9020  -31.1290   25.0000 C.2   1500  ZZO1500     0.3411
     24  N1        -5.6290  -31.1670   25.4610 N.2   1500  ZZO1500    -0.0087
     25  C2        -5.1170  -30.1030   26.0750 C.3   1500  ZZO1500     0.5248
     26  N3        -5.9100  -29.0170   26.2390 N.2   1500  ZZO1500    -0.0027
     27  C4        -7.1450  -28.9130   25.8000 C.2   1500  ZZO1500     0.4081
     28  NBG       -7.8640  -27.7890   26.0190 N.pl3 1500  ZZO1500     0.2118
     29  C5        -7.7070  -30.0010   25.1410 C.3   1500  ZZO1500     0.2639
     30  CAZ       -8.9310  -30.3270   24.5270 C.2   1500  ZZO1500     0.1227
     31  CBE      -10.1560  -29.6760   24.3110 C.ar  1500  ZZO1500     0.0206
     32  CBD      -10.5920  -29.6240   22.9680 C.ar  1500  ZZO1500     0.0343
     33  CBH      -11.8340  -29.0500   22.7240 C.ar  1500  ZZO1500     0.1788
     34  F        -12.3530  -28.9310   21.4800 F     1500  ZZO1500    -0.2008
     35  CBI      -12.5900  -28.5530   23.7620 C.ar  1500  ZZO1500     0.2229
     36  OBL      -13.7610  -27.9970   23.4750 O.3   1500  ZZO1500    -0.2842
     37  CBJ      -12.1850  -28.5800   25.0680 C.ar  1500  ZZO1500     0.0444
     38  CBF      -10.9580  -29.1760   25.3180 C.ar  1500  ZZO1500     0.0047
@<TRIPOS>BOND
     1    14    15    2
     2    14    12    1
     3    13    12    1
     4    15    16    1
     5    12    11    2
     6    16    17    1
     7    11    17    1
     8    11     9    1
     9    17    18    2
    10    10     9    2
    11     9     8   am
    12    34    33    1
    13    18    19    2
    14     8    19    1
    15     8     7    1
    16    19    20    1
    17    33    32   ar
    18    33    35   ar
    19     6     7   ar
    20     6     5   ar
    21    32    31   ar
    22     7     2   ar
    23    36    35    1
    24     5     4   ar
    25    35    37   ar
    26     2     1    1
    27     2     3   ar
    28    20    21    1
    29    22    21    1
    30    22    30    2
    31    31    30    1
    32    31    38   ar
    33    21    23    1
    34     4     3   ar
    35    30    29    1
    36    23    29    1
    37    23    24    2
    38    37    38   ar
    39    29    27    1
    40    24    25    1
    41    27    28    1
    42    27    26    2
    43    25    26    1
