@<TRIPOS>MOLECULE
2wxi_S30_A_1.pdb
 34 38 0 0 0
SMALL
GASTEIGER

@<TRIPOS>ATOM
      1  CAT       -3.0690   -0.3840   23.6990 C.3   1500  S301500     0.0323
      2  CAL       -3.9430   -1.5950   23.7250 C.ar  1500  S301500    -0.0078
      3  CAM       -3.5360   -2.6450   24.5200 C.ar  1500  S301500    -0.0030
      4  CAE       -4.3770   -3.7620   24.5220 C.ar  1500  S301500    -0.0002
      5  CAD       -5.5650   -3.8720   23.7640 C.ar  1500  S301500     0.0013
      6  CAC       -5.9380   -2.8180   22.9420 C.ar  1500  S301500     0.0150
      7  CAK       -5.1240   -1.6700   22.9590 C.ar  1500  S301500     0.0562
      8  NAJ       -5.5670   -0.6420   22.1230 N.am  1500  S301500    -0.2121
      9  CAI       -4.9880   -0.5260   20.8570 C.2   1500  S301500     0.2448
     10  OAB       -4.0720   -1.3320   20.6260 O.2   1500  S301500    -0.2734
     11  CAH       -5.4390    0.4730   19.9790 C.3   1500  S301500     0.1478
     12  CAG       -4.8920    0.7000   18.6800 C.2   1500  S301500    -0.0290
     13  CAA       -3.7230   -0.1380   18.0630 C.3   1500  S301500     0.0273
     14  CAF       -5.4080    1.7400   17.8700 C.2   1500  S301500    -0.0076
     15  CAN       -6.4600    2.5350   18.3350 C.2   1500  S301500     0.0017
     16  CAO       -6.9750    2.3240   19.6140 C.2   1500  S301500     0.0284
     17  CAP       -6.4750    1.3000   20.4400 C.2   1500  S301500     0.1225
     18  NAQ       -7.0410    1.1460   21.6650 N.2   1500  S301500    -0.3900
     19  CAR       -6.6160    0.1860   22.5200 C.2   1500  S301500     0.2194
     20  CAS       -7.2160   -0.0090   23.9270 C.3   1500  S301500     0.3059
     21  NAV       -7.5330    1.3440   24.4570 N.pl3 1500  S301500    -0.0699
     22  NAU       -8.6920    1.7350   24.3600 N.2   1500  S301500    -0.0824
     23  C6        -6.7400    2.2710   25.0190 C.2   1500  S301500     0.3418
     24  N1        -5.4500    2.3510   25.3370 N.2   1500  S301500    -0.0087
     25  C2        -4.8830    3.4070   25.9270 C.3   1500  S301500     0.5248
     26  N3        -5.6070    4.4760   26.2180 N.2   1500  S301500    -0.0026
     27  C4        -6.9230    4.4800   25.9180 C.2   1500  S301500     0.4088
     28  NBE       -7.5910    5.5730   26.2480 N.pl3 1500  S301500     0.2118
     29  C5        -7.5280    3.3560   25.3060 C.3   1500  S301500     0.2717
     30  CAZ       -8.7900    2.9470   24.8490 C.2   1500  S301500     0.1639
     31  CBD      -10.0230    3.6400   24.8510 C.1   1500  S301500    -0.0423
     32  CBF      -11.0590    4.1600   24.8430 C.1   1500  S301500    -0.0493
     33  CBG      -12.3610    4.8130   24.8400 C.3   1500  S301500     0.2579
     34  OBH      -13.4010    3.8280   25.0160 O.3   1500  S301500    -0.2049
@<TRIPOS>BOND
     1    14    15    1
     2    14    12    2
     3    13    12    1
     4    15    16    2
     5    12    11    1
     6    16    17    1
     7    11    17    1
     8    11     9    1
     9    17    18    2
    10    10     9    2
    11     9     8   am
    12    18    19    2
    13     8    19    1
    14     8     7    1
    15    19    20    1
    16     6     7   ar
    17     6     5   ar
    18     7     2   ar
    19     1     2    1
    20     2     3   ar
    21     5     4   ar
    22    20    21    1
    23    22    21    1
    24    22    30    2
    25    21    23    1
    26     3     4   ar
    27    33    32    1
    28    33    34    1
    29    32    31    3
    30    30    31    1
    31    30    29    1
    32    23    29    1
    33    23    24    2
    34    29    27    1
    35    24    25    1
    36    27    26    2
    37    27    28    1
    38    25    26    1
