@<TRIPOS>MOLECULE
2wxj_RW3_A_1.pdb
 41 47 0 0 0
SMALL
GASTEIGER

@<TRIPOS>ATOM
      1  CAA       -3.7220  -35.7710   23.5660 C.3   1500  RW31500     0.1102
      2  CAB       -2.7670  -35.9520   24.7100 C.3   1500  RW31500     0.0939
      3  NAI       -1.4140  -35.8510   24.2410 N.3   1500  RW31500    -0.2686
      4  CAJ       -0.5100  -36.0570   25.3540 C.3   1500  RW31500     0.0897
      5  CAQ       -1.1770  -34.5160   23.7890 C.3   1500  RW31500     0.0939
      6  CAP       -2.0400  -34.1870   22.6130 C.3   1500  RW31500     0.1102
      7  NAH       -3.3980  -34.5860   22.8120 N.pl3 1500  RW31500    -0.2838
      8  CAG       -4.2900  -33.8660   22.1230 C.2   1500  RW31500     0.1679
      9  NAF       -3.9150  -33.5890   20.8980 N.2   1500  RW31500    -0.3910
     10  CAE       -4.6400  -32.8670   20.0580 C.ar  1500  RW31500     0.1323
     11  CAD       -4.2150  -32.5920   18.7750 C.ar  1500  RW31500     0.0321
     12  CAC       -4.9650  -31.8210   17.9220 C.ar  1500  RW31500     0.0026
     13  CAK       -6.1580  -31.3280   18.3470 C.ar  1500  RW31500     0.0002
     14  CAL       -6.5800  -31.6050   19.6150 C.ar  1500  RW31500     0.0022
     15  CAM       -5.8240  -32.3670   20.4710 C.ar  1500  RW31500     0.0259
     16  CAN       -6.2400  -32.6400   21.7340 C.2   1500  RW31500    -0.0113
     17  CAO       -5.4760  -33.3900   22.6040 C.3   1500  RW31500     0.1380
     18  CAR       -6.0490  -33.5880   23.9980 C.3   1500  RW31500     0.2444
     19  NAV       -6.6520  -32.3230   24.4460 N.pl3 1500  RW31500    -0.0788
     20  NBA       -7.8040  -32.0440   24.2510 N.2   1500  RW31500    -0.0912
     21  C6        -6.0640  -31.3560   25.0500 C.2   1500  RW31500     0.3406
     22  N1        -4.8410  -31.1960   25.4620 N.2   1500  RW31500    -0.0088
     23  C2        -4.4730  -30.1130   26.0630 C.3   1500  RW31500     0.5248
     24  N3        -5.2870  -29.1490   26.2810 N.2   1500  RW31500    -0.0027
     25  C4        -6.5180  -29.2330   25.9040 C.2   1500  RW31500     0.4081
     26  NAZ       -7.2360  -28.2130   26.1890 N.pl3 1500  RW31500     0.2118
     27  C5        -6.9770  -30.3760   25.2630 C.3   1500  RW31500     0.2639
     28  CBB       -8.1310  -30.8700   24.6830 C.2   1500  RW31500     0.1223
     29  CBD       -9.4260  -30.3630   24.5890 C.2   1500  RW31500     0.0152
     30  CBC      -10.2780  -30.6480   23.5400 C.2   1500  RW31500    -0.0068
     31  CBE       -9.9450  -29.6130   25.5820 C.2   1500  RW31500     0.0033
     32  CBH      -11.2170  -29.1400   25.5240 C.2   1500  RW31500     0.0289
     33  CBG      -12.0440  -29.4030   24.4930 C.2   1500  RW31500     0.1255
     34  NBO      -13.2850  -29.0130   24.3420 N.2   1500  RW31500    -0.3821
     35  CBF      -11.5810  -30.1660   23.4630 C.3   1500  RW31500     0.1296
     36  SBJ      -12.8390  -30.2800   22.4170 S.3   1500  RW31500    -0.0544
     37  CBN      -13.8520  -29.4250   23.2530 C.2   1500  RW31500     0.2332
     38  NBM      -15.0740  -29.1100   22.9450 N.am  1500  RW31500    -0.1437
     39  CBL      -15.4920  -29.5890   21.8220 C.2   1500  RW31500     0.2486
     40  CBK      -16.8860  -29.2460   21.3860 C.3   1500  RW31500     0.0969
     41  OBI      -14.7740  -30.2940   21.1760 O.2   1500  RW31500    -0.2729
@<TRIPOS>BOND
     1    12    13   ar
     2    12    11   ar
     3    13    14   ar
     4    11    10   ar
     5    14    15   ar
     6    10    15   ar
     7    10     9    2
     8    15    16    2
     9     9     8    2
    10    41    39    2
    11    40    39    1
    12    16    17    1
    13    39    38   am
    14     8    17    1
    15     8     7    1
    16    36    37    1
    17    36    35    1
    18    17    18    1
    19     6     7    1
    20     6     5    1
    21     7     1    1
    22    38    37    1
    23    37    34    2
    24    35    30    1
    25    35    33    1
    26    30    29    2
    27     1     2    1
    28     5     3    1
    29    18    19    1
    30     3     2    1
    31     3     4    1
    32    20    19    1
    33    20    28    2
    34    34    33    2
    35    19    21    1
    36    33    32    1
    37    29    28    1
    38    29    31    1
    39    28    27    1
    40    21    27    1
    41    21    22    2
    42    27    25    1
    43    22    23    1
    44    32    31    2
    45    25    26    1
    46    25    24    2
    47    23    24    1
