@<TRIPOS>MOLECULE
2wxk_RW4_A_1.pdb
 38 44 0 0 0
SMALL
GASTEIGER

@<TRIPOS>ATOM
      1  CAA       13.5220   -1.6130   23.1580 C.3   1500  RW41500     0.1105
      2  CAB       14.0270   -0.8820   24.4470 C.3   1500  RW41500     0.0939
      3  NAI       15.5460   -1.0440   24.4290 N.3   1500  RW41500    -0.2686
      4  CAJ       16.0400   -0.6250   23.0450 C.3   1500  RW41500     0.0897
      5  CAQ       15.9520   -2.5120   24.7130 C.3   1500  RW41500     0.0939
      6  CAP       15.5480   -3.3880   23.5030 C.3   1500  RW41500     0.1105
      7  NAH       14.1980   -2.9730   22.9890 N.pl3 1500  RW41500    -0.2809
      8  CAG       13.5050   -3.9130   22.2230 C.2   1500  RW41500     0.1832
      9  NAF       13.2070   -3.5350   20.9430 N.2   1500  RW41500    -0.3872
     10  CAE       12.5550   -4.3940   20.1250 C.2   1500  RW41500     0.1324
     11  CAD       12.2560   -3.9550   18.8170 C.2   1500  RW41500     0.0279
     12  CAC       11.5610   -4.8420   17.9650 C.2   1500  RW41500    -0.0188
     13  CAK       11.1710   -6.1440   18.4420 C.3   1500  RW41500     0.0522
     14  CAL       11.4600   -6.5730   19.7630 C.2   1500  RW41500    -0.0189
     15  CAM       12.1680   -5.6880   20.6010 C.2   1500  RW41500     0.0256
     16  CAN       12.4650   -6.0830   21.9130 C.2   1500  RW41500     0.0059
     17  CAO       13.1460   -5.1830   22.7380 C.2   1500  RW41500     0.0706
     18  CAR       13.4360   -5.6390   24.1580 C.3   1500  RW41500     0.2621
     19  NAV       12.1780   -6.3350   24.5620 N.pl3 1500  RW41500    -0.0747
     20  NBA       11.9840   -7.5600   24.3800 N.2   1500  RW41500    -0.0909
     21  C6        11.0990   -5.7410   25.1300 C.2   1500  RW41500     0.3409
     22  N1        10.8200   -4.4800   25.4920 N.2   1500  RW41500    -0.0088
     23  C2         9.6270   -4.1940   26.0470 C.3   1500  RW41500     0.5248
     24  N3         8.6780   -5.1140   26.2540 N.2   1500  RW41500    -0.0027
     25  C4         8.9360   -6.4040   25.9220 C.2   1500  RW41500     0.4081
     26  NAZ        7.9920   -7.3270   26.1190 N.pl3 1500  RW41500     0.2118
     27  C5        10.1530   -6.7320   25.3450 C.3   1500  RW41500     0.2639
     28  CBB       10.7410   -7.8650   24.8440 C.2   1500  RW41500     0.1223
     29  CBD       10.1560   -9.1140   24.8280 C.2   1500  RW41500     0.0149
     30  CBC       10.5060   -9.9740   23.7860 C.2   1500  RW41500     0.0098
     31  CBF        9.9620  -11.2320   23.7640 C.2   1500  RW41500     0.0589
     32  SBI       10.1890  -12.5350   22.6460 S.3   1500  RW41500    -0.0348
     33  CBK        9.0890  -13.5920   23.4840 C.2   1500  RW41500     0.2498
     34  NBJ        8.8020  -14.8320   23.0870 N.pl3 1500  RW41500    -0.0864
     35  NBL        8.5860  -12.9680   24.5710 N.2   1500  RW41500    -0.3810
     36  CBG        9.0400  -11.6860   24.7540 C.2   1500  RW41500     0.1217
     37  CBH        8.7000  -10.8100   25.7900 C.3   1500  RW41500     0.0856
     38  CBE        9.2690   -9.5220   25.8250 C.2   1500  RW41500    -0.0173
@<TRIPOS>BOND
     1    12    13    1
     2    12    11    2
     3    13    14    1
     4    11    10    1
     5    14    15    2
     6    10    15    1
     7    10     9    2
     8    15    16    1
     9     9     8    2
    10    16    17    2
    11     8    17    1
    12     8     7    1
    13    32    33    1
    14    32    31    1
    15    17    18    1
    16     7     1    1
    17     7     6    1
    18     4     3    1
    19    34    33    1
    20     1     2    1
    21    33    35    2
    22     6     5    1
    23    31    30    2
    24    31    36    1
    25    30    29    1
    26    18    19    1
    27    20    19    1
    28    20    28    2
    29     3     2    1
    30     3     5    1
    31    19    21    1
    32    35    36    2
    33    36    37    1
    34    29    28    1
    35    29    38    2
    36    28    27    1
    37    21    27    1
    38    21    22    2
    39    27    25    1
    40    22    23    1
    41    37    38    1
    42    25    26    1
    43    25    24    2
    44    23    24    1
