@<TRIPOS>MOLECULE
2wxl_ZS4_A_1.pdb
 30 34 0 0 0
SMALL
GASTEIGER

@<TRIPOS>ATOM
      1  CAQ       -7.5110  -28.0780   25.9180 C.3   1500  ZS41500     0.1353
      2  CAR       -7.0300  -27.9800   27.3500 C.3   1500  ZS41500     0.1644
      3  OAW       -5.5830  -28.2150   27.5130 O.3   1500  ZS41500    -0.3501
      4  CBB       -5.2460  -29.5300   27.1160 C.3   1500  ZS41500     0.1644
      5  CBA       -5.5840  -29.6670   25.6300 C.3   1500  ZS41500     0.1353
      6  NAV       -6.9920  -29.3460   25.3590 N.pl3 1500  ZS41500    -0.2278
      7  CAU       -7.7880  -30.1570   24.5430 C.1   1500  ZS41500     0.2250
      8  NAP       -9.0290  -29.7930   24.1990 N.2   1500  ZS41500    -0.2458
      9  NAT       -7.2810  -31.3140   24.0760 N.2   1500  ZS41500    -0.2464
     10  CAS       -8.0340  -32.0800   23.2730 C.1   1500  ZS41500     0.2250
     11  NAY       -7.5150  -33.2950   22.8330 N.pl3 1500  ZS41500    -0.2278
     12  CAZ       -6.1660  -33.7130   23.2380 C.3   1500  ZS41500     0.1353
     13  CAI       -6.1750  -35.1530   23.7390 C.3   1500  ZS41500     0.1644
     14  OBD       -7.2780  -35.9880   23.2920 O.3   1500  ZS41500    -0.3501
     15  CBC       -8.5400  -35.4890   22.7600 C.3   1500  ZS41500     0.1644
     16  CAX       -8.3580  -34.1780   22.0260 C.3   1500  ZS41500     0.1353
     17  NAN       -9.2780  -31.7070   22.9160 N.2   1500  ZS41500    -0.2458
     18  CAO       -9.7640  -30.5370   23.3770 C.1   1500  ZS41500     0.2345
     19  NAJ      -10.9950  -30.1820   23.0430 N.pl3 1500  ZS41500    -0.1609
     20  CAK      -11.8090  -29.4450   23.7730 C.2   1500  ZS41500     0.0948
     21  CAL      -11.6630  -28.7950   24.9980 C.2   1500  ZS41500    -0.0029
     22  CAM      -12.7350  -28.0540   25.4820 C.3   1500  ZS41500     0.0535
     23  CAH      -13.9300  -27.9690   24.7660 C.2   1500  ZS41500    -0.0187
     24  CAG      -14.0570  -28.6190   23.5370 C.2   1500  ZS41500     0.0292
     25  CAF      -12.9940  -29.3580   23.0570 C.2   1500  ZS41500     0.1469
     26  NAE      -12.8620  -30.0320   21.9300 N.2   1500  ZS41500    -0.3831
     27  CAD      -11.6590  -30.5610   21.9540 C.2   1500  ZS41500     0.2444
     28  CAC      -11.0970  -31.3580   20.8130 C.3   1500  ZS41500     0.3848
     29  FA       -11.9900  -31.4910   19.8050 F     1500  ZS41500    -0.1887
     30  FB       -10.2510  -30.4460   20.2820 F     1500  ZS41500    -0.1887
@<TRIPOS>BOND
     1    29    28    1
     2    30    28    1
     3    28    27    1
     4    26    27    2
     5    26    25    2
     6    27    19    1
     7    16    15    1
     8    16    11    1
     9    15    14    1
    10    11    12    1
    11    11    10    1
    12    17    10    2
    13    17    18    2
    14    19    18    1
    15    19    20    1
    16    25    24    1
    17    25    20    1
    18    12    13    1
    19    10     9    2
    20    14    13    1
    21    18     8    2
    22    24    23    2
    23    20    21    2
    24     9     7    2
    25     8     7    2
    26     7     6    1
    27    23    22    1
    28    21    22    1
    29     6     5    1
    30     6     1    1
    31     5     4    1
    32     1     2    1
    33     4     3    1
    34     2     3    1
