@<TRIPOS>MOLECULE
2wxm_ZZM_A_1.pdb
 21 23 0 0 0
SMALL
GASTEIGER

@<TRIPOS>ATOM
      1  CAA       -4.4840   -2.3900   24.1090 C.3   1500  ZZM1500     0.0532
      2  CAB       -5.9100   -2.0270   23.6960 C.3   1500  ZZM1500     0.1876
      3  CAC       -6.8930   -3.1060   24.1140 C.3   1500  ZZM1500     0.0532
      4  NAE       -6.4190   -0.6920   24.1920 N.pl3 1500  ZZM1500    -0.0833
      5  NAD       -7.5620   -0.3290   23.8730 N.2   1500  ZZM1500    -0.0830
      6  C6        -5.8250    0.2810   24.9200 C.2   1500  ZZM1500     0.3412
      7  N1        -4.6230    0.4490   25.5040 N.2   1500  ZZM1500    -0.0087
      8  C2        -4.2880    1.5470   26.1820 C.3   1500  ZZM1500     0.5248
      9  N3        -5.1380    2.5370   26.3280 N.2   1500  ZZM1500    -0.0026
     10  C4        -6.3750    2.4660   25.7580 C.2   1500  ZZM1500     0.4088
     11  NAN       -7.2180    3.4860   25.8750 N.pl3 1500  ZZM1500     0.2118
     12  C5        -6.7310    1.3200   25.0380 C.3   1500  ZZM1500     0.2717
     13  CAI       -7.8080    0.8930   24.3130 C.2   1500  ZZM1500     0.1641
     14  CAM       -9.0470    1.5480   24.1570 C.1   1500  ZZM1500    -0.0401
     15  CAO      -10.1100    1.9990   23.9460 C.1   1500  ZZM1500    -0.0569
     16  CAP      -11.3890    2.4550   23.6400 C.ar  1500  ZZM1500     0.0612
     17  CAQ      -11.9760    3.4370   24.4120 C.ar  1500  ZZM1500     0.0114
     18  CAR      -13.2480    3.8660   24.0550 C.ar  1500  ZZM1500     0.0213
     19  CAU      -13.8810    3.2860   22.9650 C.ar  1500  ZZM1500     0.0989
     20  NAT      -13.2930    2.3490   22.2520 N.ar  1500  ZZM1500    -0.2417
     21  CAS      -12.0790    1.9050   22.5670 C.ar  1500  ZZM1500     0.1071
@<TRIPOS>BOND
     1    20    21   ar
     2    20    19   ar
     3    21    16   ar
     4    19    18   ar
     5    16    15    1
     6    16    17   ar
     7     2     1    1
     8     2     3    1
     9     2     4    1
    10     5     4    1
    11     5    13    2
    12    15    14    3
    13    18    17   ar
    14    14    13    1
    15     4     6    1
    16    13    12    1
    17     6    12    1
    18     6     7    2
    19    12    10    1
    20     7     8    1
    21    10    11    1
    22    10     9    2
    23     8     9    1
