@<TRIPOS>MOLECULE
2wxn_DLN_A_1.pdb
 22 24 0 0 0
SMALL
GASTEIGER

@<TRIPOS>ATOM
      1  C20        6.9700   -3.0320  -23.8510 C.3   1500  DLN1500     0.0532
      2  C19        5.8570   -1.9700  -23.8410 C.3   1500  DLN1500     0.1876
      3  C21        4.5950   -2.4140  -24.5800 C.3   1500  DLN1500     0.0532
      4  N7         6.3940   -0.6710  -24.3200 N.pl3 1500  DLN1500    -0.0833
      5  N8         7.5340   -0.3280  -23.9720 N.2   1500  DLN1500    -0.0830
      6  C3         5.7880    0.3200  -25.0250 C.2   1500  DLN1500     0.3412
      7  N2         4.5650    0.5180  -25.5790 N.2   1500  DLN1500    -0.0087
      8  C1         4.2970    1.6600  -26.2690 C.3   1500  DLN1500     0.5248
      9  N6         5.1800    2.6850  -26.3400 N.2   1500  DLN1500    -0.0026
     10  C5         6.4050    2.5200  -25.7720 C.2   1500  DLN1500     0.4088
     11  N10        7.3300    3.4240  -25.8510 N.pl3 1500  DLN1500     0.2118
     12  C4         6.7170    1.3510  -25.1220 C.3   1500  DLN1500     0.2717
     13  C11       10.0730    2.1020  -24.1050 C.1   1500  DLN1500    -0.0583
     14  C12       11.4180    2.5300  -24.0440 C.ar  1500  DLN1500     0.0452
     15  C13       12.1460    2.2050  -22.9390 C.ar  1500  DLN1500     0.0503
     16  C17       12.0050    3.1930  -25.1250 C.ar  1500  DLN1500     0.0085
     17  C16       13.3420    3.6060  -25.0980 C.ar  1500  DLN1500     0.0039
     18  C15       14.0580    3.3080  -23.9720 C.ar  1500  DLN1500     0.0421
     19  C14       13.4720    2.6040  -22.9060 C.ar  1500  DLN1500     0.1964
     20  O18       14.2300    2.2930  -21.7910 O.3   1500  DLN1500    -0.2865
     21  CAI        7.8070    0.9000  -24.4410 C.2   1500  DLN1500     0.1641
     22  CAM        8.9980    1.6130  -24.2600 C.1   1500  DLN1500    -0.0402
@<TRIPOS>BOND
     1     9     8    1
     2     9    10    2
     3     8     7    1
     4    11    10    1
     5    10    12    1
     6     7     6    2
     7    16    17   ar
     8    16    14   ar
     9    12     6    1
    10    12    21    1
    11    17    18   ar
    12     6     4    1
    13     3     2    1
    14    21    22    1
    15    21     5    2
    16     4     5    1
    17     4     2    1
    18    22    13    3
    19    13    14    1
    20    14    15   ar
    21    18    19   ar
    22     1     2    1
    23    15    19   ar
    24    19    20    1
