@<TRIPOS>MOLECULE
2wxo_ZZP_A_1.pdb
 32 35 0 0 0
SMALL
GASTEIGER

@<TRIPOS>ATOM
      1  CAY       -7.5640    4.0520   27.5910 C.3   1500  ZZP1500     0.2525
      2  OBE       -6.2560    3.4840   27.4510 O.3   1500  ZZP1500    -0.4713
      3  CAK       -6.1360    2.4880   26.5310 C.ar  1500  ZZP1500     0.1431
      4  CBF       -7.1620    2.1520   25.6350 C.ar  1500  ZZP1500     0.0537
      5  CAW       -4.9130    1.8030   26.5050 C.ar  1500  ZZP1500     0.0738
      6  CBB       -4.7100    0.7750   25.5730 C.ar  1500  ZZP1500     0.1431
      7  OBC       -3.5200    0.0980   25.5300 O.3   1500  ZZP1500    -0.4713
      8  CBD       -3.5840   -1.1230   24.7280 C.3   1500  ZZP1500     0.2525
      9  CBA       -5.7340    0.4440   24.6840 C.ar  1500  ZZP1500     0.0537
     10  CAZ       -6.9550    1.1210   24.7050 C.ar  1500  ZZP1500     0.0792
     11  NAX       -7.8420    0.7120   23.7990 N.pl3 1500  ZZP1500    -0.1800
     12  CAR       -9.1350    1.0590   23.6740 C.2   1500  ZZP1500     0.2503
     13  NAS       -9.7420    1.9390   24.5120 N.2   1500  ZZP1500    -0.3828
     14  CAT      -11.0500    2.2330   24.3620 C.2   1500  ZZP1500     0.1407
     15  CAU      -11.6910    3.1200   25.2240 C.3   1500  ZZP1500     0.0870
     16  CAV      -13.0420    3.4370   25.0460 C.2   1500  ZZP1500    -0.0227
     17  CAQ      -13.7580    2.8620   24.0050 C.2   1500  ZZP1500    -0.0227
     18  CAP      -13.1290    1.9600   23.1390 C.3   1500  ZZP1500     0.0870
     19  CAO      -11.7750    1.6560   23.3280 C.2   1500  ZZP1500     0.1408
     20  NAN      -11.1610    0.8080   22.4940 N.2   1500  ZZP1500    -0.3818
     21  CAM       -9.8770    0.4930   22.6270 C.2   1500  ZZP1500     0.2663
     22  NAL       -9.3400   -0.3710   21.7620 N.pl3 1500  ZZP1500    -0.0601
     23  SAI      -10.2620   -1.1940   20.6460 S.O2  1500  ZZP1500     0.0952
     24  OAJ       -9.3680   -1.9230   19.7110 O.2   1500  ZZP1500    -0.1482
     25  OAH      -11.1650   -0.2160   19.8920 O.2   1500  ZZP1500    -0.1482
     26  CAG      -11.2530   -2.3360   21.5280 C.ar  1500  ZZP1500     0.1273
     27  CAF      -12.6140   -2.4320   21.2520 C.ar  1500  ZZP1500     0.0226
     28  CAE      -13.3940   -3.3340   21.9640 C.ar  1500  ZZP1500     0.0310
     29  CAB      -12.7940   -4.1360   22.9450 C.ar  1500  ZZP1500     0.1402
     30  FAA      -13.5550   -5.0060   23.6260 F     1500  ZZP1500    -0.2042
     31  CAC      -11.4260   -4.0570   23.2190 C.ar  1500  ZZP1500     0.0310
     32  CAD      -10.6560   -3.1410   22.5020 C.ar  1500  ZZP1500     0.0226
@<TRIPOS>BOND
     1    24    23    2
     2    25    23    2
     3    23    26    1
     4    23    22    1
     5    27    26   ar
     6    27    28   ar
     7    26    32   ar
     8    22    21    1
     9    28    29   ar
    10    20    21    2
    11    20    19    2
    12    32    31   ar
    13    21    12    1
    14    29    31   ar
    15    29    30    1
    16    18    19    1
    17    18    17    1
    18    19    14    1
    19    12    11    1
    20    12    13    2
    21    11    10    1
    22    17    16    2
    23    14    13    2
    24    14    15    1
    25     9    10   ar
    26     9     6   ar
    27    10     4   ar
    28     8     7    1
    29    16    15    1
    30     7     6    1
    31     6     5   ar
    32     4     3   ar
    33     5     3   ar
    34     3     2    1
    35     2     1    1
