@<TRIPOS>MOLECULE
2wxp_GD9_A_1.pdb
 35 40 0 0 0
SMALL
GASTEIGER

@<TRIPOS>ATOM
      1  O3        -5.9970    2.5050   27.6560 O.3   1500  GD91500    -0.3501
      2  C4        -7.9800    0.5790   24.6830 C.2   1500  GD91500     0.1896
      3  C5        -6.7160   -2.9640   23.8270 C.2   1500  GD91500     0.0223
      4  C6        -7.9350   -2.7570   23.3360 C.2   1500  GD91500     0.0331
      5  N1        -9.6310   -1.0480   23.2290 N.2   1500  GD91500    -0.3429
      6  C7        -5.8510   -4.2110   23.7280 C.3   1500  GD91500     0.1055
      7  C8       -11.2320    0.6570   23.2190 C.ar  1500  GD91500     0.0887
      8  N2        -9.1600    1.0030   24.2860 N.2   1500  GD91500    -0.3279
      9  C9        -5.7630   -5.9570   22.1500 C.3   1500  GD91500     0.0918
     10  C10       -5.8460   -6.2710   20.6410 C.3   1500  GD91500     0.1128
     11  C11       -3.9580   -4.6730   20.5110 C.3   1500  GD91500     0.1128
     12  C12       -4.2790   -4.0140   21.8760 C.3   1500  GD91500     0.0918
     13  N3        -7.1840    1.4710   25.3990 N.pl3 1500  GD91500    -0.2801
     14  C13       -4.1790   -7.3910   18.2580 C.3   1500  GD91500     0.1960
     15  C14       -5.7460    1.2460   25.5190 C.3   1500  GD91500     0.1250
     16  C15       -5.1950    1.5730   26.9190 C.3   1500  GD91500     0.1636
     17  N4        -5.5780   -4.5120   22.3420 N.3   1500  GD91500    -0.2660
     18  O2        -6.1870   -5.7400   17.5140 O.2   1500  GD91500    -0.1572
     19  S2        -4.8840   -5.7400   18.2520 S.O2  1500  GD91500     0.0457
     20  O1        -3.9200   -4.8000   17.5660 O.2   1500  GD91500    -0.1572
     21  N5        -5.1730   -5.2130   19.8460 N.3   1500  GD91500    -0.1565
     22  S1        -6.1620   -1.6210   24.6140 S.3   1500  GD91500    -0.1017
     23  C2        -8.4340   -1.5370   23.5720 C.2   1500  GD91500     0.1397
     24  C1        -7.5790   -0.7110   24.3300 C.3   1500  GD91500     0.1719
     25  C3        -9.9740    0.2100   23.5640 C.1   1500  GD91500     0.1386
     26  C18      -11.8750    0.0980   22.1160 C.ar  1500  GD91500     0.0122
     27  C19      -13.1780    0.5240   21.7810 C.ar  1500  GD91500     0.0024
     28  C20      -13.8210    1.4830   22.5740 C.ar  1500  GD91500     0.0210
     29  C21      -13.1820    2.0130   23.7010 C.ar  1500  GD91500     0.1051
     30  N6       -13.5510    2.9060   24.6310 N.ar  1500  GD91500    -0.1479
     31  C22      -11.9050    1.5970   24.0170 C.ar  1500  GD91500     0.0516
     32  C23      -11.6100    2.2800   25.1200 C.ar  1500  GD91500     0.1244
     33  N7       -12.6470    3.0590   25.4530 N.ar  1500  GD91500    -0.1463
     34  C16       -6.8560    3.3550   26.9210 C.3   1500  GD91500     0.1636
     35  C17       -7.7840    2.7040   25.9460 C.3   1500  GD91500     0.1250
@<TRIPOS>BOND
     1    18    19    2
     2    20    19    2
     3    19    14    1
     4    19    21    1
     5    21    11    1
     6    21    10    1
     7    11    12    1
     8    10     9    1
     9    27    26   ar
    10    27    28   ar
    11    12    17    1
    12    26     7   ar
    13     9    17    1
    14    17     6    1
    15    28    29   ar
    16     7    25    1
    17     7    31   ar
    18     5    25    2
    19     5    23    2
    20     4    23    1
    21     4     3    2
    22    25     8    2
    23    23    24    1
    24    29    31   ar
    25    29    30   ar
    26     6     3    1
    27     3    22    1
    28    31    32   ar
    29     8     2    2
    30    24    22    1
    31    24     2    1
    32    30    33   ar
    33     2    13    1
    34    32    33   ar
    35    13    15    1
    36    13    35    1
    37    15    16    1
    38    35    34    1
    39    16     1    1
    40    34     1    1
