@<TRIPOS>MOLECULE
2wxq_ZZQ_A_1.pdb
 34 38 0 0 0
SMALL
GASTEIGER

@<TRIPOS>ATOM
      1  CBC       -8.3510   -3.5750   18.4390 C.3   1500  ZZQ1500     0.2525
      2  OBB       -7.8410   -4.1670   19.6450 O.3   1500  ZZQ1500    -0.4702
      3  CBG       -7.5720   -5.4930   19.4000 C.ar  1500  ZZQ1500     0.1527
      4  CBH       -8.5970   -6.4330   19.1520 C.ar  1500  ZZQ1500     0.0382
      5  CBE       -8.2660   -7.7640   18.9310 C.ar  1500  ZZQ1500     0.0032
      6  CBD       -6.9320   -8.1620   18.9570 C.ar  1500  ZZQ1500     0.0015
      7  CAU       -5.9090   -7.2400   19.1850 C.ar  1500  ZZQ1500     0.0184
      8  CBF       -6.2320   -5.8900   19.3820 C.ar  1500  ZZQ1500     0.0947
      9  NAT       -5.1820   -4.9780   19.6640 N.am  1500  ZZQ1500    -0.2040
     10  CAS       -4.2650   -4.4410   18.7240 C.2   1500  ZZQ1500     0.2413
     11  OBA       -4.3200   -4.7050   17.5130 O.2   1500  ZZQ1500    -0.2737
     12  CAR       -3.2670   -3.5800   19.1830 C.3   1500  ZZQ1500     0.1253
     13  CAQ       -2.2940   -2.9860   18.1920 C.3   1500  ZZQ1500     0.0159
     14  CAP       -1.0580   -2.3920   18.8880 C.3   1500  ZZQ1500     0.0013
     15  CAB       -1.3140   -1.5980   20.1910 C.3   1500  ZZQ1500     0.0071
     16  CAC       -2.1390   -2.3540   21.2460 C.3   1500  ZZQ1500     0.0550
     17  CAD       -3.2010   -3.2800   20.5650 C.2   1500  ZZQ1500     0.0972
     18  NAE       -4.0930   -3.8290   21.4000 N.2   1500  ZZQ1500    -0.3883
     19  CAF       -5.0520   -4.6420   20.9870 C.2   1500  ZZQ1500     0.2198
     20  SAG       -6.2110   -5.3170   22.0980 S.3   1500  ZZQ1500    -0.0565
     21  CAH       -5.9950   -4.2380   23.5960 C.3   1500  ZZQ1500     0.1527
     22  CAI       -7.2030   -3.3310   23.3650 C.2   1500  ZZQ1500     0.2570
     23  OAA       -8.1870   -3.7290   22.7120 O.2   1500  ZZQ1500    -0.2720
     24  NAJ       -7.1450   -2.0800   23.6940 N.am  1500  ZZQ1500    -0.1784
     25  CAK       -6.3590   -1.2370   24.3270 C.ar  1500  ZZQ1500     0.0750
     26  CAL       -7.1070   -0.1110   24.6810 C.ar  1500  ZZQ1500     0.0372
     27  CAM       -6.5770    0.9620   25.3200 C.ar  1500  ZZQ1500     0.1002
     28  NAN       -7.3760    2.0090   25.6340 N.ar  1500  ZZQ1500    -0.2406
     29  CAO       -6.8800    3.0740   26.2550 C.ar  1500  ZZQ1500     0.1195
     30  CAZ       -5.5190    3.0480   26.5740 C.ar  1500  ZZQ1500     0.1195
     31  NAY       -4.7330    2.0030   26.2580 N.ar  1500  ZZQ1500    -0.2407
     32  CAX       -5.2220    0.9250   25.6080 C.ar  1500  ZZQ1500     0.0990
     33  CAW       -4.4320   -0.1910   25.2600 C.ar  1500  ZZQ1500     0.0220
     34  CAV       -4.9990   -1.3110   24.5980 C.ar  1500  ZZQ1500     0.0182
@<TRIPOS>BOND
     1    11    10    2
     2    13    14    1
     3    13    12    1
     4     1     2    1
     5    10    12    1
     6    10     9   am
     7    14    15    1
     8     5     6   ar
     9     5     4   ar
    10     6     7   ar
    11     4     3   ar
    12    12    17    1
    13     7     8   ar
    14     8     3   ar
    15     8     9    1
    16     3     2    1
    17     9    19    1
    18    15    16    1
    19    17    16    1
    20    17    18    2
    21    19    18    2
    22    19    20    1
    23    20    21    1
    24    23    22    2
    25    22    21    1
    26    22    24   am
    27    24    25    1
    28    25    34   ar
    29    25    26   ar
    30    34    33   ar
    31    26    27   ar
    32    33    32   ar
    33    27    32   ar
    34    27    28   ar
    35    32    31   ar
    36    28    29   ar
    37    29    30   ar
    38    31    30   ar
