@<TRIPOS>MOLECULE
2wxv_WXV_A_1.pdb
 29 32 0 0 0
SMALL
GASTEIGER

@<TRIPOS>ATOM
      1  C1       -14.5070  206.4150  111.0460 C.ar  1299  WXV1299     0.0043
      2  C2       -15.2010  205.9800  112.3830 C.ar  1299  WXV1299     0.0034
      3  C3       -12.9090  206.1900  113.5670 C.ar  1299  WXV1299     0.1100
      4  C4       -14.2740  205.8200  113.5950 C.ar  1299  WXV1299     0.0437
      5  C5       -14.4490  205.3140  114.9550 C.ar  1299  WXV1299     0.1571
      6  N6       -13.3500  205.3950  115.6520 N.ar  1299  WXV1299    -0.1645
      7  N7       -12.4240  205.9280  114.8370 N.ar  1299  WXV1299    -0.2462
      8  C8       -11.0760  206.1980  115.3250 C.3   1299  WXV1299     0.1538
      9  C9       -15.7260  204.7600  115.5210 C.2   1299  WXV1299     0.2843
     10  O10      -16.7520  204.6590  114.8460 O.2   1299  WXV1299    -0.2666
     11  C11      -13.0410  206.8780  111.1130 C.ar  1299  WXV1299     0.0520
     12  C12      -12.2320  206.7550  112.3870 C.ar  1299  WXV1299     0.1627
     13  N13      -11.0020  207.1170  112.5070 N.2   1299  WXV1299    -0.3348
     14  C14      -10.3900  207.6820  111.3470 C.1   1299  WXV1299     0.1652
     15  N15      -10.9870  207.8440  110.1920 N.2   1299  WXV1299    -0.1686
     16  C16      -12.3080  207.4410  110.0820 C.2   1299  WXV1299     0.1143
     17  N17       -9.1190  208.0670  111.4670 N.pl3 1299  WXV1299    -0.1638
     18  N18      -15.6090  204.4240  116.8170 N.am  1299  WXV1299    -0.1984
     19  C19       -8.3060  207.9550  112.6450 C.3   1299  WXV1299     0.1075
     20  C20       -8.8360  208.6660  113.9470 C.3   1299  WXV1299     0.0416
     21  C21       -7.9500  209.7880  114.4550 C.3   1299  WXV1299     0.0972
     22  N22       -6.5140  209.4100  114.5000 N.3   1299  WXV1299    -0.1593
     23  C23       -5.9670  208.4630  113.4830 C.3   1299  WXV1299     0.0972
     24  C24       -6.8690  208.3940  112.2440 C.3   1299  WXV1299     0.0416
     25  S25       -5.5680  210.0540  115.6110 S.O2  1299  WXV1299     0.0457
     26  C26       -5.7240  208.9480  116.9680 C.3   1299  WXV1299     0.1960
     27  O27       -4.2020  210.0020  115.1630 O.2   1299  WXV1299    -0.1572
     28  O28       -6.1230  211.3210  115.9840 O.2   1299  WXV1299    -0.1572
     29  C29      -16.6720  203.8980  117.6330 C.3   1299  WXV1299     0.1389
@<TRIPOS>BOND
     1    16    15    1
     2    16    11    2
     3    15    14    2
     4     1    11   ar
     5     1     2   ar
     6    11    12   ar
     7    14    17    1
     8    14    13    2
     9    17    19    1
    10    24    19    1
    11    24    23    1
    12     2     4   ar
    13    12    13    2
    14    12     3   ar
    15    19    20    1
    16    23    22    1
    17     3     4   ar
    18     3     7   ar
    19     4     5   ar
    20    20    21    1
    21    21    22    1
    22    22    25    1
    23     7     8    1
    24     7     6   ar
    25    10     9    2
    26     5     9    1
    27     5     6   ar
    28    27    25    2
    29     9    18   am
    30    25    28    2
    31    25    26    1
    32    18    29    1
