@<TRIPOS>MOLECULE
2wy4_HEM_A_1.pdb
 43 50 0 0 0
SMALL
GASTEIGER

@<TRIPOS>ATOM
      1  CHA        5.4630   -6.2590    2.1400 C.2   150  HEM150      0.0000
      2  CHB        4.9600   -2.2200    4.7020 C.2   150  HEM150      0.0000
      3  CHC        5.5940   -4.7550    8.7510 C.2   150  HEM150      0.0000
      4  CHD        6.7420   -8.6680    6.1180 C.2   150  HEM150      0.0000
      5  C1A        5.1920   -4.9840    2.4670 C.ar  150  HEM150      0.0000
      6  C2A        4.8650   -3.9160    1.5710 C.ar  150  HEM150      0.0000
      7  C3A        4.7370   -2.7720    2.2680 C.ar  150  HEM150      0.0000
      8  C4A        4.9980   -3.1230    3.6510 C.ar  150  HEM150      0.0000
      9  CMA        4.3700   -1.3890    1.7100 C.3   150  HEM150      0.0000
     10  CAA        4.6790   -4.0870    0.0430 C.3   150  HEM150      0.0000
     11  CBA        3.4870   -4.9900   -0.2830 C.3   150  HEM150      0.0000
     12  CGA        2.1730   -4.3320   -0.5540 C.2   150  HEM150      0.0000
     13  O1A        2.1320   -3.0970   -0.7970 O.co2 150  HEM150      0.0000
     14  O2A        1.1410   -5.0920   -0.5870 O.co2 150  HEM150      0.0000
     15  C1B        5.1210   -2.5550    6.0200 C.2   150  HEM150      0.0000
     16  C2B        5.0110   -1.6560    7.1120 C.2   150  HEM150      0.0000
     17  C3B        5.1830   -2.3640    8.2410 C.2   150  HEM150      0.0000
     18  C4B        5.4050   -3.7220    7.8870 C.2   150  HEM150      0.0000
     19  CMB        4.8220   -0.1500    6.9850 C.3   150  HEM150      0.0000
     20  CAB        5.2140   -1.8920    9.7010 C.2   150  HEM150      0.0000
     21  CBB        4.3300   -1.0340   10.1770 C.2   150  HEM150      0.0000
     22  C1C        5.9100   -6.0540    8.4300 C.ar  150  HEM150      0.0000
     23  C2C        6.1410   -7.1560    9.2960 C.ar  150  HEM150      0.0000
     24  C3C        6.4690   -8.1920    8.5530 C.ar  150  HEM150      0.0000
     25  C4C        6.4980   -7.8000    7.1670 C.ar  150  HEM150      0.0000
     26  CMC        5.9530   -7.1180   10.8210 C.3   150  HEM150      0.0000
     27  CAC        6.8000   -9.5840    9.0650 C.2   150  HEM150      0.0000
     28  CBC        8.0070  -10.1030    8.8070 C.2   150  HEM150      0.0000
     29  C1D        6.4820   -8.3450    4.8010 C.2   150  HEM150      0.0000
     30  C2D        6.6980   -9.2560    3.7430 C.2   150  HEM150      0.0000
     31  C3D        6.3070   -8.5550    2.4910 C.2   150  HEM150      0.0000
     32  C4D        5.8750   -7.2700    2.9320 C.2   150  HEM150      0.0000
     33  CMD        7.2070  -10.6750    3.8690 C.3   150  HEM150      0.0000
     34  CAD        6.3710   -9.0600    1.0600 C.3   150  HEM150      0.0000
     35  CBD        7.5610   -8.3990    0.3710 C.3   150  HEM150      0.0000
     36  CGD        7.9400   -9.0300   -0.9350 C.2   150  HEM150      0.0000
     37  O1D        9.1410   -9.2500   -1.1300 O.co2 150  HEM150      0.0000
     38  O2D        7.0160   -9.2670   -1.7590 O.co2 150  HEM150      0.0000
     39  NA         5.2820   -4.4870    3.7500 N.ar  150  HEM150      0.0000
     40  NB         5.3460   -3.8150    6.5130 N.2   150  HEM150      0.0000
     41  NC         6.1310   -6.4720    7.1260 N.ar  150  HEM150      0.0000
     42  ND         6.0020   -7.1550    4.3050 N.2   150  HEM150      0.0000
     43 FE          5.6730   -5.4840    5.4160 Fe    150  HEM150      0.0000
@<TRIPOS>BOND
     1    38    36   ar
     2    37    36   ar
     3    36    35    1
     4    13    12   ar
     5    14    12   ar
     6    12    11    1
     7    11    10    1
     8    10     6    1
     9    35    34    1
    10    34    31    1
    11     6     7   ar
    12     6     5   ar
    13     9     7    1
    14     1     5    2
    15     1    32    1
    16     7     8   ar
    17     5    39   ar
    18    31    32    1
    19    31    30    2
    20    32    42    2
    21     8    39   ar
    22     8     2    2
    23    30    33    1
    24    30    29    1
    25    39    43    1
    26    42    29    1
    27    42    43    1
    28     2    15    1
    29    29     4    2
    30    43    40    1
    31    43    41    1
    32    15    40    2
    33    15    16    1
    34     4    25    1
    35    40    18    1
    36    19    16    1
    37    16    17    2
    38    41    25   ar
    39    41    22   ar
    40    25    24   ar
    41    18    17    1
    42    18     3    2
    43    17    20    1
    44    22     3    1
    45    22    23   ar
    46    24    27    1
    47    24    23   ar
    48    28    27    2
    49    23    26    1
    50    20    21    2
