@<TRIPOS>MOLECULE
2wyb_DAO_B_1.pdb
 13 12 0 0 0
SMALL
GASTEIGER

@<TRIPOS>ATOM
      1  O1        36.8810   56.9030   50.8120 O.2   1547  DAO1547    -0.2883
      2  C1        35.7240   57.0970   51.2040 C.2   1547  DAO1547     0.2074
      3  C2        34.9100   56.0140   51.8650 C.3   1547  DAO1547     0.0722
      4  C3        35.5280   55.5180   53.1660 C.3   1547  DAO1547     0.0082
      5  C4        34.7150   54.3290   53.6740 C.3   1547  DAO1547     0.0005
      6  C5        34.8700   54.1230   55.1780 C.3   1547  DAO1547     0.0000
      7  C6        34.4820   52.7070   55.5880 C.3   1547  DAO1547     0.0000
      8  C7        35.0650   52.3620   56.9590 C.3   1547  DAO1547     0.0000
      9  C8        36.0440   51.1850   56.8610 C.3   1547  DAO1547     0.0000
     10  C9        35.4750   49.9730   57.5930 C.3   1547  DAO1547     0.0000
     11  C10       36.1870   48.6680   57.2340 C.3   1547  DAO1547     0.0000
     12  C11       35.5190   47.4820   57.9400 C.3   1547  DAO1547     0.0000
     13  C12       36.3240   46.1930   57.7950 C.3   1547  DAO1547     0.0000
@<TRIPOS>BOND
     1     1     2    2
     2     2     3    1
     3     3     4    1
     4     4     5    1
     5     5     6    1
     6     6     7    1
     7     7     8    1
     8     9     8    1
     9     9    10    1
    10    11    10    1
    11    11    12    1
    12    13    12    1
