@<TRIPOS>MOLECULE
2wyc_3LA_B_1.pdb
 15 14 0 0 0
SMALL
GASTEIGER

@<TRIPOS>ATOM
      1  O21       33.9960   54.9250   52.1720 O.co2 1551  3LA1551    -0.2452
      2  O22       36.0400   55.7520   52.0970 O.co2 1551  3LA1551    -0.2452
      3  C21       35.0430   55.3200   52.7310 C.2   1551  3LA1551     0.3723
      4  C22       35.1010   55.2990   54.2460 C.3   1551  3LA1551     0.1782
      5  C23       34.8160   53.9370   54.8490 C.2   1551  3LA1551     0.1620
      6  C24       34.4730   53.8680   56.3210 C.3   1551  3LA1551     0.0651
      7  C25       34.2380   52.4390   56.7760 C.3   1551  3LA1551     0.0078
      8  C26       35.5740   51.7810   57.0620 C.3   1551  3LA1551     0.0004
      9  C27       35.7170   50.4910   56.2770 C.3   1551  3LA1551     0.0000
     10  C28       35.3370   49.3350   57.1840 C.3   1551  3LA1551     0.0000
     11  C29       36.3480   48.2140   57.0630 C.3   1551  3LA1551     0.0000
     12  C30       35.8860   47.0550   57.9340 C.3   1551  3LA1551     0.0000
     13  C31       36.5750   45.7750   57.4930 C.3   1551  3LA1551     0.0000
     14  C32       35.9910   44.6140   58.2690 C.3   1551  3LA1551     0.0000
     15  O15       34.8730   52.9150   54.1800 O.2   1551  3LA1551    -0.2955
@<TRIPOS>BOND
     1     2     3   ar
     2     1     3   ar
     3     3     4    1
     4    15     5    2
     5     4     5    1
     6     5     6    1
     7     9     8    1
     8     9    10    1
     9     6     7    1
    10     7     8    1
    11    11    10    1
    12    11    12    1
    13    13    12    1
    14    13    14    1
