@<TRIPOS>MOLECULE
2wyd_DAO_B_1.pdb
 14 13 0 0 0
SMALL
GASTEIGER

@<TRIPOS>ATOM
      1  O1        34.6610   56.3780   52.0490 O.co2 1552  DAO1552    -0.2457
      2  O2        36.8120   56.1670   51.7490 O.co2 1552  DAO1552    -0.2457
      3  C1        35.7600   55.8660   52.3560 C.2   1552  DAO1552     0.3649
      4  C2        35.8540   54.8570   53.4830 C.3   1552  DAO1552     0.1141
      5  C3        34.4850   54.3570   53.9500 C.3   1552  DAO1552     0.0118
      6  C4        34.5950   53.0360   54.7200 C.3   1552  DAO1552     0.0006
      7  C5        34.9560   53.2080   56.1920 C.3   1552  DAO1552     0.0000
      8  C6        34.6370   51.9620   57.0330 C.3   1552  DAO1552     0.0000
      9  C7        35.4840   50.7500   56.6400 C.3   1552  DAO1552     0.0000
     10  C8        35.1850   49.5600   57.5500 C.3   1552  DAO1552     0.0000
     11  C9        36.0490   48.3600   57.1800 C.3   1552  DAO1552     0.0000
     12  C10       35.6820   47.1330   58.0200 C.3   1552  DAO1552     0.0000
     13  C11       36.4830   45.8980   57.6060 C.3   1552  DAO1552     0.0000
     14  C12       36.0090   44.6730   58.3750 C.3   1552  DAO1552     0.0000
@<TRIPOS>BOND
     1     2     3   ar
     2     1     3   ar
     3     3     4    1
     4     4     5    1
     5     5     6    1
     6     6     7    1
     7     7     8    1
     8     9     8    1
     9     9    10    1
    10    11    10    1
    11    11    12    1
    12    13    12    1
    13    13    14    1
