@<TRIPOS>MOLECULE
2wyf_MBG_A_1.pdb
 13 13 0 0 0
SMALL
GASTEIGER

@<TRIPOS>ATOM
      1  C1        14.3580   17.2600   79.1750 C.3   202  MBG202      0.2695
      2  C2        13.3610   16.7000   78.1350 C.3   202  MBG202      0.2406
      3  C3        12.1570   15.9910   78.7600 C.3   202  MBG202      0.2198
      4  C4        12.5200   15.1220   79.9630 C.3   202  MBG202      0.2144
      5  C5        13.4790   15.8630   80.8970 C.3   202  MBG202      0.1835
      6  C6        13.9070   15.0270   82.1050 C.3   202  MBG202      0.2142
      7  C7        16.7560   17.0150   78.7720 C.3   202  MBG202      0.1769
      8  O1        15.5590   17.7730   78.5520 O.3   202  MBG202     -0.3259
      9  O2        12.8050   17.7390   77.3330 O.3   202  MBG202     -0.2149
     10  O3        11.5250   15.1960   77.7410 O.3   202  MBG202     -0.2174
     11  O4        13.1260   13.9170   79.4780 O.3   202  MBG202     -0.2176
     12  O5        14.6410   16.2370   80.1440 O.3   202  MBG202     -0.3256
     13  O6        13.9590   15.8540   83.2710 O.3   202  MBG202     -0.2176
@<TRIPOS>BOND
     1     9     2    1
     2    10     3    1
     3     2     3    1
     4     2     1    1
     5     8     7    1
     6     8     1    1
     7     3     4    1
     8     1    12    1
     9    11     4    1
    10     4     5    1
    11    12     5    1
    12     5     6    1
    13     6    13    1
