@<TRIPOS>MOLECULE
2wyf_GLA_A_1.pdb
 11 11 0 0 0
SMALL
GASTEIGER

@<TRIPOS>ATOM
      1  C1        13.6330   18.1100   76.1820 C.3   201  GLA201      0.1777
      2  C2        13.0000   19.3730   75.6300 C.3   201  GLA201      0.2141
      3  C3        11.7170   19.0370   74.8800 C.3   201  GLA201      0.2173
      4  C4        12.0300   18.0270   73.7820 C.3   201  GLA201      0.2142
      5  C5        12.7060   16.7730   74.3500 C.3   201  GLA201      0.1810
      6  C6        13.2730   15.8920   73.2570 C.3   201  GLA201      0.2141
      7  O2        12.7450   20.2520   76.6990 O.3   201  GLA201     -0.2176
      8  O3        11.1800   20.2170   74.3000 O.3   201  GLA201     -0.2175
      9  O4        12.8470   18.6840   72.8310 O.3   201  GLA201     -0.2176
     10  O5        13.7930   17.0740   75.2180 O.3   201  GLA201     -0.3481
     11  O6        13.5870   14.6450   73.8240 O.3   201  GLA201     -0.2176
@<TRIPOS>BOND
     1     9     4    1
     2     6    11    1
     3     6     5    1
     4     4     5    1
     5     4     3    1
     6     8     3    1
     7     5    10    1
     8     3     2    1
     9    10     1    1
    10     2     1    1
    11     2     7    1
