@<TRIPOS>MOLECULE
2wyg_461_A_1.pdb
 30 32 0 0 0
SMALL
GASTEIGER

@<TRIPOS>ATOM
      1 CL1        13.8360    7.4200   26.2020 Cl    1245  4611245    -0.0752
      2  C1        12.1090    7.5820   26.3260 C.ar  1245  4611245     0.0870
      3  C2        11.3530    7.1170   27.3520 C.ar  1245  4611245     0.0185
      4  C3        10.0030    7.4060   27.1510 C.ar  1245  4611245     0.0079
      5  S2        11.2190    8.3990   25.1020 S.2   1245  4611245    -0.0755
      6  C4         9.7450    8.0980   25.9730 C.ar  1245  4611245     0.0317
      7  C5         8.4190    8.5290   25.5310 C.2   1245  4611245     0.0278
      8  C6         8.0760    8.9630   24.3060 C.2   1245  4611245     0.1426
      9  S1         6.4100    9.4180   24.0470 S.O2  1245  4611245     0.0788
     10  O2         6.3680   10.6590   23.3320 O.2   1245  4611245    -0.1515
     11  O1         5.7020    9.2010   25.2630 O.2   1245  4611245    -0.1515
     12  N1         5.8200    8.3890   22.9490 N.3   1245  4611245    -0.0653
     13  C12        5.9590    6.9700   23.1630 C.3   1245  4611245     0.1975
     14  C13        4.6400    6.2160   22.9360 C.2   1245  4611245     0.0185
     15  C14        4.9490    5.0760   21.9490 C.2   1245  4611245     0.0695
     16  C50        6.8880    6.4160   22.0980 C.2   1245  4611245     0.2552
     17  O3         7.9940    6.8560   21.8050 O.2   1245  4611245    -0.2723
     18  N2         6.3140    5.3380   21.5090 N.am  1245  4611245    -0.2328
     19  C15        7.0050    4.5440   20.5530 C.ar  1245  4611245     0.0855
     20  C21        7.5520    5.1550   19.4430 C.ar  1245  4611245     0.1537
     21  F1         7.4000    6.4750   19.2900 F     1245  4611245    -0.2029
     22  C22        7.1680    3.1740   20.7270 C.ar  1245  4611245     0.0172
     23  C26        7.8690    2.4530   19.7590 C.ar  1245  4611245    -0.0015
     24  C27        8.4210    3.0820   18.6320 C.ar  1245  4611245    -0.0055
     25  C24        8.2510    4.4560   18.4800 C.ar  1245  4611245     0.0280
     26  C28        9.1680    2.3280   17.5470 C.3   1245  4611245     0.0803
     27  C7        10.0600    1.1850   18.0630 C.3   1245  4611245     0.0222
     28  N3         8.2200    1.8630   16.5040 N.3   1245  4611245    -0.2679
     29  C11        7.2120    0.8780   16.9330 C.3   1245  4611245     0.0899
     30  C10        7.6100    2.9150   15.6690 C.3   1245  4611245     0.0899
@<TRIPOS>BOND
     1    30    28    1
     2    28    29    1
     3    28    26    1
     4    26    27    1
     5    26    24    1
     6    25    24   ar
     7    25    20   ar
     8    24    23   ar
     9    21    20    1
    10    20    19   ar
    11    23    22   ar
    12    19    22   ar
    13    19    18    1
    14    18    15    1
    15    18    16   am
    16    17    16    2
    17    15    14    2
    18    16    13    1
    19    14    13    1
    20    12    13    1
    21    12     9    1
    22    10     9    2
    23     9     8    1
    24     9    11    2
    25     8     7    2
    26     5     6   ar
    27     5     2   ar
    28     7     6    1
    29     6     4   ar
    30     1     2    1
    31     2     3   ar
    32     4     3   ar
