@<TRIPOS>MOLECULE
2wyi_SWA_A_1.pdb
 12 13 0 0 0
SMALL
GASTEIGER

@<TRIPOS>ATOM
      1  C1        41.0550  -50.4570   22.8850 C.3   1907  SWA1907     0.1691
      2  O1        39.7680  -49.8520   22.8160 O.3   1907  SWA1907    -0.2216
      3  C3        42.1410  -49.4070   22.6570 C.3   1907  SWA1907     0.1214
      4  N4        43.4800  -50.0240   22.7180 N.3   1907  SWA1907    -0.2674
      5  C5        43.7540  -50.4460   24.1090 C.3   1907  SWA1907     0.0724
      6  C6        42.7190  -51.4940   24.5640 C.3   1907  SWA1907     0.0200
      7  C2        41.2640  -51.0730   24.2840 C.3   1907  SWA1907     0.0358
      8  C9        44.3540  -48.9040   22.3160 C.3   1907  SWA1907     0.1082
      9  C8        43.5610  -48.1510   21.2140 C.3   1907  SWA1907     0.1994
     10  O13       44.0880  -48.4570   19.9180 O.3   1907  SWA1907    -0.2189
     11  C7        42.1130  -48.6550   21.3110 C.3   1907  SWA1907     0.2004
     12  O11       41.7990  -49.5060   20.2010 O.3   1907  SWA1907    -0.2188
@<TRIPOS>BOND
     1    10     9    1
     2    12    11    1
     3     9    11    1
     4     9     8    1
     5    11     3    1
     6     8     4    1
     7     3     4    1
     8     3     1    1
     9     4     5    1
    10     2     1    1
    11     1     7    1
    12     5     6    1
    13     7     6    1
