@<TRIPOS>MOLECULE
2wyj_898_A_1.pdb
 30 32 0 0 0
SMALL
GASTEIGER

@<TRIPOS>ATOM
      1 CL1        13.8460    7.2030   26.2060 Cl    1244  8981244    -0.0752
      2  C1        12.1140    7.3220   26.3700 C.ar  1244  8981244     0.0870
      3  C2        11.3460    6.8890   27.4040 C.ar  1244  8981244     0.0185
      4  C3         9.9570    7.1490   27.1930 C.ar  1244  8981244     0.0079
      5  S2        11.2210    8.0530   25.1210 S.2   1244  8981244    -0.0755
      6  C4         9.7400    7.8050   25.9360 C.ar  1244  8981244     0.0317
      7  C5         8.4480    8.2260   25.4220 C.2   1244  8981244     0.0278
      8  C6         8.1810    8.6580   24.1800 C.2   1244  8981244     0.1426
      9  S1         6.5550    9.1380   23.8130 S.O2  1244  8981244     0.0785
     10  O2         6.6210   10.3440   23.0560 O.2   1244  8981244    -0.1515
     11  O1         5.8500    9.1080   25.0740 O.2   1244  8981244    -0.1515
     12  N1         5.8390    8.1320   22.7580 N.3   1244  8981244    -0.0698
     13  C12        5.8520    6.6830   22.8500 C.3   1244  8981244     0.1757
     14  C13        4.5020    6.0540   22.5210 C.3   1244  8981244     0.0506
     15  C14        4.8590    4.7080   21.8690 C.3   1244  8981244     0.1003
     16  C50        6.7830    6.0510   21.8280 C.2   1244  8981244     0.2472
     17  O3         7.8600    6.4720   21.4430 O.2   1244  8981244    -0.2730
     18  N2         6.2280    4.9070   21.3940 N.am  1244  8981244    -0.2554
     19  C15        6.9130    3.9680   20.5730 C.ar  1244  8981244     0.0814
     20  C21        7.6000    4.3670   19.4180 C.ar  1244  8981244     0.1534
     21  F1         7.6320    5.6500   19.0660 F     1244  8981244    -0.2029
     22  C22        6.8770    2.6120   20.9520 C.ar  1244  8981244     0.0169
     23  C26        7.5520    1.6880   20.1400 C.ar  1244  8981244    -0.0015
     24  C27        8.2310    2.1090   18.9730 C.ar  1244  8981244    -0.0055
     25  C24        8.2590    3.4630   18.6070 C.ar  1244  8981244     0.0280
     26  C28        8.9350    1.1180   18.1000 C.3   1244  8981244     0.0803
     27  C8        10.3900    1.5450   17.8440 C.3   1244  8981244     0.0222
     28  N3         8.1890    0.8820   16.8140 N.3   1244  8981244    -0.2679
     29  C9         6.8160    0.3800   17.0150 C.3   1244  8981244     0.0899
     30  C7         8.1850    1.9860   15.8160 C.3   1244  8981244     0.0899
@<TRIPOS>BOND
     1    30    28    1
     2    28    29    1
     3    28    26    1
     4    27    26    1
     5    26    24    1
     6    25    24   ar
     7    25    20   ar
     8    24    23   ar
     9    21    20    1
    10    20    19   ar
    11    23    22   ar
    12    19    22   ar
    13    19    18    1
    14    18    16   am
    15    18    15    1
    16    17    16    2
    17    16    13    1
    18    15    14    1
    19    14    13    1
    20    12    13    1
    21    12     9    1
    22    10     9    2
    23     9     8    1
    24     9    11    2
    25     8     7    2
    26     5     6   ar
    27     5     2   ar
    28     7     6    1
    29     6     4   ar
    30     1     2    1
    31     2     3   ar
    32     4     3   ar
