@<TRIPOS>MOLECULE
2wyk_NGE_A_1.pdb
 22 22 0 0 0
SMALL
GASTEIGER

@<TRIPOS>ATOM
      1  O8         8.3600   -6.0160  -17.5770 O.3   1309  NGE1309    -0.2175
      2  C8         7.4070   -6.4700  -16.5870 C.3   1309  NGE1309     0.2175
      3  C7         7.9560   -7.3890  -15.5440 C.3   1309  NGE1309     0.2173
      4  O7         8.4830   -8.5980  -16.1480 O.3   1309  NGE1309    -0.2175
      5  C6         9.1270   -6.7400  -14.7230 C.3   1309  NGE1309     0.2135
      6  O6         8.6140   -5.5990  -14.0550 O.3   1309  NGE1309    -0.2176
      7  C5         9.8040   -7.7330  -13.7750 C.3   1309  NGE1309     0.1734
      8  O5         8.7180   -8.2510  -12.9870 O.3   1309  NGE1309    -0.3220
      9  C9         7.8140   -9.5320  -11.2830 C.2   1309  NGE1309     0.4179
     10  O9B        7.2360   -8.5130  -10.7750 O.co2 1309  NGE1309    -0.2401
     11  O9A        7.4020  -10.7340  -11.2580 O.co2 1309  NGE1309    -0.2401
     12  O1         9.5400  -10.4030  -12.7950 O.3   1309  NGE1309    -0.1830
     13  C2        10.2210   -8.7620  -11.1690 C.3   1309  NGE1309     0.1056
     14  C3        11.3960   -8.2230  -12.0280 C.3   1309  NGE1309     0.1798
     15  O3        12.4300   -7.7210  -11.1260 O.3   1309  NGE1309    -0.2210
     16  C4        10.8580   -7.0540  -12.9030 C.3   1309  NGE1309     0.1555
     17  N4        11.9380   -6.4480  -13.7500 N.am  1309  NGE1309    -0.1998
     18  C20        9.1030   -9.2580  -12.1060 C.3   1309  NGE1309     0.3155
     19  C10       12.3830   -5.2470  -13.4560 C.2   1309  NGE1309     0.2751
     20  O10       12.0110   -4.6300  -12.4720 O.2   1309  NGE1309    -0.2705
     21  C11       13.3990   -4.6660  -14.3860 C.3   1309  NGE1309     0.2680
     22  O11       13.5420   -5.4150  -15.5570 O.3   1309  NGE1309    -0.2098
@<TRIPOS>BOND
     1     1     2    1
     2     2     3    1
     3     4     3    1
     4    22    21    1
     5     3     5    1
     6     5     6    1
     7     5     7    1
     8    21    19    1
     9     7     8    1
    10     7    16    1
    11    17    19   am
    12    17    16    1
    13    19    20    2
    14     8    18    1
    15    16    14    1
    16    12    18    1
    17    18     9    1
    18    18    13    1
    19    14    13    1
    20    14    15    1
    21     9    11   ar
    22     9    10   ar
