@<TRIPOS>MOLECULE
2wyn_GLC_A_1.pdb
 12 12 0 0 0
SMALL
GASTEIGER

@<TRIPOS>ATOM
      1  C1        -2.9430  -34.0520   41.6730 C.3   1548  GLC1548     0.3024
      2  C2        -2.4520  -35.3270   40.9990 C.3   1548  GLC1548     0.2434
      3  C3        -1.6300  -36.1710   41.9670 C.3   1548  GLC1548     0.2199
      4  C4        -0.4800  -35.3230   42.5030 C.3   1548  GLC1548     0.2144
      5  C5        -1.1030  -34.1320   43.2200 C.3   1548  GLC1548     0.1836
      6  C6        -0.0190  -33.2560   43.8450 C.3   1548  GLC1548     0.2142
      7  O1        -3.9610  -34.3410   42.6200 O.3   1548  GLC1548    -0.1869
      8  O2        -3.5620  -36.0840   40.5350 O.3   1548  GLC1548    -0.2148
      9  O3        -1.1470  -37.3320   41.3090 O.3   1548  GLC1548    -0.2174
     10  O4         0.2960  -36.0710   43.4380 O.3   1548  GLC1548    -0.2176
     11  O5        -1.8990  -33.3740   42.3090 O.3   1548  GLC1548    -0.3236
     12  O6        -0.6230  -32.1020   44.4050 O.3   1548  GLC1548    -0.2176
@<TRIPOS>BOND
     1     8     2    1
     2     2     1    1
     3     2     3    1
     4     9     3    1
     5     1    11    1
     6     1     7    1
     7     3     4    1
     8    11     5    1
     9     4     5    1
    10     4    10    1
    11     5     6    1
    12     6    12    1
