@<TRIPOS>MOLECULE
2wyn_LG9_A_1.pdb
 14 15 0 0 0
SMALL
GASTEIGER

@<TRIPOS>ATOM
      1  O4        -6.9660  -33.9930   46.1990 O.3   1547  LG91547    -0.2204
      2  C9        -6.0120  -33.3210   45.3490 C.3   1547  LG91547     0.1835
      3  C1        -5.8200  -34.0280   43.9960 C.3   1547  LG91547     0.0516
      4  C5        -6.9960  -33.7930   43.0590 C.3   1547  LG91547     0.0933
      5  C4        -7.3270  -34.9300   42.0980 C.3   1547  LG91547     0.1980
      6  O1        -8.4550  -35.6380   42.5670 O.3   1547  LG91547    -0.2189
      7  C6        -7.5570  -34.2950   40.7090 C.3   1547  LG91547     0.2005
      8  O2        -7.4970  -35.2660   39.6570 O.3   1547  LG91547    -0.2188
      9  C7        -6.3640  -33.3710   40.6070 C.3   1547  LG91547     0.1241
     10  C8        -6.4700  -32.1240   39.6950 C.3   1547  LG91547     0.2006
     11  O3        -7.7680  -31.5460   39.7120 O.3   1547  LG91547    -0.2188
     12  N4        -6.2820  -33.0280   42.0560 N.3   1547  LG91547    -0.2684
     13  C3        -5.2720  -32.1550   42.6190 C.3   1547  LG91547     0.0724
     14  C2        -4.6330  -33.2990   43.3880 C.3   1547  LG91547     0.0214
@<TRIPOS>BOND
     1     8     7    1
     2    10    11    1
     3    10     9    1
     4     9     7    1
     5     9    12    1
     6     7     5    1
     7    12    13    1
     8    12     4    1
     9     5     6    1
    10     5     4    1
    11    13    14    1
    12     4     3    1
    13    14     3    1
    14     3     2    1
    15     2     1    1
