@<TRIPOS>MOLECULE
2wyo_GSH_A_1.pdb
 20 19 0 0 0
SMALL
GASTEIGER

@<TRIPOS>ATOM
      1  N1       -21.8520   22.3790  -37.2430 N.3   1556  GSH1556    -0.1208
      2  CA1      -23.1290   22.2370  -36.5820 C.3   1556  GSH1556     0.1948
      3  C1       -24.0850   23.3330  -36.9710 C.2   1556  GSH1556     0.3819
      4  O11      -23.7340   24.5290  -36.9020 O.co2 1556  GSH1556    -0.2441
      5  O12      -25.2560   23.0830  -37.3420 O.co2 1556  GSH1556    -0.2441
      6  CB1      -22.8330   22.3180  -35.0990 C.3   1556  GSH1556     0.0402
      7  CG1      -24.0460   22.6760  -34.2490 C.3   1556  GSH1556     0.0889
      8  CD1      -23.7240   22.4100  -32.8000 C.2   1556  GSH1556     0.2418
      9  OE1      -23.2800   21.1150  -32.4330 O.2   1556  GSH1556    -0.2733
     10  N2       -23.8740   23.4400  -31.9520 N.am  1556  GSH1556    -0.1968
     11  CA2      -24.3180   23.2870  -30.5790 C.3   1556  GSH1556     0.1843
     12  C2       -25.7980   23.1340  -30.5330 C.2   1556  GSH1556     0.2627
     13  O2       -26.5560   24.0830  -29.8180 O.2   1556  GSH1556    -0.2714
     14  CB2      -23.9320   24.4890  -29.7240 C.3   1556  GSH1556     0.0997
     15  SG2      -22.1470   24.5940  -29.4860 S.3   1556  GSH1556    -0.0797
     16  N3       -26.3360   22.1040  -31.1990 N.am  1556  GSH1556    -0.1917
     17  CA3      -25.9720   20.7030  -30.9750 C.3   1556  GSH1556     0.2285
     18  C3       -26.9040   20.0420  -29.9880 C.2   1556  GSH1556     0.3865
     19  O31      -27.8690   19.3580  -30.4040 O.co2 1556  GSH1556    -0.2437
     20  O32      -26.7140   20.1840  -28.7520 O.co2 1556  GSH1556    -0.2437
@<TRIPOS>BOND
     1     5     3   ar
     2     1     2    1
     3     3     4   ar
     4     3     2    1
     5     2     6    1
     6     6     7    1
     7     7     8    1
     8     8     9    2
     9     8    10   am
    10    10    11    1
    11    16    17    1
    12    16    12   am
    13    17    18    1
    14    11    12    1
    15    11    14    1
    16    12    13    2
    17    19    18   ar
    18    18    20   ar
    19    14    15    1
