@<TRIPOS>MOLECULE
2wyp_KDN_A_1.pdb
 18 18 0 0 0
SMALL
GASTEIGER

@<TRIPOS>ATOM
      1  C1         8.9930   -9.0050  -12.4880 C.3   1309  KDN1309     0.3156
      2  C10        7.7310   -9.3330  -11.6950 C.2   1309  KDN1309     0.4179
      3  C2        10.0060   -8.2710  -11.5900 C.3   1309  KDN1309     0.1064
      4  C3        11.1820   -7.7490  -12.4740 C.3   1309  KDN1309     0.1902
      5  C4        10.6500   -6.8890  -13.6160 C.3   1309  KDN1309     0.2118
      6  C5         9.6000   -7.6270  -14.3930 C.3   1309  KDN1309     0.1838
      7  C6         8.8700   -6.7950  -15.4860 C.3   1309  KDN1309     0.2143
      8  C7         7.8440   -7.6890  -16.2000 C.3   1309  KDN1309     0.2174
      9  C9         7.1780   -6.8840  -17.2850 C.3   1309  KDN1309     0.2175
     10  O4        11.7010   -6.5310  -14.5130 O.3   1309  KDN1309    -0.2177
     11  O9         7.1100   -8.3310  -11.2130 O.co2 1309  KDN1309    -0.2401
     12  O8         7.3640  -10.5330  -11.6880 O.co2 1309  KDN1309    -0.2401
     13  O3        12.0910   -6.9710  -11.6530 O.3   1309  KDN1309    -0.2201
     14  O5         8.5720   -8.1240  -13.4980 O.3   1309  KDN1309    -0.3212
     15  O6         8.1910   -5.6920  -14.8820 O.3   1309  KDN1309    -0.2176
     16  O7         8.4940   -8.8240  -16.7180 O.3   1309  KDN1309    -0.2175
     17  O10        8.0770   -6.3210  -18.2210 O.3   1309  KDN1309    -0.2175
     18  O1         9.5770  -10.1740  -12.9920 O.3   1309  KDN1309    -0.1830
@<TRIPOS>BOND
     1    17     9    1
     2     9     8    1
     3    16     8    1
     4     8     7    1
     5     7    15    1
     6     7     6    1
     7    10     5    1
     8     6     5    1
     9     6    14    1
    10     5     4    1
    11    14     1    1
    12    18     1    1
    13     1     2    1
    14     1     3    1
    15     4    13    1
    16     4     3    1
    17     2    12   ar
    18     2    11   ar
