@<TRIPOS>MOLECULE
2wys_XYP_A_1.pdb
 10 10 0 0 0
SMALL
GASTEIGER

@<TRIPOS>ATOM
      1  O4A      121.0960   14.3700   47.9300 O.3   1001  XYP1001    -0.1869
      2  C1B      120.1380   14.5310   46.8900 C.3   1001  XYP1001     0.3024
      3  C2B      118.8600   14.9050   47.6260 C.3   1001  XYP1001     0.2434
      4  C3B      117.7730   15.3320   46.6710 C.3   1001  XYP1001     0.2199
      5  C4B      118.3600   16.3650   45.7580 C.3   1001  XYP1001     0.2143
      6  C5B      119.5820   15.8330   45.0160 C.3   1001  XYP1001     0.1804
      7  O2B      118.4370   13.7620   48.3910 O.3   1001  XYP1001    -0.2148
      8  O3B      116.8100   16.0530   47.4100 O.3   1001  XYP1001    -0.2174
      9  O4B      117.3190   16.7550   44.8680 O.3   1001  XYP1001    -0.2176
     10  O5B      120.5700   15.5520   46.0020 O.3   1001  XYP1001    -0.3237
@<TRIPOS>BOND
     1     9     5    1
     2     6     5    1
     3     6    10    1
     4     5     4    1
     5    10     2    1
     6     4     8    1
     7     4     3    1
     8     2     3    1
     9     2     1    1
    10     3     7    1
