@<TRIPOS>MOLECULE
2wyv_NAD_B_1.pdb
 44 48 0 0 0
SMALL
GASTEIGER

@<TRIPOS>ATOM
      1  PA        22.2610   25.5610   57.8660 P.3   1260  NAD1260     0.2189
      2  O1A       23.6870   25.8920   58.1230 O.3   1260  NAD1260    -0.4371
      3  O2A       21.5390   26.8160   57.5060 O.2   1260  NAD1260    -0.5170
      4  O5B       21.6410   24.9110   59.2200 O.3   1260  NAD1260    -0.3112
      5  C5B       22.1010   25.2300   60.5250 C.3   1260  NAD1260     0.1813
      6  C4B       21.3720   26.4750   61.0410 C.3   1260  NAD1260     0.1821
      7  O4B       21.1200   26.4370   62.4370 O.3   1260  NAD1260    -0.3135
      8  C3B       22.1330   27.7820   60.7940 C.3   1260  NAD1260     0.2184
      9  O3B       21.5710   28.4920   59.7100 O.3   1260  NAD1260    -0.2174
     10  C2B       22.0320   28.5540   62.1050 C.3   1260  NAD1260     0.2570
     11  O2B       21.6110   29.8920   61.9680 O.3   1260  NAD1260    -0.2130
     12  C1B       21.0020   27.7730   62.8950 C.3   1260  NAD1260     0.3186
     13  N9A       21.2530   27.9570   64.3320 N.pl3 1260  NAD1260    -0.1439
     14  C8A       22.2830   27.4090   65.0520 C.3   1260  NAD1260     0.3377
     15  N7A       22.1730   27.8310   66.3360 N.2   1260  NAD1260    -0.2095
     16  C5A       21.0880   28.6420   66.4440 C.2   1260  NAD1260     0.2526
     17  C6A       20.5330   29.3200   67.5370 C.2   1260  NAD1260     0.4393
     18  N6A       20.9190   28.9700   68.7730 N.pl3 1260  NAD1260     0.2180
     19  N1A       19.3950   30.0980   67.3300 N.2   1260  NAD1260     0.0021
     20  C2A       18.8210   30.1820   66.0680 C.3   1260  NAD1260     0.5254
     21  N3A       19.3750   29.5030   64.9930 N.2   1260  NAD1260    -0.0055
     22  C4A       20.4940   28.7400   65.1790 C.2   1260  NAD1260     0.3518
     23  O3        22.2280   24.4560   56.6350 O.3   1260  NAD1260    -0.2703
     24  PN        21.2540   23.1710   56.3070 P.3   1260  NAD1260     0.2189
     25  O1N       22.0750   22.0920   55.6890 O.3   1260  NAD1260    -0.4371
     26  O2N       20.0380   23.6190   55.5860 O.2   1260  NAD1260    -0.5170
     27  O5D       20.8050   22.6660   57.7680 O.3   1260  NAD1260    -0.3112
     28  C5D       19.4910   22.8550   58.2380 C.3   1260  NAD1260     0.1813
     29  C4D       18.9610   21.4850   58.5940 C.3   1260  NAD1260     0.1799
     30  O4D       19.1820   20.5520   57.5400 O.3   1260  NAD1260    -0.3327
     31  C3D       19.6990   20.9670   59.8150 C.3   1260  NAD1260     0.2158
     32  O3D       18.7670   20.6860   60.8290 O.3   1260  NAD1260    -0.2175
     33  C2D       20.4300   19.7330   59.3170 C.3   1260  NAD1260     0.2309
     34  O2D       20.5110   18.7140   60.2790 O.3   1260  NAD1260    -0.2158
     35  C1D       19.5750   19.3200   58.1260 C.3   1260  NAD1260     0.2263
     36  N1N       20.2250   18.3530   57.1990 N.pl3 1260  NAD1260    -0.2787
     37  C2N       21.4940   18.5190   56.6740 C.3   1260  NAD1260     0.1244
     38  C3N       22.0390   17.5470   55.8180 C.2   1260  NAD1260     0.0544
     39  C7N       23.5290   17.4000   55.6230 C.2   1260  NAD1260     0.2818
     40  O7N       24.2810   16.5320   56.4620 O.2   1260  NAD1260    -0.2670
     41  N7N       24.1030   18.0790   54.6260 N.am  1260  NAD1260    -0.0839
     42  C4N       21.2750   16.4320   55.5050 C.2   1260  NAD1260     0.0033
     43  C5N       20.0090   16.2760   56.0510 C.2   1260  NAD1260     0.0157
     44  C6N       19.4830   17.2480   56.8880 C.2   1260  NAD1260     0.0633
@<TRIPOS>BOND
     1    41    39   am
     2    42    38    2
     3    42    43    1
     4    26    24    2
     5    39    38    1
     6    39    40    2
     7    25    24    1
     8    38    37    1
     9    43    44    2
    10    24    23    1
    11    24    27    1
    12    23     1    1
    13    37    36    1
    14    44    36    1
    15    36    35    1
    16     3     1    2
    17    30    35    1
    18    30    29    1
    19    27    28    1
    20     1     2    1
    21     1     4    1
    22    35    33    1
    23    28    29    1
    24    29    31    1
    25     4     5    1
    26    33    31    1
    27    33    34    1
    28     9     8    1
    29    31    32    1
    30     5     6    1
    31     8     6    1
    32     8    10    1
    33     6     7    1
    34    11    10    1
    35    10    12    1
    36     7    12    1
    37    12    13    1
    38    13    14    1
    39    13    22    1
    40    21    22    2
    41    21    20    1
    42    14    15    1
    43    22    16    1
    44    20    19    1
    45    15    16    2
    46    16    17    1
    47    19    17    2
    48    17    18    1
