@<TRIPOS>MOLECULE
2wyw_TCL_A_1.pdb
 17 18 0 0 0
SMALL
GASTEIGER

@<TRIPOS>ATOM
      1  C1        22.3470   10.6330   23.3420 C.ar  1261  TCL1261     0.0566
      2  C2        23.7030   10.8880   23.1830 C.ar  1261  TCL1261     0.0611
      3  C6        21.6770    9.9260   22.3670 C.ar  1261  TCL1261     0.2307
      4  C5        22.4370    9.4470   21.1980 C.ar  1261  TCL1261     0.1840
      5  C4        23.7860    9.7150   21.0580 C.ar  1261  TCL1261     0.0417
      6  C3        24.4230   10.4520   22.0630 C.ar  1261  TCL1261     0.0147
      7  C11       20.0910   10.6690   17.0770 C.ar  1261  TCL1261     0.0587
      8  C10       20.0610    9.2970   17.1030 C.ar  1261  TCL1261     0.0259
      9  C9        20.6040    8.6670   18.1950 C.ar  1261  TCL1261     0.0929
     10  C8        21.1990    9.4580   19.2680 C.ar  1261  TCL1261     0.1559
     11  C12       20.6430   11.4500   18.0950 C.ar  1261  TCL1261     0.0146
     12  C13       21.2120   10.8560   19.1980 C.ar  1261  TCL1261     0.0392
     13  O7        21.7390    8.7610   20.2730 O.3   1261  TCL1261    -0.4494
     14 CL14       24.5460   11.8260   24.4410 Cl    1261  TCL1261    -0.0821
     15 CL15       19.3650   11.4260   15.6510 Cl    1261  TCL1261    -0.0822
     16 CL16       20.6400    6.8960   18.3080 Cl    1261  TCL1261    -0.0790
     17  O17       20.3480    9.6250   22.4490 O.3   1261  TCL1261    -0.2833
@<TRIPOS>BOND
     1    15     7    1
     2     7     8   ar
     3     7    11   ar
     4     8     9   ar
     5    11    12   ar
     6     9    16    1
     7     9    10   ar
     8    12    10   ar
     9    10    13    1
    10    13     4    1
    11     5     4   ar
    12     5     6   ar
    13     4     3   ar
    14     6     2   ar
    15     3    17    1
    16     3     1   ar
    17     2     1   ar
    18     2    14    1
