@<TRIPOS>MOLECULE
2wyw_NAD_A_1.pdb
 44 48 0 0 0
SMALL
GASTEIGER

@<TRIPOS>ATOM
      1  PA        24.0060    3.6740   17.2340 P.3   1260  NAD1260     0.2189
      2  O1A       23.9460    4.5010   15.9940 O.2   1260  NAD1260    -0.5170
      3  O2A       25.1470    2.7470   17.3190 O.3   1260  NAD1260    -0.4371
      4  O5B       22.6220    2.9010   17.3570 O.3   1260  NAD1260    -0.3112
      5  C5B       21.3960    3.4940   16.9990 C.3   1260  NAD1260     0.1813
      6  C4B       20.6600    2.4810   16.1680 C.3   1260  NAD1260     0.1821
      7  O4B       19.3370    2.9500   15.8750 O.3   1260  NAD1260    -0.3135
      8  C3B       21.3350    2.2050   14.8300 C.3   1260  NAD1260     0.2184
      9  O3B       21.7660    0.8620   14.7890 O.3   1260  NAD1260    -0.2174
     10  C2B       20.2520    2.4810   13.7990 C.3   1260  NAD1260     0.2570
     11  O2B       20.2920    1.6200   12.6540 O.3   1260  NAD1260    -0.2130
     12  C1B       19.0080    2.3080   14.6770 C.3   1260  NAD1260     0.3186
     13  N9A       17.8210    2.8920   14.0590 N.pl3 1260  NAD1260    -0.1439
     14  C8A       17.5780    4.2220   13.8160 C.3   1260  NAD1260     0.3377
     15  N7A       16.3970    4.3100   13.1900 N.2   1260  NAD1260    -0.2095
     16  C5A       15.8860    3.0540   13.0410 C.2   1260  NAD1260     0.2526
     17  C6A       14.7130    2.5630   12.4940 C.2   1260  NAD1260     0.4393
     18  N6A       13.8570    3.3340   11.8290 N.pl3 1260  NAD1260     0.2180
     19  N1A       14.5030    1.2000   12.5210 N.2   1260  NAD1260     0.0021
     20  C2A       15.4130    0.3310   13.0740 C.3   1260  NAD1260     0.5254
     21  N3A       16.5560    0.8040   13.6260 N.2   1260  NAD1260    -0.0055
     22  C4A       16.7820    2.1530   13.5910 C.2   1260  NAD1260     0.3518
     23  O3        24.1110    4.7370   18.4470 O.3   1260  NAD1260    -0.2703
     24  PN        23.9490    4.4310   19.9970 P.3   1260  NAD1260     0.2189
     25  O1N       24.5630    5.6030   20.6590 O.3   1260  NAD1260    -0.4371
     26  O2N       24.4500    3.0920   20.2780 O.2   1260  NAD1260    -0.5170
     27  O5D       22.3650    4.4900   20.1570 O.3   1260  NAD1260    -0.3112
     28  C5D       21.6430    3.4250   20.8130 C.3   1260  NAD1260     0.1813
     29  C4D       20.6340    3.9700   21.8480 C.3   1260  NAD1260     0.1799
     30  O4D       21.3590    4.5310   22.9290 O.3   1260  NAD1260    -0.3327
     31  C3D       19.7000    5.0690   21.3320 C.3   1260  NAD1260     0.2158
     32  O3D       18.3830    4.8990   21.8000 O.3   1260  NAD1260    -0.2175
     33  C2D       20.3020    6.3220   21.9030 C.3   1260  NAD1260     0.2309
     34  O2D       19.3870    7.3850   22.0100 O.3   1260  NAD1260    -0.2158
     35  C1D       20.7760    5.7760   23.2460 C.3   1260  NAD1260     0.2263
     36  N1N       21.7790    6.5900   23.9590 N.pl3 1260  NAD1260    -0.2787
     37  C2N       23.0120    6.8250   23.4080 C.3   1260  NAD1260     0.1244
     38  C3N       23.9470    7.5710   24.1190 C.2   1260  NAD1260     0.0544
     39  C7N       25.3280    7.7690   23.5710 C.2   1260  NAD1260     0.2818
     40  O7N       26.1370    8.6460   24.2660 O.2   1260  NAD1260    -0.2670
     41  N7N       25.7640    7.1020   22.4920 N.am  1260  NAD1260    -0.0839
     42  C4N       23.6070    8.1240   25.3590 C.2   1260  NAD1260     0.0033
     43  C5N       22.3640    7.8350   25.9090 C.2   1260  NAD1260     0.0157
     44  C6N       21.4490    7.0930   25.1820 C.2   1260  NAD1260     0.0633
@<TRIPOS>BOND
     1    18    17    1
     2    17    19    2
     3    17    16    1
     4    19    20    1
     5    11    10    1
     6    16    15    2
     7    16    22    1
     8    20    21    1
     9    15    14    1
    10    22    21    2
    11    22    13    1
    12    10    12    1
    13    10     8    1
    14    14    13    1
    15    13    12    1
    16    12     7    1
    17     9     8    1
    18     8     6    1
    19     7     6    1
    20     2     1    2
    21     6     5    1
    22     5     4    1
    23     1     3    1
    24     1     4    1
    25     1    23    1
    26    23    24    1
    27    24    27    1
    28    24    26    2
    29    24    25    1
    30    27    28    1
    31    28    29    1
    32    31    32    1
    33    31    29    1
    34    31    33    1
    35    29    30    1
    36    33    34    1
    37    33    35    1
    38    41    39   am
    39    30    35    1
    40    35    36    1
    41    37    36    1
    42    37    38    1
    43    39    38    1
    44    39    40    2
    45    36    44    1
    46    38    42    2
    47    44    43    2
    48    42    43    1
