@<TRIPOS>MOLECULE
2wyz_U5P_A_1.pdb
 21 22 0 0 0
SMALL
GASTEIGER

@<TRIPOS>ATOM
      1  N1        -0.1250  -20.7020   31.6960 N.am  157  U5P157     -0.1766
      2  C2         0.7640  -20.9130   30.7110 C.1   157  U5P157      0.2845
      3  N3         0.9790  -22.1830   30.2640 N.2   157  U5P157     -0.2452
      4  C4         0.2890  -23.2290   30.7640 C.1   157  U5P157      0.2182
      5  C5        -0.6380  -23.0210   31.7690 C.2   157  U5P157      0.1242
      6  C6        -0.8560  -21.7840   32.2320 C.2   157  U5P157      0.0929
      7  O2         1.4100  -19.9520   30.2200 O.2   157  U5P157     -0.1918
      8  O4         0.4610  -24.3820   30.3190 O.2   157  U5P157     -0.2085
      9  C1'       -0.3510  -19.3510   32.2070 C.3   157  U5P157      0.2401
     10  C2'       -1.7730  -18.8980   31.9010 C.3   157  U5P157      0.2319
     11  O2'       -1.6940  -17.7180   31.1230 O.3   157  U5P157     -0.2157
     12  C3'       -2.4020  -18.6750   33.2700 C.3   157  U5P157      0.2158
     13  C4'       -1.2100  -18.5320   34.2090 C.3   157  U5P157      0.1801
     14  O3'       -3.2560  -17.5280   33.3590 O.3   157  U5P157     -0.2175
     15  O4'       -0.1580  -19.3010   33.6220 O.3   157  U5P157     -0.3320
     16  C5'       -1.5190  -18.9710   35.6300 C.3   157  U5P157      0.1859
     17  O5'       -0.4540  -18.5440   36.4800 O.3   157  U5P157     -0.2675
     18  P         -0.4380  -18.8970   38.0530 P.3   157  U5P157      0.5327
     19  O1P       -1.4570  -17.9310   38.6200 O.3   157  U5P157     -0.1145
     20  O2P       -0.8430  -20.3510   38.1600 O.2   157  U5P157     -0.2224
     21  O3P        0.9920  -18.6110   38.4520 O.3   157  U5P157     -0.1145
@<TRIPOS>BOND
     1     7     2    2
     2     3     2    2
     3     3     4    2
     4     8     4    2
     5     2     1   am
     6     4     5    1
     7    11    10    1
     8     1     9    1
     9     1     6    1
    10     5     6    2
    11    10     9    1
    12    10    12    1
    13     9    15    1
    14    12    14    1
    15    12    13    1
    16    15    13    1
    17    13    16    1
    18    16    17    1
    19    17    18    1
    20    18    20    2
    21    18    21    1
    22    18    19    1
