@<TRIPOS>MOLECULE
2wz0_ZZT_A_1.pdb
 10 10 0 0 0
SMALL
GASTEIGER

@<TRIPOS>ATOM
      1  N1        -5.1010   -3.5780   34.2070 N.pl3 158  ZZT158     -0.1249
      2  C2        -5.6060   -2.3350   34.1770 C.ar  158  ZZT158      0.1226
      3  C3        -6.9940   -2.1830   34.0440 C.ar  158  ZZT158      0.0169
      4  C4        -7.5520   -0.8980   34.0020 C.ar  158  ZZT158     -0.0203
      5  C5        -9.0410   -0.6610   33.8610 C.3   158  ZZT158      0.0311
      6  C6        -6.7130    0.2100   34.1000 C.ar  158  ZZT158     -0.0011
      7  C7        -5.3390    0.0600   34.2430 C.ar  158  ZZT158      0.0380
      8  C8        -4.7660   -1.2120   34.2760 C.ar  158  ZZT158      0.1553
      9  O9        -3.4350   -1.3570   34.4080 O.3   158  ZZT158     -0.4701
     10  C10       -2.4460   -0.3080   34.1660 C.3   158  ZZT158      0.2525
@<TRIPOS>BOND
     1     5     4    1
     2     4     3   ar
     3     4     6   ar
     4     3     2   ar
     5     6     7   ar
     6    10     9    1
     7     2     1    1
     8     2     8   ar
     9     7     8   ar
    10     8     9    1
