@<TRIPOS>MOLECULE
2wz6_ZO0_A_1.pdb
 22 24 0 0 0
SMALL
GASTEIGER

@<TRIPOS>ATOM
      1  F13        3.3130    4.9370   29.0600 F     170  ZO0170     -0.1558
      2  C11        3.0200    4.9410   30.3560 C.3   170  ZO0170      0.5000
      3  F14        3.2610    6.1460   30.8330 F     170  ZO0170     -0.1558
      4  F12        1.7450    4.6870   30.5940 F     170  ZO0170     -0.1558
      5  C2         3.8880    3.8510   30.8980 C.1   170  ZO0170      0.2118
      6  N1         4.9860    4.1790   31.6110 N.2   170  ZO0170     -0.3407
      7  C6         5.8030    3.2070   32.0700 C.2   170  ZO0170      0.1331
      8  C7         6.9150    3.5700   32.8030 C.2   170  ZO0170      0.0293
      9  C8         7.7700    2.5930   33.2880 C.2   170  ZO0170      0.0020
     10  C9         7.5080    1.2420   33.0520 C.2   170  ZO0170     -0.0036
     11  C10        6.4040    0.8250   32.3290 C.2   170  ZO0170     -0.0109
     12  C5         5.5070    1.7570   31.8040 C.3   170  ZO0170      0.1427
     13  C4         4.2700    1.4540   31.0010 C.2   170  ZO0170      0.1830
     14  N3         3.5670    2.5590   30.5990 N.2   170  ZO0170     -0.3256
     15  N15        3.7790    0.1630   30.5920 N.pl3 170  ZO0170     -0.2842
     16  C16        2.4670    0.0800   29.9340 C.3   170  ZO0170      0.0943
     17  C17        2.1880   -1.2950   29.2950 C.3   170  ZO0170      0.0388
     18  C18        1.6870   -2.3240   30.3020 C.3   170  ZO0170      0.0739
     19  N19        2.7660   -2.7890   31.1700 N.3   170  ZO0170     -0.2700
     20  C22        2.8620   -4.2110   31.4490 C.3   170  ZO0170      0.0897
     21  C20        3.7060   -1.8690   31.8220 C.3   170  ZO0170      0.0939
     22  C21        4.5040   -1.0970   30.7700 C.3   170  ZO0170      0.1101
@<TRIPOS>BOND
     1     1     2    1
     2    17    16    1
     3    17    18    1
     4    16    15    1
     5    18    19    1
     6     2     4    1
     7     2     3    1
     8     2     5    1
     9    15    22    1
    10    15    13    1
    11    14     5    2
    12    14    13    2
    13    22    21    1
    14     5     6    2
    15    13    12    1
    16    19    20    1
    17    19    21    1
    18     6     7    2
    19    12     7    1
    20    12    11    1
    21     7     8    1
    22    11    10    2
    23     8     9    2
    24    10     9    1
