@<TRIPOS>MOLECULE
2wzb_3PG_A_1.pdb
 11 10 0 0 0
SMALL
GASTEIGER

@<TRIPOS>ATOM
      1  C1        -1.3770    8.8060  -17.8440 C.2   1420  3PG1420     0.3972
      2  O1        -2.5540    8.7770  -17.4020 O.co2 1420  3PG1420    -0.2427
      3  O2        -1.1350    9.0670  -19.0440 O.co2 1420  3PG1420    -0.2427
      4  C2        -0.2210    8.4970  -16.9220 C.3   1420  3PG1420     0.2838
      5  O3        -0.6690    8.1280  -15.5890 O.3   1420  3PG1420    -0.2081
      6  C3         0.7420    9.6730  -16.8740 C.3   1420  3PG1420     0.1983
      7  O1P        0.0630   10.8400  -16.3510 O.3   1420  3PG1420    -0.2669
      8  P          0.6040   12.3000  -16.6960 P.3   1420  3PG1420     0.5327
      9  O2P        2.0520   12.3260  -16.3120 O.3   1420  3PG1420    -0.1145
     10  O3P        0.4020   12.5430  -18.1850 O.2   1420  3PG1420    -0.2224
     11  O4P       -0.2720   13.2020  -15.8220 O.3   1420  3PG1420    -0.1145
@<TRIPOS>BOND
     1     3     1   ar
     2    10     8    2
     3     1     2   ar
     4     1     4    1
     5     4     6    1
     6     4     5    1
     7     6     7    1
     8     8     7    1
     9     8     9    1
    10     8    11    1
