@<TRIPOS>MOLECULE
2wzb_ADP_A_1.pdb
 27 29 0 0 0
SMALL
GASTEIGER

@<TRIPOS>ATOM
      1  PB        -5.2000    8.8090  -22.3900 P.3   1419  ADP1419     0.5373
      2  O1B       -5.7340    8.8190  -21.0200 O.3   1419  ADP1419    -0.1143
      3  O2B       -5.7250    7.6510  -23.1710 O.2   1419  ADP1419    -0.2221
      4  O3B       -3.6920    8.9360  -22.4560 O.3   1419  ADP1419    -0.1143
      5  PA        -5.6370   11.6840  -22.6910 P.3   1419  ADP1419     0.2231
      6  O1A       -5.6770   11.7720  -21.2010 O.3   1419  ADP1419    -0.4370
      7  O2A       -4.5300   12.3480  -23.4360 O.2   1419  ADP1419    -0.5169
      8  O3A       -5.7900   10.1640  -23.1600 O.3   1419  ADP1419    -0.2261
      9  O5'       -7.0080   12.2960  -23.2890 O.3   1419  ADP1419    -0.3111
     10  C5'       -8.2400   11.7550  -22.7960 C.3   1419  ADP1419     0.1813
     11  C4'       -9.3230   12.8010  -22.7020 C.3   1419  ADP1419     0.1821
     12  O4'       -9.4670   13.4840  -23.9330 O.3   1419  ADP1419    -0.3135
     13  C3'      -10.7110   12.2330  -22.3760 C.3   1419  ADP1419     0.2184
     14  O3'      -11.0040   12.4130  -20.9980 O.3   1419  ADP1419    -0.2174
     15  C2'      -11.6350   12.9840  -23.3380 C.3   1419  ADP1419     0.2570
     16  O2'      -12.8270   13.5140  -22.7000 O.3   1419  ADP1419    -0.2130
     17  C1'      -10.7360   14.1130  -23.8140 C.3   1419  ADP1419     0.3186
     18  N9       -11.1060   14.7500  -25.0930 N.pl3 1419  ADP1419    -0.1439
     19  C8       -11.2550   14.1730  -26.3040 C.3   1419  ADP1419     0.3377
     20  N7       -11.5810   15.0560  -27.2740 N.2   1419  ADP1419    -0.2095
     21  C5       -11.6890   16.2560  -26.6360 C.2   1419  ADP1419     0.2526
     22  C6       -12.0470   17.6210  -27.0680 C.2   1419  ADP1419     0.4393
     23  N6       -12.3810   17.8590  -28.3620 N.pl3 1419  ADP1419     0.2180
     24  N1       -12.0170   18.5630  -26.1290 N.2   1419  ADP1419     0.0021
     25  C2       -11.6890   18.3130  -24.8310 C.3   1419  ADP1419     0.5254
     26  N3       -11.3610   17.0900  -24.3390 N.2   1419  ADP1419    -0.0055
     27  C4       -11.3700   16.0660  -25.2210 C.2   1419  ADP1419     0.3518
@<TRIPOS>BOND
     1    23    22    1
     2    20    21    2
     3    20    19    1
     4    22    21    1
     5    22    24    2
     6    21    27    1
     7    19    18    1
     8    24    25    1
     9    27    18    1
    10    27    26    2
    11    18    17    1
    12    25    26    1
    13    12    17    1
    14    12    11    1
    15    17    15    1
    16     7     5    2
    17    15    16    1
    18    15    13    1
    19     9    10    1
    20     9     5    1
    21     3     1    2
    22     8     5    1
    23     8     1    1
    24    10    11    1
    25    11    13    1
    26     5     6    1
    27     4     1    1
    28     1     2    1
    29    13    14    1
