@<TRIPOS>MOLECULE
2wzc_3PG_A_1.pdb
 11 10 0 0 0
SMALL
GASTEIGER

@<TRIPOS>ATOM
      1  C1        -1.5240   -8.7510   17.7740 C.2   1421  3PG1421     0.3972
      2  O1        -2.6450   -8.7570   17.2710 O.co2 1421  3PG1421    -0.2427
      3  O2        -1.3270   -9.0330   18.9670 O.co2 1421  3PG1421    -0.2427
      4  C2        -0.3320   -8.4770   16.8920 C.3   1421  3PG1421     0.2838
      5  O3        -0.6830   -8.1220   15.5460 O.3   1421  3PG1421    -0.2081
      6  C3         0.6410   -9.6520   16.8590 C.3   1421  3PG1421     0.1983
      7  O1P       -0.0220  -10.7930   16.2790 O.3   1421  3PG1421    -0.2669
      8  P          0.5470  -12.2440   16.6290 P.3   1421  3PG1421     0.5327
      9  O2P        1.9990  -12.2560   16.2140 O.3   1421  3PG1421    -0.1145
     10  O3P        0.3670  -12.5330   18.1170 O.3   1421  3PG1421    -0.1145
     11  O4P       -0.2970  -13.1540   15.7590 O.2   1421  3PG1421    -0.2224
@<TRIPOS>BOND
     1     5     4    1
     2    11     8    2
     3     9     8    1
     4     7     8    1
     5     7     6    1
     6     8    10    1
     7     6     4    1
     8     4     1    1
     9     2     1   ar
    10     1     3   ar
