@<TRIPOS>MOLECULE
2wzc_ADP_A_1.pdb
 27 29 0 0 0
SMALL
GASTEIGER

@<TRIPOS>ATOM
      1  PB        -5.1810   -8.7410   22.2200 P.3   1420  ADP1420     0.5373
      2  O1B       -5.9030   -8.7770   20.9010 O.2   1420  ADP1420    -0.2221
      3  O2B       -5.6430   -7.6030   23.0740 O.3   1420  ADP1420    -0.1143
      4  O3B       -3.6650   -8.8250   22.0910 O.3   1420  ADP1420    -0.1143
      5  PA        -5.5760  -11.5950   22.4940 P.3   1420  ADP1420     0.2231
      6  O1A       -5.6220  -11.6570   20.9990 O.2   1420  ADP1420    -0.5169
      7  O2A       -4.5440  -12.3750   23.2290 O.3   1420  ADP1420    -0.4370
      8  O3A       -5.6280  -10.0860   23.0400 O.3   1420  ADP1420    -0.2261
      9  O5'       -6.9440  -12.1940   23.0800 O.3   1420  ADP1420    -0.3111
     10  C5'       -8.1680  -11.6430   22.5790 C.3   1420  ADP1420     0.1813
     11  C4'       -9.2590  -12.6730   22.4900 C.3   1420  ADP1420     0.1821
     12  O4'       -9.3960  -13.3710   23.7300 O.3   1420  ADP1420    -0.3135
     13  C3'      -10.6300  -12.0680   22.1980 C.3   1420  ADP1420     0.2184
     14  O3'      -10.9500  -12.2600   20.8190 O.3   1420  ADP1420    -0.2174
     15  C2'      -11.5290  -12.8550   23.1540 C.3   1420  ADP1420     0.2570
     16  O2'      -12.7380  -13.3920   22.5430 O.3   1420  ADP1420    -0.2130
     17  C1'      -10.6400  -14.0100   23.6160 C.3   1420  ADP1420     0.3186
     18  N9       -11.0030  -14.6320   24.8920 N.pl3 1420  ADP1420    -0.1439
     19  C8       -11.1240  -14.0420   26.1100 C.3   1420  ADP1420     0.3377
     20  N7       -11.4740  -14.9520   27.0530 N.2   1420  ADP1420    -0.2095
     21  C5       -11.5890  -16.1510   26.4270 C.2   1420  ADP1420     0.2526
     22  C6       -11.9290  -17.5230   26.8330 C.2   1420  ADP1420     0.4393
     23  N6       -12.2570  -17.7850   28.1210 N.pl3 1420  ADP1420     0.2180
     24  N1       -11.8880  -18.4690   25.8620 N.2   1420  ADP1420     0.0021
     25  C2       -11.5650  -18.1940   24.5750 C.3   1420  ADP1420     0.5254
     26  N3       -11.2420  -16.9470   24.1220 N.2   1420  ADP1420    -0.0055
     27  C4       -11.2570  -15.9340   25.0360 C.2   1420  ADP1420     0.3518
@<TRIPOS>BOND
     1    14    13    1
     2     2     1    2
     3     6     5    2
     4     4     1    1
     5    13    11    1
     6    13    15    1
     7     1     8    1
     8     1     3    1
     9    11    10    1
    10    11    12    1
    11     5     8    1
    12     5     9    1
    13     5     7    1
    14    16    15    1
    15    10     9    1
    16    15    17    1
    17    17    12    1
    18    17    18    1
    19    26    25    1
    20    26    27    2
    21    25    24    1
    22    18    27    1
    23    18    19    1
    24    27    21    1
    25    24    22    2
    26    19    20    1
    27    21    22    1
    28    21    20    2
    29    22    23    1
