@<TRIPOS>MOLECULE
2wzd_ADP_A_1.pdb
 27 29 0 0 0
SMALL
GASTEIGER

@<TRIPOS>ATOM
      1  PB        -5.2610    8.5900  -22.2690 P.3   1420  ADP1420     0.5373
      2  O1B       -5.9340    8.6150  -20.9290 O.3   1420  ADP1420    -0.1143
      3  O2B       -5.6460    7.4110  -23.1210 O.2   1420  ADP1420    -0.2221
      4  O3B       -3.7290    8.6780  -22.1640 O.3   1420  ADP1420    -0.1143
      5  PA        -5.6600   11.4400  -22.5680 P.3   1420  ADP1420     0.2231
      6  O1A       -5.6950   11.5170  -21.0700 O.3   1420  ADP1420    -0.4370
      7  O2A       -4.5900   12.1760  -23.2840 O.2   1420  ADP1420    -0.5169
      8  O3A       -5.6910    9.9460  -23.0510 O.3   1420  ADP1420    -0.2261
      9  O5'       -7.0410   12.0310  -23.1530 O.3   1420  ADP1420    -0.3111
     10  C5'       -8.2740   11.4690  -22.7060 C.3   1420  ADP1420     0.1813
     11  C4'       -9.3020   12.5470  -22.5350 C.3   1420  ADP1420     0.1821
     12  O4'       -9.4480   13.2670  -23.7710 O.3   1420  ADP1420    -0.3135
     13  C3'      -10.7070   11.9650  -22.2830 C.3   1420  ADP1420     0.2184
     14  O3'      -10.9960   12.1210  -20.9150 O.3   1420  ADP1420    -0.2174
     15  C2'      -11.6060   12.7430  -23.2660 C.3   1420  ADP1420     0.2570
     16  O2'      -12.8010   13.2550  -22.6450 O.3   1420  ADP1420    -0.2130
     17  C1'      -10.7280   13.8580  -23.7280 C.3   1420  ADP1420     0.3186
     18  N9       -11.0730   14.5050  -25.0130 N.pl3 1420  ADP1420    -0.1439
     19  C8       -11.1980   13.8990  -26.1900 C.3   1420  ADP1420     0.3377
     20  N7       -11.5250   14.7720  -27.1230 N.2   1420  ADP1420    -0.2095
     21  C5       -11.6490   15.9930  -26.5200 C.2   1420  ADP1420     0.2526
     22  C6       -11.9900   17.3500  -26.9490 C.2   1420  ADP1420     0.4393
     23  N6       -12.3420   17.6040  -28.2300 N.pl3 1420  ADP1420     0.2180
     24  N1       -11.9600   18.2660  -26.0100 N.2   1420  ADP1420     0.0021
     25  C2       -11.6190   18.0770  -24.6970 C.3   1420  ADP1420     0.5254
     26  N3       -11.3320   16.8250  -24.2260 N.2   1420  ADP1420    -0.0055
     27  C4       -11.3350   15.8180  -25.1160 C.2   1420  ADP1420     0.3518
@<TRIPOS>BOND
     1    23    22    1
     2    20    21    2
     3    20    19    1
     4    22    21    1
     5    22    24    2
     6    21    27    1
     7    19    18    1
     8    24    25    1
     9    27    18    1
    10    27    26    2
    11    18    17    1
    12    25    26    1
    13    12    17    1
    14    12    11    1
    15    17    15    1
    16     7     5    2
    17    15    16    1
    18    15    13    1
    19     9    10    1
    20     9     5    1
    21     3     1    2
    22     8     5    1
    23     8     1    1
    24    10    11    1
    25     5     6    1
    26    11    13    1
    27    13    14    1
    28     1     4    1
    29     1     2    1
