@<TRIPOS>MOLECULE
2wzd_3PG_A_1.pdb
 11 10 0 0 0
SMALL
GASTEIGER

@<TRIPOS>ATOM
      1  C1        -1.4850    8.6570  -17.8910 C.2   1421  3PG1421     0.3972
      2  O1        -2.6180    8.6630  -17.3760 O.co2 1421  3PG1421    -0.2427
      3  O2        -1.2870    8.9280  -19.1460 O.co2 1421  3PG1421    -0.2427
      4  C2        -0.2770    8.3830  -17.0540 C.3   1421  3PG1421     0.2838
      5  O3        -0.6570    8.0410  -15.7140 O.3   1421  3PG1421    -0.2081
      6  C3         0.6900    9.5640  -17.0920 C.3   1421  3PG1421     0.1983
      7  O1P        0.0280   10.7090  -16.5560 O.3   1421  3PG1421    -0.2669
      8  P          0.5630   12.2080  -16.9000 P.3   1421  3PG1421     0.5327
      9  O2P        2.0440   12.2480  -16.5190 O.3   1421  3PG1421    -0.1145
     10  O3P        0.4030   12.3770  -18.4110 O.2   1421  3PG1421    -0.2224
     11  O4P       -0.2710   13.1340  -16.0770 O.3   1421  3PG1421    -0.1145
@<TRIPOS>BOND
     1     3     1   ar
     2    10     8    2
     3     1     2   ar
     4     1     4    1
     5     6     4    1
     6     6     7    1
     7     4     5    1
     8     8     7    1
     9     8     9    1
    10     8    11    1
