@<TRIPOS>MOLECULE
2wze_XYP_A_1.pdb
 10 10 0 0 0
SMALL
GASTEIGER

@<TRIPOS>ATOM
      1  O4A      134.3520   38.0060   20.0940 O.3   1553  XYP1553    -0.1869
      2  C1B      133.9120   38.9630   21.0570 C.3   1553  XYP1553     0.3024
      3  C2B      132.8500   39.8260   20.3410 C.3   1553  XYP1553     0.2434
      4  C3B      131.9330   40.5320   21.3190 C.3   1553  XYP1553     0.2199
      5  C4B      131.3190   39.4660   22.2350 C.3   1553  XYP1553     0.2143
      6  C5B      132.4130   38.7080   23.0070 C.3   1553  XYP1553     0.1804
      7  O2B      133.5300   40.7040   19.4370 O.3   1553  XYP1553    -0.2148
      8  O3B      130.8480   41.0210   20.6100 O.3   1553  XYP1553    -0.2174
      9  O4B      130.3750   40.0160   23.1990 O.3   1553  XYP1553    -0.2176
     10  O5B      133.3210   38.1640   22.0570 O.3   1553  XYP1553    -0.3237
@<TRIPOS>BOND
     1     7     3    1
     2     1     2    1
     3     3     2    1
     4     3     4    1
     5     8     4    1
     6     2    10    1
     7     4     5    1
     8    10     6    1
     9     5     6    1
    10     5     9    1
