@<TRIPOS>MOLECULE
2wzf_BGC_A_1.pdb
 12 12 0 0 0
SMALL
GASTEIGER

@<TRIPOS>ATOM
      1  C1         6.3740    0.8700   17.8890 C.3   1526  BGC1526     0.3024
      2  C2         5.8200    2.2550   18.2190 C.3   1526  BGC1526     0.2434
      3  C3         4.5370    2.1150   19.0320 C.3   1526  BGC1526     0.2199
      4  C4         3.5790    1.1890   18.2810 C.3   1526  BGC1526     0.2144
      5  C5         4.2840   -0.1400   18.0540 C.3   1526  BGC1526     0.1836
      6  C6         3.3720   -1.1910   17.4290 C.3   1526  BGC1526     0.2142
      7  O1         7.5370    0.9950   17.0990 O.3   1526  BGC1526    -0.1869
      8  O3         3.9700    3.3870   19.2590 O.3   1526  BGC1526    -0.2174
      9  O4         2.3740    0.9720   18.9900 O.3   1526  BGC1526    -0.2176
     10  O5         5.3920    0.1000   17.2180 O.3   1526  BGC1526    -0.3236
     11  O6         2.9110   -0.7310   16.1800 O.3   1526  BGC1526    -0.2176
     12  O2         6.7850    2.9740   18.9580 O.3   1526  BGC1526    -0.2148
@<TRIPOS>BOND
     1    11     6    1
     2     7     1    1
     3    10     1    1
     4    10     5    1
     5     6     5    1
     6     1     2    1
     7     5     4    1
     8     2    12    1
     9     2     3    1
    10     4     9    1
    11     4     3    1
    12     3     8    1
