@<TRIPOS>MOLECULE
2wzf_UDP_A_1.pdb
 25 26 0 0 0
SMALL
GASTEIGER

@<TRIPOS>ATOM
      1  N1        -0.3060   -0.0030   24.8420 N.am  1525  UDP1525    -0.1766
      2  C2        -1.4880   -0.1370   25.5730 C.1   1525  UDP1525     0.2845
      3  N3        -1.6320   -1.1740   26.4740 N.2   1525  UDP1525    -0.2452
      4  C4        -0.5890   -2.0920   26.6630 C.1   1525  UDP1525     0.2182
      5  C5         0.5940   -1.9690   25.9250 C.2   1525  UDP1525     0.1242
      6  C6         0.7530   -0.9150   25.0050 C.2   1525  UDP1525     0.0929
      7  O2        -2.4050    0.6750   25.4120 O.2   1525  UDP1525    -0.1918
      8  O4        -0.7690   -2.9950   27.4810 O.2   1525  UDP1525    -0.2085
      9  C1'       -0.2730    1.1160   23.8910 C.3   1525  UDP1525     0.2401
     10  C2'        0.0800    2.4650   24.5330 C.3   1525  UDP1525     0.2319
     11  O2'       -0.5360    3.5520   23.8070 O.3   1525  UDP1525    -0.2157
     12  C3'        1.5550    2.4560   24.3730 C.3   1525  UDP1525     0.2158
     13  C4'        1.6660    1.8120   22.9750 C.3   1525  UDP1525     0.1799
     14  O4'        0.7450    0.7390   22.9650 O.3   1525  UDP1525    -0.3320
     15  O3'        2.0940    3.7720   24.2920 O.3   1525  UDP1525    -0.2175
     16  C5'        3.1170    1.4220   22.6060 C.3   1525  UDP1525     0.1813
     17  O5'        3.7350    0.6090   23.6290 O.3   1525  UDP1525    -0.3111
     18  PA         5.3200    0.5050   23.7710 P.3   1525  UDP1525     0.2231
     19  O1A        5.9610    1.9730   23.9330 O.2   1525  UDP1525    -0.5169
     20  O2A        5.7370   -0.4270   24.8600 O.3   1525  UDP1525    -0.4370
     21  O3A        5.7590   -0.0450   22.3360 O.3   1525  UDP1525    -0.2261
     22  PB         7.1480    0.1830   21.6250 P.3   1525  UDP1525     0.5373
     23  O1B        7.2640    1.7470   21.3590 O.3   1525  UDP1525    -0.1143
     24  O2B        8.2790   -0.2260   22.6810 O.3   1525  UDP1525    -0.1143
     25  O3B        7.2150   -0.6240   20.3680 O.2   1525  UDP1525    -0.2221
@<TRIPOS>BOND
     1    25    22    2
     2    23    22    1
     3    22    21    1
     4    22    24    1
     5    21    18    1
     6    16    13    1
     7    16    17    1
     8    14    13    1
     9    14     9    1
    10    13    12    1
    11    17    18    1
    12    18    19    2
    13    18    20    1
    14    11    10    1
    15     9    10    1
    16     9     1    1
    17    15    12    1
    18    12    10    1
    19     1     6    1
    20     1     2   am
    21     6     5    2
    22     7     2    2
    23     2     3    2
    24     5     4    1
    25     3     4    2
    26     4     8    2
