@<TRIPOS>MOLECULE
2wzg_UPG_A_1.pdb
 36 38 0 0 0
SMALL
GASTEIGER

@<TRIPOS>ATOM
      1  N1       -30.5310   34.8670   -5.0690 N.am  1525  UPG1525    -0.1766
      2  C2       -31.0180   35.6530   -6.1210 C.1   1525  UPG1525     0.2845
      3  N3       -32.2540   36.2480   -6.0200 N.2   1525  UPG1525    -0.2452
      4  C4       -33.0280   36.0740   -4.8610 C.1   1525  UPG1525     0.2182
      5  C5       -32.5370   35.3020   -3.7840 C.2   1525  UPG1525     0.1242
      6  C6       -31.2770   34.6970   -3.8990 C.2   1525  UPG1525     0.0929
      7  O2       -30.3230   35.8110   -7.1230 O.2   1525  UPG1525    -0.1918
      8  O4       -34.1320   36.6140   -4.7940 O.2   1525  UPG1525    -0.2085
      9  C1C      -29.2040   34.2640   -5.2630 C.3   1525  UPG1525     0.2401
     10  C2C      -28.0710   35.2430   -4.9590 C.3   1525  UPG1525     0.2319
     11  O2C      -27.0010   34.8940   -5.8470 O.3   1525  UPG1525    -0.2157
     12  C3C      -27.7540   34.9180   -3.5020 C.3   1525  UPG1525     0.2158
     13  C4C      -27.8650   33.3880   -3.5350 C.3   1525  UPG1525     0.1799
     14  O4C      -29.0390   33.1460   -4.3700 O.3   1525  UPG1525    -0.3320
     15  O3C      -26.4290   35.3090   -3.1630 O.3   1525  UPG1525    -0.2175
     16  C5C      -28.0410   32.8070   -2.1280 C.3   1525  UPG1525     0.1813
     17  O5C      -29.0970   33.5020   -1.4370 O.3   1525  UPG1525    -0.3112
     18  PA       -29.0710   33.5890    0.1360 P.3   1525  UPG1525     0.2189
     19  O1A      -27.7110   33.8700    0.6220 O.3   1525  UPG1525    -0.4371
     20  O2A      -30.2120   34.4250    0.6040 O.2   1525  UPG1525    -0.5170
     21  O3A      -29.4370   32.0800    0.4970 O.3   1525  UPG1525    -0.2703
     22  PB       -28.5750   31.0910    1.4440 P.3   1525  UPG1525     0.2208
     23  O1B      -29.4710   29.9980    1.8640 O.2   1525  UPG1525    -0.5170
     24  O2B      -27.7500   31.8360    2.4220 O.3   1525  UPG1525    -0.4371
     25  O3B      -27.5330   30.5440    0.3130 O.3   1525  UPG1525    -0.2857
     26  C1'      -27.0080   29.2000    0.2910 C.3   1525  UPG1525     0.2742
     27  C2'      -25.6200   29.2740   -0.3460 C.3   1525  UPG1525     0.2409
     28  C3'      -25.7380   29.8720   -1.7680 C.3   1525  UPG1525     0.2198
     29  C4'      -26.7100   29.0210   -2.6390 C.3   1525  UPG1525     0.2144
     30  C5'      -28.0140   28.7650   -1.9050 C.3   1525  UPG1525     0.1835
     31  C6'      -28.9180   27.7740   -2.6470 C.3   1525  UPG1525     0.2142
     32  O2'      -24.7790   30.0720    0.5100 O.3   1525  UPG1525    -0.2149
     33  O3'      -24.4480   29.9790   -2.3970 O.3   1525  UPG1525    -0.2174
     34  O4'      -27.0450   29.7440   -3.8220 O.3   1525  UPG1525    -0.2176
     35  O5'      -27.8120   28.3050   -0.5190 O.3   1525  UPG1525    -0.3254
     36  O6'      -28.2300   26.5440   -2.9980 O.3   1525  UPG1525    -0.2176
@<TRIPOS>BOND
     1     7     2    2
     2     2     3    2
     3     2     1   am
     4     3     4    2
     5    11    10    1
     6     9     1    1
     7     9    10    1
     8     9    14    1
     9     1     6    1
    10    10    12    1
    11     4     8    2
    12     4     5    1
    13    14    13    1
    14     6     5    2
    15    34    29    1
    16    13    12    1
    17    13    16    1
    18    12    15    1
    19    36    31    1
    20    31    30    1
    21    29    30    1
    22    29    28    1
    23    33    28    1
    24    16    17    1
    25    30    35    1
    26    28    27    1
    27    17    18    1
    28    35    26    1
    29    27    26    1
    30    27    32    1
    31    18    21    1
    32    18    20    2
    33    18    19    1
    34    26    25    1
    35    25    22    1
    36    21    22    1
    37    22    23    2
    38    22    24    1
