@<TRIPOS>MOLECULE
2wzh_NGO_A_1.pdb
 14 15 0 0 0
SMALL
GASTEIGER

@<TRIPOS>ATOM
      1  C1        -8.1490  -10.4990    8.8770 C.3   1589  NGO1589     0.3144
      2  C2        -8.6280  -11.8340    9.4970 C.3   1589  NGO1589     0.2085
      3  C3        -9.3700  -11.6880   10.8180 C.3   1589  NGO1589     0.2132
      4  C4        -8.6970  -10.6860   11.7340 C.3   1589  NGO1589     0.2139
      5  C5        -8.5670   -9.3460   10.9980 C.3   1589  NGO1589     0.1845
      6  C6        -8.0580   -8.2620   11.9730 C.3   1589  NGO1589     0.2142
      7  C7        -9.9150  -11.2900    7.7400 C.2   1589  NGO1589     0.1990
      8  C8       -10.8690  -11.4170    6.5910 C.3   1589  NGO1589     0.0942
      9  N2        -9.6140  -12.2640    8.5100 N.2   1589  NGO1589    -0.2343
     10  O1        -9.2120  -10.0640    8.0320 O.2   1589  NGO1589    -0.4383
     11  O3        -9.4680  -12.9570   11.4790 O.3   1589  NGO1589    -0.2180
     12  O4        -9.5790  -10.5100   12.8390 O.3   1589  NGO1589    -0.2176
     13  O5        -7.7590   -9.4760    9.8110 O.3   1589  NGO1589    -0.3161
     14  O6        -6.6960   -8.4580   12.3790 O.3   1589  NGO1589    -0.2176
@<TRIPOS>BOND
     1     8     7    1
     2     7    10    1
     3     7     9    2
     4    10     1    1
     5     9     2    1
     6     1     2    1
     7     1    13    1
     8     2     3    1
     9    13     5    1
    10     3    11    1
    11     3     4    1
    12     5     4    1
    13     5     6    1
    14     4    12    1
    15     6    14    1
