@<TRIPOS>MOLECULE
2wzi_5FN_A_1.pdb
 15 16 0 0 0
SMALL
GASTEIGER

@<TRIPOS>ATOM
      1  F1       -17.1380    2.6040   -0.5000 F     1719  5FN1719    -0.2038
      2  C5       -16.7120    3.7260    0.0420 C.3   1719  5FN1719     0.2906
      3  C6       -17.7730    4.2030    1.0390 C.3   1719  5FN1719     0.2459
      4  O24      -17.2830    5.3580    1.7620 O.3   1719  5FN1719    -0.2145
      5  C4       -15.3500    3.4830    0.6810 C.3   1719  5FN1719     0.2427
      6  O22      -15.5050    2.5770    1.7700 O.3   1719  5FN1719    -0.2147
      7  C3       -14.3960    2.9120   -0.3790 C.3   1719  5FN1719     0.2160
      8  O21      -13.1030    2.7090    0.1800 O.3   1719  5FN1719    -0.2179
      9  O23      -16.5550    4.7050   -1.0010 O.3   1719  5FN1719    -0.2899
     10  C1       -15.5790    4.4700   -2.0150 C.3   1719  5FN1719     0.3163
     11  O1       -16.0570    3.5680   -3.0220 O.2   1719  5FN1719    -0.4383
     12  C7       -14.8520    2.9340   -3.5420 C.2   1719  5FN1719     0.1990
     13  C9       -14.7990    2.1230   -4.8210 C.3   1719  5FN1719     0.0942
     14  N1       -13.7990    3.1680   -2.7660 N.2   1719  5FN1719    -0.2343
     15  C2       -14.2350    3.8750   -1.5620 C.3   1719  5FN1719     0.2087
@<TRIPOS>BOND
     1    13    12    1
     2    12    11    1
     3    12    14    2
     4    11    10    1
     5    14    15    1
     6    10    15    1
     7    10     9    1
     8    15     7    1
     9     9     2    1
    10     1     2    1
    11     7     8    1
    12     7     5    1
    13     2     5    1
    14     2     3    1
    15     5     6    1
    16     3     4    1
