@<TRIPOS>MOLECULE
2wzm_NA7_A_1.pdb
 39 42 0 0 0
SMALL
GASTEIGER

@<TRIPOS>ATOM
      1  PA         9.5840   44.9010   -3.1550 P.3   1284  NA71284     0.2189
      2  O1A        8.9740   44.1490   -1.9760 O.3   1284  NA71284    -0.4371
      3  O2A       11.0320   45.2990   -3.0320 O.2   1284  NA71284    -0.5170
      4  O5B        9.5900   44.0650   -4.5390 O.3   1284  NA71284    -0.3112
      5  C5B        8.4280   43.5650   -5.1570 C.3   1284  NA71284     0.1813
      6  C4B        8.7870   42.7870   -6.4230 C.3   1284  NA71284     0.1820
      7  O4B        8.6950   43.6460   -7.5730 O.3   1284  NA71284    -0.3136
      8  C3B       10.1880   42.1990   -6.4140 C.3   1284  NA71284     0.2157
      9  O3B       10.0800   40.8420   -6.8660 O.3   1284  NA71284    -0.2175
     10  C2B       10.9760   43.0740   -7.3900 C.3   1284  NA71284     0.2314
     11  O2B       11.9330   42.3150   -8.1080 O.3   1284  NA71284    -0.2630
     12  C1B        9.8910   43.5710   -8.3410 C.3   1284  NA71284     0.3158
     13  N9A       10.1500   44.8900   -9.0000 N.pl3 1284  NA71284    -0.1439
     14  C8A       10.6560   46.0310   -8.4850 C.3   1284  NA71284     0.3377
     15  N7A       10.7110   46.9780   -9.4610 N.2   1284  NA71284    -0.2095
     16  C5A       10.2330   46.4170  -10.6010 C.2   1284  NA71284     0.2526
     17  C6A       10.0410   46.8940  -11.9000 C.2   1284  NA71284     0.4393
     18  N6A       10.3730   48.1730  -12.2560 N.pl3 1284  NA71284     0.2180
     19  N1A        9.5190   46.0370  -12.8280 N.2   1284  NA71284     0.0021
     20  C2A        9.1970   44.7650  -12.5060 C.3   1284  NA71284     0.5254
     21  N3A        9.3740   44.3000  -11.2570 N.2   1284  NA71284    -0.0055
     22  C4A        9.8870   45.1070  -10.3000 C.2   1284  NA71284     0.3518
     23  O3         8.6640   46.1540   -3.6150 O.3   1284  NA71284    -0.2703
     24  PN         7.5380   46.9630   -2.7780 P.3   1284  NA71284     0.2189
     25  O1N        6.4680   46.0340   -2.2240 O.3   1284  NA71284    -0.4371
     26  O2N        7.2030   48.1370   -3.6250 O.2   1284  NA71284    -0.5170
     27  O5D        8.2630   47.4240   -1.4550 O.3   1284  NA71284    -0.3112
     28  C5D        9.5050   48.0680   -1.5360 C.3   1284  NA71284     0.1812
     29  C4D        9.7240   48.2860   -0.0690 C.3   1284  NA71284     0.1780
     30  O4D       10.7290   47.4270    0.4660 O.3   1284  NA71284    -0.3482
     31  C3D       10.2520   49.6890    0.0490 C.3   1284  NA71284     0.2140
     32  O3D        9.1350   50.5970   -0.0750 O.3   1284  NA71284    -0.2176
     33  C2D       11.0080   49.6250    1.3810 C.3   1284  NA71284     0.2140
     34  O2D       10.2040   50.0630    2.4930 O.3   1284  NA71284    -0.2176
     35  C1D       11.3600   48.1440    1.5530 C.3   1284  NA71284     0.1777
     36  P2B       13.4130   42.8660   -8.3440 P.3   1284  NA71284     0.5328
     37  O1X       13.9560   43.2910   -7.0040 O.3   1284  NA71284    -0.1145
     38  O2X       14.1160   41.6880   -8.9600 O.3   1284  NA71284    -0.1145
     39  O3X       13.2610   44.0410   -9.2950 O.2   1284  NA71284    -0.2224
@<TRIPOS>BOND
     1    19    20    1
     2    19    17    2
     3    20    21    1
     4    18    17    1
     5    17    16    1
     6    21    22    2
     7    16    22    1
     8    16    15    2
     9    22    13    1
    10    15    14    1
    11    39    36    2
    12    13    14    1
    13    13    12    1
    14    38    36    1
    15    36    11    1
    16    36    37    1
    17    12     7    1
    18    12    10    1
    19    11    10    1
    20     7     6    1
    21    10     8    1
    22     9     8    1
    23     6     8    1
    24     6     5    1
    25     5     4    1
    26     4     1    1
    27    26    24    2
    28    23     1    1
    29    23    24    1
    30     1     3    2
    31     1     2    1
    32    24    25    1
    33    24    27    1
    34    28    27    1
    35    28    29    1
    36    32    31    1
    37    29    31    1
    38    29    30    1
    39    31    33    1
    40    30    35    1
    41    33    35    1
    42    33    34    1
