@<TRIPOS>MOLECULE
2wzs_MVL_A_1.pdb
 14 15 0 0 0
SMALL
GASTEIGER

@<TRIPOS>ATOM
      1  C1        44.1390   24.4400  100.9170 C.ar  801  MVL801      0.1538
      2  N10       43.9610   23.2130  100.4380 N.ar  801  MVL801     -0.3082
      3  C3        44.9420   23.5900  103.1260 C.3   801  MVL801      0.2215
      4  C4        44.3010   22.2600  102.6430 C.3   801  MVL801      0.2082
      5  C5        44.4460   21.9950  101.1340 C.3   801  MVL801      0.1525
      6  C6        43.6280   20.7630  100.7080 C.3   801  MVL801      0.2072
      7  C7        42.8970   24.6140   99.1410 C.ar  801  MVL801      0.1189
      8  C8        43.1670   23.2840   99.3620 C.ar  801  MVL801      0.0979
      9  N1        43.5100   25.3170  100.1180 N.ar  801  MVL801     -0.2266
     10  O3        44.2360   24.0740  104.2650 O.3   801  MVL801     -0.2171
     11  O2        44.4740   25.9530  102.7150 O.3   801  MVL801     -0.2121
     12  O4        44.8530   21.1480  103.3700 O.3   801  MVL801     -0.2182
     13  C2        44.9620   24.7450  102.1150 C.3   801  MVL801      0.2405
     14  O6        42.2720   20.8240  101.1890 O.3   801  MVL801     -0.2182
@<TRIPOS>BOND
     1     7     8   ar
     2     7     9   ar
     3     8     2   ar
     4     9     1   ar
     5     2     1   ar
     6     2     5    1
     7     6     5    1
     8     6    14    1
     9     1    13    1
    10     5     4    1
    11    13    11    1
    12    13     3    1
    13     4     3    1
    14     4    12    1
    15     3    10    1
