@<TRIPOS>MOLECULE
2wzv_FMN_A_1.pdb
 31 33 0 0 0
SMALL
GASTEIGER

@<TRIPOS>ATOM
      1  N1       -18.0860  -77.2920  -25.4220 N.2   801  FMN801     -0.2890
      2  C2       -18.6740  -76.0850  -25.5190 C.1   801  FMN801      0.3669
      3  O2       -18.2980  -75.2610  -26.5130 O.2   801  FMN801     -0.1744
      4  N3       -19.6210  -75.6810  -24.6430 N.2   801  FMN801     -0.2300
      5  C4       -20.0170  -76.4970  -23.6620 C.1   801  FMN801      0.2513
      6  O4       -20.9440  -76.0830  -22.7790 O.2   801  FMN801     -0.2057
      7  C4A      -19.4150  -77.7490  -23.5180 C.2   801  FMN801      0.2700
      8  N5       -19.8030  -78.6120  -22.4770 N.2   801  FMN801     -0.3878
      9  C5A      -19.4360  -79.9830  -22.5840 C.2   801  FMN801      0.1320
     10  C6       -20.0320  -80.9320  -21.7420 C.2   801  FMN801      0.0250
     11  C7       -19.6820  -82.2770  -21.8650 C.2   801  FMN801     -0.0238
     12  C7M      -20.3560  -83.3180  -20.9520 C.3   801  FMN801      0.0308
     13  C8       -18.7180  -82.6790  -22.8130 C.2   801  FMN801     -0.0280
     14  C8M      -18.3350  -84.1560  -23.0050 C.3   801  FMN801      0.0304
     15  C9       -18.1060  -81.7230  -23.6280 C.2   801  FMN801     -0.0041
     16  C9A      -18.4880  -80.3790  -23.5380 C.3   801  FMN801      0.1500
     17  N10      -17.8830  -79.4130  -24.3940 N.pl3 801  FMN801     -0.2648
     18  C10      -18.4340  -78.1310  -24.4360 C.2   801  FMN801      0.2418
     19  C1'      -17.0300  -79.8630  -25.5410 C.3   801  FMN801      0.1614
     20  C2'      -15.5270  -79.8820  -25.1970 C.2   801  FMN801      0.2033
     21  O2'      -14.9940  -78.9760  -24.5370 O.2   801  FMN801     -0.2915
     22  C3'      -14.6860  -80.9400  -25.9260 C.3   801  FMN801      0.2429
     23  O3'      -15.3560  -82.2190  -26.0250 O.3   801  FMN801     -0.2122
     24  C4'      -13.2510  -81.0780  -25.3870 C.3   801  FMN801      0.2193
     25  O4'      -12.6090  -79.7900  -25.5260 O.3   801  FMN801     -0.2172
     26  C5'      -12.5140  -82.1100  -26.2550 C.3   801  FMN801      0.1896
     27  O5'      -12.5110  -81.6400  -27.6350 O.3   801  FMN801     -0.2674
     28  P        -13.0870  -82.5070  -28.8320 P.3   801  FMN801      0.5327
     29  O1P      -14.5260  -83.0400  -28.4140 O.3   801  FMN801     -0.1145
     30  O2P      -13.2810  -81.4790  -30.0300 O.2   801  FMN801     -0.2224
     31  O3P      -12.1810  -83.6420  -29.1680 O.3   801  FMN801     -0.1145
@<TRIPOS>BOND
     1    30    28    2
     2    31    28    1
     3    28    29    1
     4    28    27    1
     5    27    26    1
     6     3     2    2
     7    26    24    1
     8    23    22    1
     9    22    24    1
    10    22    20    1
    11    19    20    1
    12    19    17    1
    13    25    24    1
    14     2     1    2
    15     2     4    2
    16     1    18    2
    17    20    21    2
    18     4     5    2
    19    18    17    1
    20    18     7    1
    21    17    16    1
    22     5     7    1
    23     5     6    2
    24    15    16    1
    25    15    13    2
    26    16     9    1
    27     7     8    2
    28    14    13    1
    29    13    11    1
    30     9     8    2
    31     9    10    1
    32    11    10    2
    33    11    12    1
