@<TRIPOS>MOLECULE
2wzw_NDP_A_1.pdb
 48 52 0 0 0
SMALL
GASTEIGER

@<TRIPOS>ATOM
      1  PA       -15.2060  -72.4470  -20.6360 P.3   901  NDP901      0.2189
      2  O1A      -14.9860  -72.2820  -22.1100 O.2   901  NDP901     -0.5170
      3  O2A      -16.0190  -71.4390  -19.8890 O.3   901  NDP901     -0.4371
      4  O5B      -13.7070  -72.3410  -19.9970 O.3   901  NDP901     -0.3112
      5  C5B      -12.7400  -73.3250  -20.3860 C.3   901  NDP901      0.1813
      6  C4B      -11.3130  -72.8250  -20.0960 C.3   901  NDP901      0.1820
      7  O4B      -11.0130  -71.7290  -20.9890 O.3   901  NDP901     -0.3136
      8  C3B      -11.1150  -72.2920  -18.6700 C.3   901  NDP901      0.2157
      9  O3B       -9.7850  -72.6170  -18.1910 O.3   901  NDP901     -0.2175
     10  C2B      -11.3010  -70.7750  -18.8710 C.3   901  NDP901      0.2314
     11  O2B      -10.7740  -70.0530  -17.7790 O.3   901  NDP901     -0.2630
     12  C1B      -10.5750  -70.5930  -20.2070 C.3   901  NDP901      0.3158
     13  N9A      -10.8790  -69.4170  -21.0150 N.pl3 901  NDP901     -0.1439
     14  C8A      -12.0370  -68.6720  -21.0220 C.3   901  NDP901      0.3377
     15  N7A      -11.9930  -67.6640  -21.8940 N.2   901  NDP901     -0.2095
     16  C5A      -10.7470  -67.7620  -22.4740 C.2   901  NDP901      0.2526
     17  C6A      -10.0670  -67.0080  -23.4790 C.2   901  NDP901      0.4393
     18  N6A      -10.6280  -65.9260  -24.1210 N.pl3 901  NDP901      0.2180
     19  N1A       -8.7930  -67.3850  -23.8560 N.2   901  NDP901      0.0021
     20  C2A       -8.2170  -68.4740  -23.2450 C.3   901  NDP901      0.5254
     21  N3A       -8.7790  -69.2570  -22.2790 N.2   901  NDP901     -0.0055
     22  C4A      -10.0380  -68.8600  -21.9360 C.2   901  NDP901      0.3518
     23  O3       -15.5930  -73.9640  -20.2270 O.3   901  NDP901     -0.2703
     24  PN       -16.0690  -74.5420  -18.7950 P.3   901  NDP901      0.2189
     25  O1N      -15.9910  -76.0370  -18.6690 O.2   901  NDP901     -0.5170
     26  O2N      -15.5360  -73.6110  -17.7110 O.3   901  NDP901     -0.4371
     27  O5D      -17.6640  -74.2180  -18.8630 O.3   901  NDP901     -0.3112
     28  C5D      -18.5400  -75.1230  -19.5290 C.3   901  NDP901      0.1813
     29  C4D      -19.7280  -74.4820  -20.2560 C.3   901  NDP901      0.1799
     30  O4D      -20.7550  -74.3760  -19.2660 O.3   901  NDP901     -0.3327
     31  C3D      -19.5130  -73.0510  -20.8040 C.3   901  NDP901      0.2158
     32  O3D      -20.4010  -72.7150  -21.8740 O.3   901  NDP901     -0.2175
     33  C2D      -19.7260  -72.1910  -19.5680 C.3   901  NDP901      0.2309
     34  O2D      -20.1110  -70.8400  -19.9340 O.3   901  NDP901     -0.2158
     35  C1D      -20.8370  -72.9840  -18.8530 C.3   901  NDP901      0.2263
     36  N1N      -20.7810  -72.8500  -17.3830 N.pl3 901  NDP901     -0.2787
     37  C2N      -21.6940  -71.9640  -16.7370 C.3   901  NDP901      0.1244
     38  C3N      -21.7320  -71.7670  -15.3750 C.2   901  NDP901      0.0544
     39  C7N      -22.7490  -70.8120  -14.7940 C.2   901  NDP901      0.2818
     40  O7N      -23.5690  -70.1740  -15.4800 O.2   901  NDP901     -0.2670
     41  N7N      -22.7500  -70.6600  -13.4340 N.am  901  NDP901     -0.0839
     42  C4N      -20.7400  -72.5390  -14.4900 C.2   901  NDP901      0.0033
     43  C5N      -19.7940  -73.4730  -15.2380 C.2   901  NDP901      0.0157
     44  C6N      -19.8500  -73.5730  -16.5940 C.2   901  NDP901      0.0633
     45  P2B      -11.7750  -69.4810  -16.6380 P.3   901  NDP901      0.5328
     46  O1X      -11.5270  -70.2560  -15.3710 O.3   901  NDP901     -0.1145
     47  O2X      -11.2540  -68.0710  -16.5720 O.3   901  NDP901     -0.1145
     48  O3X      -13.2280  -69.5670  -17.0680 O.2   901  NDP901     -0.2224
@<TRIPOS>BOND
     1    18    17    1
     2    19    17    2
     3    19    20    1
     4    17    16    1
     5    20    21    1
     6    16    22    1
     7    16    15    2
     8    21    22    2
     9     2     1    2
    10    22    13    1
    11    15    14    1
    12    32    31    1
    13    14    13    1
    14    13    12    1
    15     7    12    1
    16     7     6    1
    17    31    29    1
    18    31    33    1
    19     1    23    1
    20     1     4    1
    21     1     3    1
    22     5     6    1
    23     5     4    1
    24    29    28    1
    25    29    30    1
    26    23    24    1
    27    12    10    1
    28     6     8    1
    29    34    33    1
    30    33    35    1
    31    28    27    1
    32    30    35    1
    33    10     8    1
    34    10    11    1
    35    27    24    1
    36    35    36    1
    37    24    25    2
    38    24    26    1
    39     8     9    1
    40    11    45    1
    41    36    37    1
    42    36    44    1
    43    48    45    2
    44    37    38    1
    45    45    47    1
    46    45    46    1
    47    44    43    2
    48    40    39    2
    49    38    39    1
    50    38    42    2
    51    43    42    1
    52    39    41   am
