@<TRIPOS>MOLECULE
2wzw_FMN_A_1.pdb
 31 33 0 0 0
SMALL
GASTEIGER

@<TRIPOS>ATOM
      1  N1       -18.0990  -77.7880  -25.5910 N.2   801  FMN801     -0.2890
      2  C2       -18.6630  -76.5630  -25.6850 C.1   801  FMN801      0.3669
      3  O2       -18.2300  -75.7280  -26.6540 O.2   801  FMN801     -0.1744
      4  N3       -19.6260  -76.1580  -24.8260 N.2   801  FMN801     -0.2300
      5  C4       -20.0350  -76.9800  -23.8440 C.1   801  FMN801      0.2513
      6  O4       -20.9890  -76.5750  -22.9890 O.2   801  FMN801     -0.2057
      7  C4A      -19.4820  -78.2610  -23.7250 C.2   801  FMN801      0.2700
      8  N5       -19.8910  -79.1380  -22.6960 N.2   801  FMN801     -0.3878
      9  C5A      -19.5200  -80.5030  -22.7870 C.2   801  FMN801      0.1320
     10  C6       -20.1500  -81.4590  -21.9750 C.2   801  FMN801      0.0250
     11  C7       -19.7680  -82.7990  -22.0660 C.2   801  FMN801     -0.0238
     12  C7M      -20.4340  -83.8520  -21.1640 C.3   801  FMN801      0.0308
     13  C8       -18.7920  -83.1920  -22.9950 C.2   801  FMN801     -0.0280
     14  C8M      -18.3860  -84.6690  -23.1500 C.3   801  FMN801      0.0304
     15  C9       -18.1670  -82.2360  -23.7980 C.2   801  FMN801     -0.0041
     16  C9A      -18.5570  -80.8960  -23.7290 C.3   801  FMN801      0.1500
     17  N10      -17.9360  -79.9260  -24.5750 N.pl3 801  FMN801     -0.2648
     18  C10      -18.4900  -78.6460  -24.6330 C.2   801  FMN801      0.2418
     19  C1'      -17.0930  -80.3900  -25.7260 C.3   801  FMN801      0.1614
     20  C2'      -15.5840  -80.3890  -25.4070 C.2   801  FMN801      0.2033
     21  O2'      -15.0560  -79.4790  -24.7460 O.2   801  FMN801     -0.2915
     22  C3'      -14.7400  -81.4690  -26.1050 C.3   801  FMN801      0.2429
     23  O3'      -15.4020  -82.7590  -26.1760 O.3   801  FMN801     -0.2122
     24  C4'      -13.3030  -81.6020  -25.5740 C.3   801  FMN801      0.2193
     25  O4'      -12.6470  -80.3210  -25.7190 O.3   801  FMN801     -0.2172
     26  C5'      -12.5640  -82.6240  -26.4510 C.3   801  FMN801      0.1896
     27  O5'      -12.5430  -82.1400  -27.8280 O.3   801  FMN801     -0.2674
     28  P        -13.1480  -83.0050  -29.0370 P.3   801  FMN801      0.5327
     29  O1P      -14.5970  -83.5400  -28.6390 O.3   801  FMN801     -0.1145
     30  O2P      -13.3160  -81.9830  -30.2410 O.2   801  FMN801     -0.2224
     31  O3P      -12.2750  -84.1610  -29.3920 O.3   801  FMN801     -0.1145
@<TRIPOS>BOND
     1    30    28    2
     2    31    28    1
     3    28    29    1
     4    28    27    1
     5    27    26    1
     6     3     2    2
     7    26    24    1
     8    23    22    1
     9    22    24    1
    10    22    20    1
    11    19    20    1
    12    19    17    1
    13    25    24    1
    14     2     1    2
    15     2     4    2
    16     1    18    2
    17    20    21    2
    18     4     5    2
    19    18    17    1
    20    18     7    1
    21    17    16    1
    22     5     7    1
    23     5     6    2
    24    15    16    1
    25    15    13    2
    26    16     9    1
    27     7     8    2
    28    14    13    1
    29    13    11    1
    30     9     8    2
    31     9    10    1
    32    11    10    2
    33    11    12    1
