@<TRIPOS>MOLECULE
2wzx_ZX0_A_1.pdb
 22 23 0 0 0
SMALL
GASTEIGER

@<TRIPOS>ATOM
      1  S1         1.5440   10.3330   18.3910 S.3   600  ZX0600     -0.1290
      2  O2         1.4390   10.6630   16.9810 O.3   600  ZX0600     -0.2919
      3  O3         0.8170   11.2230   19.2770 O.3   600  ZX0600     -0.2919
      4  O4         1.2900    8.9240   18.6310 O.3   600  ZX0600     -0.2919
      5  N5         3.2010   10.5340   18.7750 N.3   600  ZX0600     -0.1187
      6  C6         3.6880   11.9020   19.0510 C.3   600  ZX0600      0.1214
      7  C7         3.5840   12.8210   17.8470 C.3   600  ZX0600      0.0429
      8  C8         4.8330   13.6880   17.9030 C.3   600  ZX0600      0.0970
      9  N9         5.7500   12.9350   18.7230 N.am  600  ZX0600     -0.2559
     10  C10        5.1640   11.7600   19.2810 C.3   600  ZX0600      0.1592
     11  C11        5.5880   10.6090   18.4220 C.2   600  ZX0600      0.2284
     12  O12        5.7170   10.5370   17.2020 O.2   600  ZX0600     -0.2864
     13  C13        7.1050   13.1330   18.8430 C.2   600  ZX0600      0.3235
     14  O14        7.8410   12.2520   19.2660 O.2   600  ZX0600     -0.2508
     15  N15        7.5180   14.3820   18.4660 N.am  600  ZX0600     -0.1902
     16  C16        8.9240   14.6670   18.3420 C.3   600  ZX0600      0.0984
     17  C17        9.1900   14.9820   16.8870 C.3   600  ZX0600      0.0232
     18  C18       10.6540   15.2690   16.6460 C.3   600  ZX0600      0.0206
     19  C19       10.9320   16.7590   16.7380 C.3   600  ZX0600      0.0888
     20  N20       10.8090   17.2620   18.1370 N.3   600  ZX0600     -0.2180
     21  C21       10.7110   16.2300   19.2050 C.3   600  ZX0600      0.0905
     22  C22        9.2590   15.8100   19.2850 C.3   600  ZX0600      0.0405
@<TRIPOS>BOND
     1    18    19    1
     2    18    17    1
     3    19    20    1
     4    17    16    1
     5     2     1    1
     6    12    11    2
     7     7     8    1
     8     7     6    1
     9     8     9    1
    10    20    21    1
    11    16    15    1
    12    16    22    1
    13     1     4    1
    14     1     5    1
    15     1     3    1
    16    11    10    1
    17    15    13   am
    18     9    13   am
    19     9    10    1
    20     5     6    1
    21    13    14    2
    22     6    10    1
    23    21    22    1
