@<TRIPOS>MOLECULE
2wzy_SQX_A_1.pdb
 50 56 0 0 0
SMALL
GASTEIGER

@<TRIPOS>ATOM
      1  O6        27.4500   -9.5730  -23.9650 O.2   301  SQX301     -0.2501
      2  C5        26.2680   -9.4300  -23.7080 C.2   301  SQX301      0.3164
      3  O1        25.4450   -8.4560  -24.3910 O.3   301  SQX301     -0.4523
      4  C2        24.1470   -8.4890  -23.7810 C.3   301  SQX301      0.1693
      5  C3        24.2370   -9.4280  -22.5710 C.3   301  SQX301      0.0547
      6  C4        25.5360  -10.2220  -22.6870 C.3   301  SQX301      0.1026
      7  C7        26.3380  -10.3450  -21.3940 C.3   301  SQX301      0.0118
      8  C8        23.7650   -7.0810  -23.3870 C.3   301  SQX301      0.0405
      9  C13       22.5800   -6.5290  -23.7470 C.3   301  SQX301      0.0078
     10  C14       21.4610   -7.4100  -24.2470 C.3   301  SQX301      0.0005
     11  C12       22.3180   -5.0300  -23.6650 C.3   301  SQX301      0.0264
     12  C27       23.5750   -4.2150  -23.2700 C.3   301  SQX301      0.0349
     13  C10       24.2700   -4.9650  -22.1400 C.3   301  SQX301      0.0057
     14  C9        24.7970   -6.3150  -22.5830 C.3   301  SQX301      0.0040
     15  C15       21.7340   -4.5500  -24.9840 C.2   301  SQX301     -0.0322
     16  C16       20.4590   -4.1660  -25.2150 C.2   301  SQX301     -0.0183
     17  C19       19.3800   -4.1700  -24.1520 C.3   301  SQX301      0.0286
     18  C17       20.1400   -3.7250  -26.6220 C.3   301  SQX301      0.1725
     19  O20       18.8340   -4.1690  -27.0140 O.3   301  SQX301     -0.2186
     20  C18       20.2430   -2.2040  -26.7370 C.3   301  SQX301      0.0667
     21  C21       20.0120   -1.7260  -28.1680 C.3   301  SQX301      0.1207
     22  O48       19.6160   -0.3510  -28.1390 O.3   301  SQX301     -0.3366
     23  C81       21.2860   -1.8170  -29.0000 C.3   301  SQX301      0.0347
     24  C80       21.4560   -0.4480  -29.6350 C.3   301  SQX301      0.0588
     25  C23       20.5740    0.4710  -28.8090 C.3   301  SQX301      0.1895
     26  O44       21.3440    1.1900  -27.8620 O.3   301  SQX301     -0.3124
     27  C55       19.8630    1.5490  -29.6030 C.3   301  SQX301      0.0614
     28  C42       19.8600    2.7740  -28.6980 C.3   301  SQX301      0.0639
     29  C43       20.7700    2.4480  -27.5130 C.3   301  SQX301      0.2148
     30  C51       21.8670    3.4900  -27.2600 C.3   301  SQX301      0.1733
     31  C53       21.2900    4.8870  -27.0260 C.3   301  SQX301      0.0380
     32  O52       22.7330    3.5440  -28.3920 O.3   301  SQX301     -0.2207
     33  C50       22.7150    3.0500  -26.0670 C.3   301  SQX301      0.0378
     34  C49       21.8670    2.6510  -24.8570 C.3   301  SQX301      0.0327
     35  O47       19.9700    2.2840  -26.3330 O.3   301  SQX301     -0.3343
     36  C48       20.6980    1.7340  -25.2240 C.3   301  SQX301      0.1218
     37  C37       19.7610    1.5450  -24.0310 C.3   301  SQX301      0.0516
     38  C36       20.4420    0.8470  -22.8700 C.2   301  SQX301     -0.0418
     39  C38       20.5200    1.4730  -21.7030 C.2   301  SQX301     -0.0091
     40  C35       21.0110   -0.5470  -23.0590 C.3   301  SQX301      0.0225
     41  C34       21.5160   -1.1790  -21.7650 C.3   301  SQX301      0.0103
     42  C33       21.8570   -2.6540  -21.9600 C.3   301  SQX301      0.0412
     43  C32       23.1990   -2.8690  -22.6440 C.2   301  SQX301      0.0311
     44  N31       24.0090   -1.8810  -22.6400 N.2   301  SQX301     -0.2790
     45  C30       25.3520   -1.7430  -23.2000 C.3   301  SQX301      0.1246
     46  C29       25.2290   -1.6430  -24.7240 C.3   301  SQX301      0.0243
     47  C6        24.6270   -0.2980  -25.1090 C.3   301  SQX301      0.0021
     48  C46       24.4300   -2.8040  -25.3140 C.3   301  SQX301      0.0023
     49  C22       24.8280   -3.1160  -26.7520 C.3   301  SQX301      0.0001
     50  C28       24.5410   -4.0760  -24.4670 C.3   301  SQX301      0.0056
@<TRIPOS>BOND
     1    24    23    1
     2    24    25    1
     3    27    25    1
     4    27    28    1
     5    23    21    1
     6    25    22    1
     7    25    26    1
     8    28    29    1
     9    32    30    1
    10    21    22    1
    11    21    20    1
    12    26    29    1
    13    29    30    1
    14    29    35    1
    15    30    31    1
    16    30    33    1
    17    19    18    1
    18    49    48    1
    19    20    18    1
    20    18    16    1
    21    35    36    1
    22    33    34    1
    23    48    46    1
    24    48    50    1
    25    36    34    1
    26    36    37    1
    27    16    15    2
    28    16    17    1
    29    47    46    1
    30    15    11    1
    31    46    45    1
    32    50    12    1
    33     3     4    1
    34     3     2    1
    35    10     9    1
    36    37    38    1
    37     1     2    2
    38     4     8    1
    39     4     5    1
    40     9    11    1
    41     9     8    1
    42     2     6    1
    43    11    12    1
    44     8    14    1
    45    12    43    1
    46    12    13    1
    47    45    44    1
    48    40    38    1
    49    40    41    1
    50    38    39    2
    51     6     5    1
    52     6     7    1
    53    43    44    2
    54    43    42    1
    55    14    13    1
    56    42    41    1
