@<TRIPOS>MOLECULE
2wzz_ZX1_A_1.pdb
 22 23 0 0 0
SMALL
GASTEIGER

@<TRIPOS>ATOM
      1  S1         1.5880   10.3640   18.4360 S.3   600  ZX1600     -0.1290
      2  O2         1.5560   10.6450   17.0140 O.3   600  ZX1600     -0.2919
      3  O3         0.8620   11.3130   19.2630 O.3   600  ZX1600     -0.2919
      4  O4         1.3150    8.9720   18.7560 O.3   600  ZX1600     -0.2919
      5  N5         3.2260   10.5980   18.8580 N.3   600  ZX1600     -0.1187
      6  C6         3.6870   11.9850   19.0960 C.3   600  ZX1600      0.1214
      7  C7         3.5670   12.9030   17.8920 C.3   600  ZX1600      0.0429
      8  C8         4.7940   13.8020   17.9480 C.3   600  ZX1600      0.0970
      9  N9         5.7340   13.0670   18.7610 N.am  600  ZX1600     -0.2559
     10  C10        5.1640   11.8880   19.3320 C.3   600  ZX1600      0.1592
     11  C11        5.6420   10.7470   18.4870 C.2   600  ZX1600      0.2284
     12  O12        5.7090   10.6310   17.2650 O.2   600  ZX1600     -0.2864
     13  C13        7.0810   13.3490   18.9080 C.2   600  ZX1600      0.3235
     14  O14        7.8710   12.5290   19.3640 O.2   600  ZX1600     -0.2508
     15  N15        7.4480   14.6140   18.5170 N.am  600  ZX1600     -0.1902
     16  C16        8.8310   15.0070   18.6520 C.3   600  ZX1600      0.0984
     17  C17        8.9030   16.1480   19.6510 C.3   600  ZX1600      0.0232
     18  C18       10.3160   16.3560   20.1500 C.3   600  ZX1600      0.0206
     19  C19       11.0640   17.3930   19.3340 C.3   600  ZX1600      0.0888
     20  N20       10.9100   17.1790   17.8650 N.3   600  ZX1600     -0.2180
     21  C21       10.8700   15.7690   17.3910 C.3   600  ZX1600      0.0905
     22  C22        9.4050   15.3770   17.2960 C.3   600  ZX1600      0.0405
@<TRIPOS>BOND
     1     2     1    1
     2    12    11    2
     3    22    21    1
     4    22    16    1
     5    21    20    1
     6    20    19    1
     7     7     8    1
     8     7     6    1
     9     8     9    1
    10     1     4    1
    11     1     5    1
    12     1     3    1
    13    11    10    1
    14    15    16    1
    15    15    13   am
    16    16    17    1
    17     9    13   am
    18     9    10    1
    19     5     6    1
    20    13    14    2
    21     6    10    1
    22    19    18    1
    23    17    18    1
