@<TRIPOS>MOLECULE
2x00_GYN_A_1.pdb
 37 41 0 0 0
SMALL
GASTEIGER

@<TRIPOS>ATOM
      1  O6         9.0160   24.9540  -10.4650 O.2   301  GYN301     -0.2501
      2  C5         7.8360   24.7870  -10.2270 C.2   301  GYN301      0.3167
      3  O1         7.1590   25.4890   -9.1610 O.3   301  GYN301     -0.4480
      4  C2         5.7950   25.0690   -9.2170 C.3   301  GYN301      0.1871
      5  C3         5.7130   23.8380  -10.1300 C.3   301  GYN301      0.0590
      6  C4         6.9610   23.8710  -11.0040 C.3   301  GYN301      0.1030
      7  C7         7.6190   22.5170  -11.2090 C.3   301  GYN301      0.0118
      8  C8         5.2970   24.8030   -7.8230 C.2   301  GYN301     -0.0124
      9  C13        4.3300   25.5800   -7.2940 C.2   301  GYN301     -0.0444
     10  C14        3.6030   26.5720   -8.1770 C.3   301  GYN301      0.0262
     11  C12        3.9290   25.5310   -5.8340 C.3   301  GYN301      0.0440
     12  C27        4.9700   24.8090   -4.9650 C.3   301  GYN301      0.0387
     13  C10        5.3610   23.5100   -5.6710 C.3   301  GYN301      0.0103
     14  C9         5.9540   23.6800   -7.0610 C.3   301  GYN301      0.0253
     15  C15        3.6900   26.9470   -5.3330 C.2   301  GYN301     -0.0281
     16  C16        2.5050   27.4710   -4.9480 C.2   301  GYN301     -0.0181
     17  C19        1.2120   26.6910   -4.9790 C.3   301  GYN301      0.0286
     18  C17        2.4980   28.9090   -4.4870 C.3   301  GYN301      0.1701
     19  O20        1.6980   29.6680   -5.4060 O.3   301  GYN301     -0.2187
     20  C18        1.8910   29.0410   -3.0950 C.3   301  GYN301      0.0396
     21  C21        2.8930   28.8780   -1.9670 C.3   301  GYN301      0.0325
     22  C43        2.6620   27.6040   -1.1680 C.3   301  GYN301      0.1157
     23  C47        3.2590   27.6400    0.2350 C.3   301  GYN301      0.0323
     24  C48        2.3320   26.7750    1.0730 C.3   301  GYN301      0.0336
     25  C49        1.7070   27.6100    2.1920 C.3   301  GYN301      0.0029
     26  O43        1.2900   27.2320   -0.9700 O.3   301  GYN301     -0.3547
     27  C37        1.2610   26.2770    0.1100 C.3   301  GYN301      0.1331
     28  C36        1.5500   24.8640   -0.3510 C.2   301  GYN301     -0.0216
     29  C38        1.1950   23.7000    0.5460 C.3   301  GYN301      0.0285
     30  C35        2.1020   24.6670   -1.5670 C.2   301  GYN301     -0.0319
     31  C34        2.4700   23.3380   -2.2020 C.3   301  GYN301      0.0314
     32  C33        3.0310   23.5600   -3.6150 C.3   301  GYN301      0.0455
     33  C32        4.3370   24.3520   -3.6540 C.2   301  GYN301      0.0317
     34  N31        4.9310   24.6090   -2.5600 N.2   301  GYN301     -0.2790
     35  C30        6.3120   24.9990   -2.3160 C.3   301  GYN301      0.1247
     36  C46        6.5960   26.0960   -3.3310 C.3   301  GYN301      0.0266
     37  C28        6.2110   25.7110   -4.7570 C.3   301  GYN301      0.0079
@<TRIPOS>BOND
     1     7     6    1
     2     6     2    1
     3     6     5    1
     4     1     2    2
     5     2     3    1
     6     5     4    1
     7     4     3    1
     8     4     8    1
     9    10     9    1
    10     8     9    2
    11     8    14    1
    12     9    11    1
    13    14    13    1
    14    11    15    1
    15    11    12    1
    16    13    12    1
    17    19    18    1
    18    15    16    2
    19    17    16    1
    20    12    37    1
    21    12    33    1
    22    16    18    1
    23    37    36    1
    24    18    20    1
    25    33    32    1
    26    33    34    2
    27    32    31    1
    28    36    35    1
    29    20    21    1
    30    34    35    1
    31    31    30    1
    32    21    22    1
    33    30    28    2
    34    22    26    1
    35    22    23    1
    36    26    27    1
    37    28    27    1
    38    28    29    1
    39    27    24    1
    40    23    24    1
    41    24    25    1
