@<TRIPOS>MOLECULE
2x05_X05_A_1.pdb
 13 14 0 0 0
SMALL
GASTEIGER

@<TRIPOS>ATOM
      1  OAD       48.4480   44.0560   71.7970 O.3   1900  X051900    -0.2188
      2  CAK       49.3860   42.9700   71.8900 C.3   1900  X051900     0.2005
      3  CAL       49.7520   42.5640   70.4690 C.3   1900  X051900     0.1215
      4  CAI       50.4890   43.6670   69.7360 C.3   1900  X051900     0.1704
      5  OAB       51.5330   44.2210   70.5900 O.3   1900  X051900    -0.2216
      6  CAE       51.1160   42.8550   68.5970 C.3   1900  X051900     0.0517
      7  CAF       51.2220   41.4100   69.1320 C.3   1900  X051900     0.0749
      8  NAM       50.7480   41.4850   70.5180 N.3   1900  X051900    -0.2682
      9  CAG       50.2070   40.2140   71.0780 C.3   1900  X051900     0.0941
     10  CAH       49.6870   40.4590   72.5280 C.3   1900  X051900     0.1406
     11  NAA       48.9160   39.2800   72.9920 N.3   1900  X051900    -0.1287
     12  CAJ       48.7940   41.7450   72.6380 C.3   1900  X051900     0.2023
     13  OAC       48.4850   42.1010   73.9930 O.3   1900  X051900    -0.2188
@<TRIPOS>BOND
     1     6     7    1
     2     6     4    1
     3     7     8    1
     4     4     3    1
     5     4     5    1
     6     3     8    1
     7     3     2    1
     8     8     9    1
     9     9    10    1
    10     1     2    1
    11     2    12    1
    12    10    12    1
    13    10    11    1
    14    12    13    1
