@<TRIPOS>MOLECULE
2x06_NAD_A_1.pdb
 44 48 0 0 0
SMALL
GASTEIGER

@<TRIPOS>ATOM
      1  PA        -8.0950  212.0020   20.5800 P.3   4001  NAD4001     0.2189
      2  O1A       -7.5330  212.6250   19.2620 O.2   4001  NAD4001    -0.5170
      3  O2A       -9.6210  211.6710   20.6450 O.3   4001  NAD4001    -0.4371
      4  O5B       -7.0630  211.3190   21.5730 O.3   4001  NAD4001    -0.3112
      5  C5B       -5.7820  210.9460   21.1570 C.3   4001  NAD4001     0.1813
      6  C4B       -4.6640  210.9250   22.1800 C.3   4001  NAD4001     0.1821
      7  O4B       -4.1270  212.2080   22.4490 O.3   4001  NAD4001    -0.3135
      8  C3B       -5.0940  210.3440   23.4900 C.3   4001  NAD4001     0.2184
      9  O3B       -4.1990  209.3750   23.9150 O.3   4001  NAD4001    -0.2174
     10  C2B       -5.1790  211.5230   24.3650 C.3   4001  NAD4001     0.2570
     11  O2B       -5.0210  211.2580   25.7150 O.3   4001  NAD4001    -0.2130
     12  C1B       -4.0970  212.4030   23.8170 C.3   4001  NAD4001     0.3186
     13  N9A       -4.2890  213.8050   24.0990 N.pl3 4001  NAD4001    -0.1439
     14  C8A       -5.2220  214.5880   23.5370 C.3   4001  NAD4001     0.3377
     15  N7A       -4.9890  215.8560   23.9020 N.2   4001  NAD4001    -0.2095
     16  C5A       -3.8850  215.8800   24.6560 C.2   4001  NAD4001     0.2526
     17  C6A       -3.1560  216.8800   25.3100 C.2   4001  NAD4001     0.4393
     18  N6A       -3.6100  218.2390   25.2660 N.pl3 4001  NAD4001     0.2180
     19  N1A       -2.0460  216.5550   25.9870 N.2   4001  NAD4001     0.0021
     20  C2A       -1.6220  215.2850   26.0580 C.3   4001  NAD4001     0.5254
     21  N3A       -2.2830  214.2910   25.4490 N.2   4001  NAD4001    -0.0055
     22  C4A       -3.4010  214.5670   24.7530 C.2   4001  NAD4001     0.3518
     23  O3        -8.0120  210.5550   19.9480 O.3   4001  NAD4001    -0.2703
     24  PN        -8.5860  210.1060   18.5560 P.3   4001  NAD4001     0.2189
     25  O1N       -7.4430  209.7530   17.6190 O.2   4001  NAD4001    -0.5170
     26  O2N       -9.4330  211.1790   17.9140 O.3   4001  NAD4001    -0.4371
     27  O5D       -9.4700  208.8420   18.7600 O.3   4001  NAD4001    -0.3112
     28  C5D       -8.8690  207.7550   19.3700 C.3   4001  NAD4001     0.1813
     29  C4D       -9.6500  206.4940   19.6480 C.3   4001  NAD4001     0.1799
     30  O4D      -10.2260  205.9810   18.5040 O.3   4001  NAD4001    -0.3327
     31  C3D       -8.6880  205.4670   20.1760 C.3   4001  NAD4001     0.2158
     32  O3D       -9.2230  204.8860   21.2920 O.3   4001  NAD4001    -0.2175
     33  C2D       -8.4310  204.5390   19.0460 C.3   4001  NAD4001     0.2309
     34  O2D       -8.1210  203.2530   19.4230 O.3   4001  NAD4001    -0.2158
     35  C1D       -9.7260  204.5860   18.3090 C.3   4001  NAD4001     0.2263
     36  N1N       -9.7550  204.0280   16.8670 N.pl3 4001  NAD4001    -0.2787
     37  C2N      -10.0840  202.7430   16.6360 C.3   4001  NAD4001     0.1244
     38  C3N      -10.0950  202.2590   15.3220 C.2   4001  NAD4001     0.0544
     39  C7N      -10.4260  200.8380   14.9900 C.2   4001  NAD4001     0.2818
     40  O7N      -10.8370  200.5770   13.8630 O.2   4001  NAD4001    -0.2670
     41  N7N      -10.0950  199.7750   15.9010 N.am  4001  NAD4001    -0.0839
     42  C4N       -9.7670  203.1380   14.2790 C.2   4001  NAD4001     0.0033
     43  C5N       -9.4330  204.4670   14.5520 C.2   4001  NAD4001     0.0157
     44  C6N       -9.4360  204.8820   15.8810 C.2   4001  NAD4001     0.0633
@<TRIPOS>BOND
     1    40    39    2
     2    42    43    1
     3    42    38    2
     4    43    44    2
     5    39    38    1
     6    39    41   am
     7    38    37    1
     8    44    36    1
     9    37    36    1
    10    36    35    1
    11    25    24    2
    12    26    24    1
    13    35    30    1
    14    35    33    1
    15    30    29    1
    16    24    27    1
    17    24    23    1
    18    27    28    1
    19    33    34    1
    20    33    31    1
    21     2     1    2
    22    28    29    1
    23    29    31    1
    24    23     1    1
    25    31    32    1
    26     1     3    1
    27     1     4    1
    28     5     4    1
    29     5     6    1
    30     6     7    1
    31     6     8    1
    32     7    12    1
    33     8     9    1
    34     8    10    1
    35    14    15    1
    36    14    13    1
    37    12    13    1
    38    12    10    1
    39    15    16    2
    40    13    22    1
    41    10    11    1
    42    16    22    1
    43    16    17    1
    44    22    21    2
    45    18    17    1
    46    17    19    2
    47    21    20    1
    48    19    20    1
