@<TRIPOS>MOLECULE
2x07_HEM_A_1.pdb
 43 50 0 0 0
SMALL
GASTEIGER

@<TRIPOS>ATOM
      1  CHA      -14.3810    0.2730    1.2110 C.2   1295  HEM1295     0.0000
      2  CHB      -10.1310    0.2330    3.5410 C.2   1295  HEM1295     0.0000
      3  CHC       -8.9890    4.4720    1.5340 C.2   1295  HEM1295     0.0000
      4  CHD      -12.7280    3.9710   -1.4830 C.2   1295  HEM1295     0.0000
      5  C1A      -13.3260   -0.1320    1.9920 C.2   1295  HEM1295     0.0000
      6  C2A      -13.2500   -1.3690    2.7520 C.2   1295  HEM1295     0.0000
      7  C3A      -12.0910   -1.3900    3.4200 C.2   1295  HEM1295     0.0000
      8  C4A      -11.3940   -0.1370    3.0970 C.2   1295  HEM1295     0.0000
      9  CMA      -11.5510   -2.4940    4.3810 C.3   1295  HEM1295     0.0000
     10  CAA      -14.3900   -2.3860    2.7030 C.3   1295  HEM1295     0.0000
     11  CBA      -14.1470   -3.4010    1.6000 C.3   1295  HEM1295     0.0000
     12  CGA      -15.2990   -4.3940    1.6350 C.2   1295  HEM1295     0.0000
     13  O1A      -15.4510   -5.1050    2.6940 O.co2 1295  HEM1295     0.0000
     14  O2A      -16.1940   -4.4240    0.7380 O.co2 1295  HEM1295     0.0000
     15  C1B       -9.5060    1.4210    3.2790 C.ar  1295  HEM1295     0.0000
     16  C2B       -8.3640    1.9230    3.9530 C.ar  1295  HEM1295     0.0000
     17  C3B       -8.0430    3.1200    3.4110 C.ar  1295  HEM1295     0.0000
     18  C4B       -8.9600    3.3770    2.3700 C.ar  1295  HEM1295     0.0000
     19  CMB       -7.6690    1.1870    5.1110 C.3   1295  HEM1295     0.0000
     20  CAB       -6.8770    4.0650    3.7660 C.2   1295  HEM1295     0.0000
     21  CBB       -6.2360    4.0120    4.9510 C.2   1295  HEM1295     0.0000
     22  C1C       -9.8300    4.6480    0.4470 C.2   1295  HEM1295     0.0000
     23  C2C       -9.6760    5.6770   -0.6090 C.2   1295  HEM1295     0.0000
     24  C3C      -10.7010    5.5240   -1.4930 C.2   1295  HEM1295     0.0000
     25  C4C      -11.5530    4.4630   -0.9520 C.2   1295  HEM1295     0.0000
     26  CMC       -8.4330    6.5870   -0.6300 C.3   1295  HEM1295     0.0000
     27  CAC      -10.9750    6.3030   -2.7940 C.2   1295  HEM1295     0.0000
     28  CBC      -10.6880    7.5970   -2.8700 C.2   1295  HEM1295     0.0000
     29  C1D      -13.5510    3.0260   -0.9630 C.ar  1295  HEM1295     0.0000
     30  C2D      -14.8980    2.7450   -1.4300 C.ar  1295  HEM1295     0.0000
     31  C3D      -15.3810    1.6160   -0.5870 C.ar  1295  HEM1295     0.0000
     32  C4D      -14.3170    1.3090    0.2910 C.ar  1295  HEM1295     0.0000
     33  CMD      -15.7670    3.4310   -2.4960 C.3   1295  HEM1295     0.0000
     34  CAD      -16.8100    0.9890   -0.6840 C.3   1295  HEM1295     0.0000
     35  CBD      -16.6550   -0.2530   -1.5830 C.3   1295  HEM1295     0.0000
     36  CGD      -18.0120   -0.9050   -1.7770 C.2   1295  HEM1295     0.0000
     37  O1D      -18.0970   -1.9060   -2.5160 O.co2 1295  HEM1295     0.0000
     38  O2D      -19.0220   -0.3450   -1.2500 O.co2 1295  HEM1295     0.0000
     39  NA       -12.2000    0.6030    2.2540 N.2   1295  HEM1295     0.0000
     40  NB        -9.8770    2.3630    2.3260 N.ar  1295  HEM1295     0.0000
     41  NC       -10.9640    3.9470    0.1690 N.2   1295  HEM1295     0.0000
     42  ND       -13.2710    2.1490    0.0700 N.ar  1295  HEM1295     0.0000
     43 FE        -11.6130    2.3330    1.2430 Fe    1295  HEM1295     0.0000
@<TRIPOS>BOND
     1    28    27    2
     2    27    24    1
     3    37    36   ar
     4    33    30    1
     5    36    35    1
     6    36    38   ar
     7    35    34    1
     8    24    25    1
     9    24    23    2
    10     4    29    2
    11     4    25    1
    12    30    29   ar
    13    30    31   ar
    14    29    42   ar
    15    25    41    2
    16    34    31    1
    17    26    23    1
    18    23    22    1
    19    31    32   ar
    20    42    32   ar
    21    42    43    1
    22    41    22    1
    23    41    43    1
    24    32     1    2
    25    22     3    2
    26    14    12   ar
    27     1     5    1
    28    43    39    1
    29    43    40    1
    30     3    18    1
    31    11    12    1
    32    11    10    1
    33    12    13   ar
    34     5    39    2
    35     5     6    1
    36    39     8    1
    37    40    18   ar
    38    40    15   ar
    39    18    17   ar
    40    10     6    1
    41     6     7    2
    42     8     7    1
    43     8     2    2
    44    15     2    1
    45    15    16   ar
    46    17    20    1
    47    17    16   ar
    48     7     9    1
    49    20    21    2
    50    16    19    1
