@<TRIPOS>MOLECULE
2x08_ASC_A_1.pdb
 12 12 0 0 0
SMALL
GASTEIGER

@<TRIPOS>ATOM
      1  C1       -21.6060    1.0050    8.0260 C.2   1253  ASC1253     0.3557
      2  C2       -21.6360    1.6810    6.7570 C.3   1253  ASC1253     0.3096
      3  C3       -21.2150    2.8940    7.1230 C.2   1253  ASC1253     0.2342
      4  C4       -21.2790    3.1930    8.6030 C.3   1253  ASC1253     0.2612
      5  C5       -22.3740    4.1480    9.0770 C.3   1253  ASC1253     0.2318
      6  C6       -21.8460    5.4990    9.5260 C.3   1253  ASC1253     0.2190
      7  O1       -21.5800   -0.1460    8.2270 O.2   1253  ASC1253    -0.2468
      8  O2       -22.0550    1.1930    5.5390 O.3   1253  ASC1253    -0.2028
      9  O3       -20.6860    3.7490    6.3240 O.2   1253  ASC1253    -0.2889
     10  O4       -21.5870    1.9180    9.1350 O.3   1253  ASC1253    -0.4397
     11  O5       -22.9910    3.5750   10.2260 O.3   1253  ASC1253    -0.2159
     12  O6       -22.8750    6.1990   10.2540 O.3   1253  ASC1253    -0.2174
@<TRIPOS>BOND
     1     8     2    1
     2     9     3    2
     3     2     3    1
     4     2     1    1
     5     3     4    1
     6     1     7    2
     7     1    10    1
     8     4     5    1
     9     4    10    1
    10     5     6    1
    11     5    11    1
    12     6    12    1
