@<TRIPOS>MOLECULE
2x08_HEM_A_1.pdb
 43 50 0 0 0
SMALL
GASTEIGER

@<TRIPOS>ATOM
      1  CHA      -15.0400    0.4440    1.7650 C.2   1254  HEM1254     0.0000
      2  CHB      -10.8340    0.9210   -0.5850 C.2   1254  HEM1254     0.0000
      3  CHC       -9.6540   -3.5990    0.7710 C.2   1254  HEM1254     0.0000
      4  CHD      -13.4360   -3.6910    3.8300 C.2   1254  HEM1254     0.0000
      5  C1A      -14.0200    0.9770    1.0230 C.ar  1254  HEM1254     0.0000
      6  C2A      -13.9480    2.3380    0.5010 C.ar  1254  HEM1254     0.0000
      7  C3A      -12.7830    2.4770   -0.1640 C.ar  1254  HEM1254     0.0000
      8  C4A      -12.0770    1.2070   -0.0660 C.ar  1254  HEM1254     0.0000
      9  CMA      -12.2200    3.7130   -0.9200 C.3   1254  HEM1254     0.0000
     10  CAA      -15.0780    3.3680    0.7120 C.3   1254  HEM1254     0.0000
     11  CBA      -14.8740    4.1210    2.0540 C.3   1254  HEM1254     0.0000
     12  CGA      -16.0970    4.9740    2.2170 C.2   1254  HEM1254     0.0000
     13  O1A      -16.2750    5.8620    1.3530 O.co2 1254  HEM1254     0.0000
     14  O2A      -16.9210    4.7430    3.1450 O.co2 1254  HEM1254     0.0000
     15  C1B      -10.1860   -0.2960   -0.4700 C.2   1254  HEM1254     0.0000
     16  C2B       -9.0090   -0.6850   -1.1970 C.2   1254  HEM1254     0.0000
     17  C3B       -8.6680   -1.9420   -0.8410 C.2   1254  HEM1254     0.0000
     18  C4B       -9.6470   -2.3890    0.1280 C.2   1254  HEM1254     0.0000
     19  CMB       -8.2750    0.1980   -2.2250 C.3   1254  HEM1254     0.0000
     20  CAB       -7.4520   -2.7750   -1.3460 C.2   1254  HEM1254     0.0000
     21  CBB       -6.9400   -2.7970   -2.5880 C.2   1254  HEM1254     0.0000
     22  C1C      -10.4790   -3.9940    1.8180 C.ar  1254  HEM1254     0.0000
     23  C2C      -10.3320   -5.1370    2.7130 C.ar  1254  HEM1254     0.0000
     24  C3C      -11.4020   -5.1400    3.5600 C.ar  1254  HEM1254     0.0000
     25  C4C      -12.2420   -4.0170    3.2150 C.ar  1254  HEM1254     0.0000
     26  CMC       -9.1150   -6.1020    2.6860 C.3   1254  HEM1254     0.0000
     27  CAC      -11.7870   -6.0750    4.7450 C.2   1254  HEM1254     0.0000
     28  CBC      -11.4420   -7.3820    4.7660 C.2   1254  HEM1254     0.0000
     29  C1D      -14.2600   -2.6560    3.4950 C.2   1254  HEM1254     0.0000
     30  C2D      -15.6300   -2.4850    3.9180 C.2   1254  HEM1254     0.0000
     31  C3D      -16.1030   -1.1930    3.2830 C.2   1254  HEM1254     0.0000
     32  C4D      -15.0090   -0.7100    2.5090 C.2   1254  HEM1254     0.0000
     33  CMD      -16.4870   -3.3670    4.8450 C.3   1254  HEM1254     0.0000
     34  CAD      -17.5110   -0.5890    3.4520 C.3   1254  HEM1254     0.0000
     35  CBD      -17.5600    0.2040    4.7480 C.3   1254  HEM1254     0.0000
     36  CGD      -18.8310    1.0340    4.8320 C.2   1254  HEM1254     0.0000
     37  O1D      -18.7710    2.0770    5.5410 O.co2 1254  HEM1254     0.0000
     38  O2D      -19.8830    0.6620    4.2560 O.co2 1254  HEM1254     0.0000
     39  NA       -12.8510    0.3320    0.6750 N.ar  1254  HEM1254     0.0000
     40  NB       -10.5720   -1.3530    0.3340 N.2   1254  HEM1254     0.0000
     41  NC       -11.6480   -3.3740    2.1630 N.ar  1254  HEM1254     0.0000
     42  ND       -13.9170   -1.5910    2.6680 N.2   1254  HEM1254     0.0000
     43 FE        -12.2950   -1.5850    1.3970 Fe    1254  HEM1254     0.0000
@<TRIPOS>BOND
     1    21    20    2
     2    19    16    1
     3    20    17    1
     4    16    17    2
     5    16    15    1
     6     9     7    1
     7    17    18    1
     8     2    15    1
     9     2     8    2
    10    15    40    2
    11     7     8   ar
    12     7     6   ar
    13     8    39   ar
    14    18    40    1
    15    18     3    2
    16    40    43    1
    17     6    10    1
    18     6     5   ar
    19    39     5   ar
    20    39    43    1
    21    10    11    1
    22     3    22    1
    23     5     1    2
    24    13    12   ar
    25    43    41    1
    26    43    42    1
    27     1    32    1
    28    22    41   ar
    29    22    23   ar
    30    11    12    1
    31    41    25   ar
    32    12    14   ar
    33    32    42    2
    34    32    31    1
    35    42    29    1
    36    26    23    1
    37    23    24   ar
    38    25    24   ar
    39    25     4    1
    40    31    34    1
    41    31    30    2
    42    34    35    1
    43    29     4    2
    44    29    30    1
    45    24    27    1
    46    30    33    1
    47    38    36   ar
    48    27    28    2
    49    35    36    1
    50    36    37   ar
