@<TRIPOS>MOLECULE
2x09_X09_A_1.pdb
 13 14 0 0 0
SMALL
GASTEIGER

@<TRIPOS>ATOM
      1  OAC       48.8940   41.8300   74.1300 O.3   1900  X091900    -0.2189
      2  CAI       49.0490   41.8200   72.7020 C.3   1900  X091900     0.1994
      3  CAJ       49.6870   43.0950   72.1610 C.3   1900  X091900     0.2004
      4  OAD       48.8250   44.2140   72.2750 O.3   1900  X091900    -0.2188
      5  CAL       49.7900   42.6640   70.6810 C.3   1900  X091900     0.1215
      6  CAH       50.8100   43.4110   69.7920 C.3   1900  X091900     0.1704
      7  OAB       51.7910   44.1020   70.5730 O.3   1900  X091900    -0.2216
      8  CAF       51.4760   42.2690   69.0480 C.3   1900  X091900     0.0517
      9  CAG       51.6060   41.2390   70.1670 C.3   1900  X091900     0.0749
     10  NAM       50.2700   41.2520   70.7650 N.3   1900  X091900    -0.2672
     11  CAK       50.2020   40.9020   72.2150 C.3   1900  X091900     0.1100
     12  CAE       49.9310   39.4130   72.3150 C.3   1900  X091900     0.1278
     13  NAA       49.3620   39.0310   73.5960 N.3   1900  X091900    -0.1298
@<TRIPOS>BOND
     1     8     6    1
     2     8     9    1
     3     6     7    1
     4     6     5    1
     5     9    10    1
     6     5    10    1
     7     5     3    1
     8    10    11    1
     9     3     4    1
    10     3     2    1
    11    11    12    1
    12    11     2    1
    13    12    13    1
    14     2     1    1
