@<TRIPOS>MOLECULE
2x0e_TYD_A_1.pdb
 25 26 0 0 0
SMALL
GASTEIGER

@<TRIPOS>ATOM
      1  PA       -11.2600    9.0310   -9.9150 P.3   414  TYD414      0.2231
      2  O1A      -11.4990   10.5040  -10.1480 O.3   414  TYD414     -0.4370
      3  O2A      -12.0900    8.0140  -10.6540 O.2   414  TYD414     -0.5169
      4  O3A      -11.3930    8.7320   -8.3440 O.3   414  TYD414     -0.2261
      5  PB       -12.8510    8.7810   -7.6760 P.3   414  TYD414      0.5373
      6  O1B      -13.2060   10.2470   -7.7850 O.3   414  TYD414     -0.1143
      7  O2B      -13.6820    7.8730   -8.5590 O.2   414  TYD414     -0.2221
      8  O3B      -12.6570    8.2480   -6.2710 O.3   414  TYD414     -0.1143
      9  O5'       -9.7020    8.7370  -10.1970 O.3   414  TYD414     -0.3111
     10  C5'       -9.2730    7.4620  -10.6480 C.3   414  TYD414      0.1812
     11  C4'       -9.3750    7.2910  -12.1660 C.3   414  TYD414      0.1773
     12  O4'       -9.2760    8.5290  -12.8860 O.3   414  TYD414     -0.3339
     13  C3'       -8.2330    6.4190  -12.6500 C.3   414  TYD414      0.1857
     14  O3'       -8.6830    5.0820  -12.7940 O.3   414  TYD414     -0.2203
     15  C2'       -7.8440    6.9920  -14.0000 C.3   414  TYD414      0.0874
     16  C1'       -8.3360    8.4200  -13.9610 C.3   414  TYD414      0.2090
     17  N1        -7.2130    9.3490  -13.7620 N.am  414  TYD414     -0.1794
     18  C2        -6.9690   10.3740  -14.6970 C.1   414  TYD414      0.2844
     19  O2        -7.7100   10.4860  -15.6910 O.2   414  TYD414     -0.1918
     20  N3        -5.9510   11.2360  -14.5440 N.2   414  TYD414     -0.2455
     21  C4        -5.1300   11.1580  -13.5000 C.1   414  TYD414      0.2134
     22  O4        -4.1910   11.9610  -13.3690 O.2   414  TYD414     -0.2088
     23  C5        -5.3520   10.0900  -12.5020 C.2   414  TYD414      0.0891
     24  C5M       -4.4480    9.9660  -11.3100 C.3   414  TYD414      0.0462
     25  C6        -6.4160    9.2200  -12.6870 C.2   414  TYD414      0.0877
@<TRIPOS>BOND
     1    19    18    2
     2    18    20    2
     3    18    17   am
     4    20    21    2
     5    15    16    1
     6    15    13    1
     7    16    17    1
     8    16    12    1
     9    17    25    1
    10    21    22    2
    11    21    23    1
    12    12    11    1
    13    14    13    1
    14    25    23    2
    15    13    11    1
    16    23    24    1
    17    11    10    1
    18     3     1    2
    19    10     9    1
    20     9     1    1
    21     2     1    1
    22     1     4    1
    23     7     5    2
    24     4     5    1
    25     6     5    1
    26     5     8    1
