@<TRIPOS>MOLECULE
2x0f_TRH_A_1.pdb
 35 37 0 0 0
SMALL
GASTEIGER

@<TRIPOS>ATOM
      1  O4P      -14.7370    5.9760  -11.6750 O.3   416  TRH416     -0.4371
      2  P2       -13.3380    6.4170  -11.7280 P.3   416  TRH416      0.2208
      3  O3P      -13.1860    7.9570  -12.1370 O.2   416  TRH416     -0.5170
      4  O1       -12.5280    5.6280  -12.8250 O.3   416  TRH416     -0.2857
      5  C1       -13.0140    4.3950  -13.2930 C.3   416  TRH416      0.2741
      6  C2       -11.7870    3.5590  -13.6140 C.3   416  TRH416      0.2409
      7  O2       -10.9750    4.2790  -14.5320 O.3   416  TRH416     -0.2149
      8  C3       -12.2170    2.2460  -14.2430 C.3   416  TRH416      0.2197
      9  O3       -11.0650    1.5000  -14.6200 O.3   416  TRH416     -0.2174
     10  C4       -13.0920    2.5330  -15.4550 C.3   416  TRH416      0.2118
     11  O4       -13.5900    1.3130  -16.0030 O.3   416  TRH416     -0.2177
     12  C5       -14.2510    3.4350  -15.0360 C.3   416  TRH416      0.1508
     13  O5       -13.6980    4.6460  -14.5140 O.3   416  TRH416     -0.3281
     14  C6       -15.1210    3.8050  -16.2340 C.3   416  TRH416      0.0350
     15  OPP      -12.5460    6.1800  -10.3480 O.3   416  TRH416     -0.2703
     16  P        -11.7980    7.3450   -9.5480 P.3   416  TRH416      0.2189
     17  O1P      -12.6910    8.4210   -9.1040 O.2   416  TRH416     -0.5170
     18  O2P      -11.0440    6.6220   -8.3480 O.3   416  TRH416     -0.4371
     19  O5'      -10.6220    7.9090  -10.4410 O.3   416  TRH416     -0.3112
     20  C5'       -9.6070    7.0650  -10.9280 C.3   416  TRH416      0.1812
     21  C4'       -9.4420    7.2950  -12.4100 C.3   416  TRH416      0.1773
     22  O4'       -9.0160    8.6270  -12.5810 O.3   416  TRH416     -0.3339
     23  C3'       -8.2860    6.4610  -12.9060 C.3   416  TRH416      0.1857
     24  O3'       -8.7920    5.2270  -13.4040 O.3   416  TRH416     -0.2203
     25  C2'       -7.7560    7.2950  -14.0580 C.3   416  TRH416      0.0874
     26  C1'       -8.3570    8.6780  -13.8400 C.3   416  TRH416      0.2090
     27  N11       -7.2310    9.6000  -13.6310 N.am  416  TRH416     -0.1794
     28  C21       -6.9990   10.6530  -14.5100 C.1   416  TRH416      0.2844
     29  O21       -7.8110   10.8390  -15.5770 O.2   416  TRH416     -0.1918
     30  N31       -5.9750   11.4850  -14.3070 N.2   416  TRH416     -0.2455
     31  C41       -5.1550   11.3350  -13.2670 C.1   416  TRH416      0.2134
     32  O41       -4.1320   12.2000  -13.1000 O.2   416  TRH416     -0.2088
     33  C51       -5.3400   10.3060  -12.3600 C.2   416  TRH416      0.0891
     34  C5A       -4.3960   10.1430  -11.1740 C.3   416  TRH416      0.0462
     35  C61       -6.3890    9.4250  -12.5380 C.2   416  TRH416      0.0877
@<TRIPOS>BOND
     1    14    12    1
     2    11    10    1
     3    29    28    2
     4    10    12    1
     5    10     8    1
     6    12    13    1
     7     9     8    1
     8     7     6    1
     9    13     5    1
    10    28    30    2
    11    28    27   am
    12    30    31    2
    13     8     6    1
    14    25    26    1
    15    25    23    1
    16    26    27    1
    17    26    22    1
    18    27    35    1
    19     6     5    1
    20    24    23    1
    21     5     4    1
    22    31    32    2
    23    31    33    1
    24    23    21    1
    25     4     2    1
    26    22    21    1
    27    35    33    2
    28    21    20    1
    29    33    34    1
    30     3     2    2
    31     2     1    1
    32     2    15    1
    33    20    19    1
    34    19    16    1
    35    15    16    1
    36    16    17    2
    37    16    18    1
