@<TRIPOS>MOLECULE
2x0h_14T_A_1.pdb
 25 26 0 0 0
SMALL
GASTEIGER

@<TRIPOS>ATOM
      1  F1        -2.5790   28.1120   19.4160 F     1000  14T1000    -0.1880
      2  C7        -3.6000   28.3430   20.3190 C.3   1000  14T1000     0.3944
      3  F2        -4.2900   27.1830   20.4140 F     1000  14T1000    -0.1880
      4  C8        -3.0910   28.6600   21.7030 C.2   1000  14T1000     0.3090
      5  O5        -1.9150   28.9190   21.8560 O.2   1000  14T1000    -0.2672
      6  N1        -4.0090   28.6330   22.6890 N.am  1000  14T1000    -0.1932
      7  C5        -3.8140   28.9000   24.1090 C.3   1000  14T1000     0.1980
      8  C6        -3.4870   30.3850   24.1630 C.3   1000  14T1000     0.2107
      9  O3        -4.7370   31.0980   24.2110 O.3   1000  14T1000    -0.2182
     10  C2        -2.5730   30.7000   25.3530 C.3   1000  14T1000     0.2137
     11  O2        -2.2360   32.0950   25.4540 O.3   1000  14T1000    -0.2176
     12  C3        -1.2970   29.9110   25.1660 C.3   1000  14T1000     0.1845
     13  C4        -0.2880   30.2240   26.2750 C.3   1000  14T1000     0.2142
     14  O4        -0.8930   29.9980   27.5590 O.3   1000  14T1000    -0.2176
     15  O1        -1.5540   28.5080   25.1550 O.3   1000  14T1000    -0.3163
     16  C1        -2.8520   27.9490   24.9290 C.3   1000  14T1000     0.3109
     17  O6        -3.2870   27.7730   26.2940 O.3   1000  14T1000    -0.4510
     18  C10       -3.2070   26.6440   27.0930 C.ar  1000  14T1000     0.1438
     19  C9        -2.0550   25.8470   27.2550 C.ar  1000  14T1000     0.0689
     20  C14       -2.1110   24.7280   28.1040 C.ar  1000  14T1000     0.1704
     21  F3        -1.0360   23.9250   28.2930 F     1000  14T1000    -0.2017
     22  C11       -4.3650   26.3210   27.7950 C.ar  1000  14T1000     0.0394
     23  C12       -4.4250   25.2030   28.6240 C.ar  1000  14T1000     0.0351
     24  C13       -3.2900   24.4070   28.7820 C.ar  1000  14T1000     0.1676
     25  F4        -3.3510   23.3340   29.6000 F     1000  14T1000    -0.2018
@<TRIPOS>BOND
     1     1     2    1
     2     2     3    1
     3     2     4    1
     4     4     5    2
     5     4     6   am
     6     6     7    1
     7     7     8    1
     8     7    16    1
     9     8     9    1
    10     8    10    1
    11    16    15    1
    12    16    17    1
    13    15    12    1
    14    12    10    1
    15    12    13    1
    16    10    11    1
    17    13    14    1
    18    17    18    1
    19    18    19   ar
    20    18    22   ar
    21    19    20   ar
    22    22    23   ar
    23    20    21    1
    24    20    24   ar
    25    23    24   ar
    26    24    25    1
