@<TRIPOS>MOLECULE
2x0i_NAD_A_1.pdb
 44 48 0 0 0
SMALL
GASTEIGER

@<TRIPOS>ATOM
      1  PA        19.0340   28.0030    5.9360 P.3   1000  NAD1000     0.2189
      2  O1A       17.5700   27.5280    5.7040 O.3   1000  NAD1000    -0.4371
      3  O2A       19.9810   28.1040    4.6910 O.2   1000  NAD1000    -0.5170
      4  O5B       19.3810   28.7480    7.2790 O.3   1000  NAD1000    -0.3112
      5  C5B       18.5380   28.7070    8.3820 C.3   1000  NAD1000     0.1813
      6  C4B       19.1800   28.2700    9.6810 C.3   1000  NAD1000     0.1821
      7  O4B       18.5390   28.7850   10.8300 O.3   1000  NAD1000    -0.3135
      8  C3B       19.1640   26.7870    9.8030 C.3   1000  NAD1000     0.2184
      9  O3B       20.4540   26.2870    9.7920 O.3   1000  NAD1000    -0.2174
     10  C2B       18.4310   26.5180   11.0400 C.3   1000  NAD1000     0.2570
     11  O2B       18.9510   25.4540   11.7400 O.3   1000  NAD1000    -0.2130
     12  C1B       18.5310   27.8030   11.8040 C.3   1000  NAD1000     0.3186
     13  N9A       17.4630   27.9590   12.7870 N.pl3 1000  NAD1000    -0.1439
     14  C8A       16.1560   27.6930   12.6100 C.3   1000  NAD1000     0.3377
     15  N7A       15.5030   27.9890   13.7520 N.2   1000  NAD1000    -0.2095
     16  C5A       16.3870   28.4680   14.6450 C.2   1000  NAD1000     0.2526
     17  C6A       16.3200   28.9350   15.9770 C.2   1000  NAD1000     0.4393
     18  N6A       15.0620   28.9900   16.6720 N.pl3 1000  NAD1000     0.2180
     19  N1A       17.4320   29.3310   16.6080 N.2   1000  NAD1000     0.0021
     20  C2A       18.6090   29.2860   15.9640 C.3   1000  NAD1000     0.5254
     21  N3A       18.7250   28.8460   14.7030 N.2   1000  NAD1000    -0.0055
     22  C4A       17.6440   28.4360   14.0320 C.2   1000  NAD1000     0.3518
     23  O3        18.5260   29.4690    5.5750 O.3   1000  NAD1000    -0.2703
     24  PN        19.1360   30.5390    4.5670 P.3   1000  NAD1000     0.2189
     25  O1N       19.0940   30.1060    3.1190 O.2   1000  NAD1000    -0.5170
     26  O2N       20.5770   30.8330    4.9250 O.3   1000  NAD1000    -0.4371
     27  O5D       18.2860   31.8530    4.7280 O.3   1000  NAD1000    -0.3112
     28  C5D       18.0840   32.3860    6.0060 C.3   1000  NAD1000     0.1813
     29  C4D       17.0200   33.4510    6.1690 C.3   1000  NAD1000     0.1799
     30  O4D       17.5380   34.6410    5.7370 O.3   1000  NAD1000    -0.3327
     31  C3D       15.7700   33.2090    5.3550 C.3   1000  NAD1000     0.2158
     32  O3D       14.6750   33.7640    5.9650 O.3   1000  NAD1000    -0.2175
     33  C2D       16.0470   33.8910    4.0810 C.3   1000  NAD1000     0.2309
     34  O2D       14.9500   34.2920    3.3580 O.3   1000  NAD1000    -0.2158
     35  C1D       16.7430   35.0940    4.5820 C.3   1000  NAD1000     0.2263
     36  N1N       17.4440   35.8920    3.4890 N.pl3 1000  NAD1000    -0.2787
     37  C2N       17.4250   37.2190    3.5940 C.3   1000  NAD1000     0.1244
     38  C3N       18.0260   38.0210    2.6240 C.2   1000  NAD1000     0.0544
     39  C7N       18.0030   39.5000    2.7680 C.2   1000  NAD1000     0.2818
     40  O7N       18.4010   40.1730    1.8370 O.2   1000  NAD1000    -0.2670
     41  N7N       17.4070   40.1150    3.9270 N.am  1000  NAD1000    -0.0839
     42  C4N       18.6460   37.4090    1.5310 C.2   1000  NAD1000     0.0033
     43  C5N       18.6430   36.0080    1.4610 C.2   1000  NAD1000     0.0157
     44  C6N       18.0230   35.2490    2.4680 C.2   1000  NAD1000     0.0633
@<TRIPOS>BOND
     1    43    42    1
     2    43    44    2
     3    42    38    2
     4    40    39    2
     5    44    36    1
     6    38    39    1
     7    38    37    1
     8    39    41   am
     9    25    24    2
    10    34    33    1
    11    36    37    1
    12    36    35    1
    13    33    35    1
    14    33    31    1
    15    24    27    1
    16    24    26    1
    17    24    23    1
    18    35    30    1
    19     3     1    2
    20    27    28    1
    21    31    32    1
    22    31    29    1
    23    23     1    1
    24     2     1    1
    25    30    29    1
    26     1     4    1
    27    28    29    1
    28     4     5    1
    29     5     6    1
    30     6     8    1
    31     6     7    1
    32     9     8    1
    33     8    10    1
    34     7    12    1
    35    10    11    1
    36    10    12    1
    37    12    13    1
    38    14    13    1
    39    14    15    1
    40    13    22    1
    41    15    16    2
    42    22    16    1
    43    22    21    2
    44    16    17    1
    45    21    20    1
    46    20    19    1
    47    17    19    2
    48    17    18    1
