@<TRIPOS>MOLECULE
2x0j_ENA_A_1.pdb
 46 51 0 0 0
SMALL
GASTEIGER

@<TRIPOS>ATOM
      1  C8        17.3780   28.1750   13.8630 C.2   1000  ENA1000     0.3444
      2  N9        17.2140   27.6810   12.6040 N.pl3 1000  ENA1000    -0.1441
      3  C5        16.0990   28.1490   14.4580 C.2   1000  ENA1000     0.1959
      4  N3        18.4290   28.6640   14.5870 N.2   1000  ENA1000    -0.0363
      5  C1'       18.2010   27.5590   11.5580 C.3   1000  ENA1000     0.3186
      6  C4        15.8950   27.3750   12.4580 C.3   1000  ENA1000     0.3376
      7  C6        15.9530   28.6270   15.7480 C.ar  1000  ENA1000     0.1719
      8  N7        15.1980   27.6490   13.5750 N.2   1000  ENA1000    -0.2134
      9  C2        18.2460   29.1270   15.8710 C.3   1000  ENA1000     0.3777
     10  O2'       18.5650   28.6490   10.7590 O.3   1000  ENA1000    -0.3135
     11  C2'       18.5100   26.2950   10.8470 C.3   1000  ENA1000     0.2570
     12  N1        17.0240   29.0920   16.4320 N.ar  1000  ENA1000    -0.2632
     13  N6        14.8230   28.7150   16.4990 N.ar  1000  ENA1000    -0.2233
     14  C4'       19.3300   28.1830    9.6920 C.3   1000  ENA1000     0.1821
     15  C3'       19.3790   26.6820    9.7340 C.3   1000  ENA1000     0.2184
     16  O4'       19.0490   25.3180   11.6540 O.3   1000  ENA1000    -0.2130
     17  C10       16.5820   29.4830   17.6130 C.ar  1000  ENA1000     0.1015
     18  C9        15.2320   29.2530   17.6770 C.ar  1000  ENA1000     0.1193
     19  C5'       18.8160   28.7180    8.3660 C.3   1000  ENA1000     0.1813
     20  O3'       20.6500   26.2240    9.9220 O.3   1000  ENA1000    -0.2174
     21  O5'       19.6310   28.4040    7.2380 O.3   1000  ENA1000    -0.3112
     22  P1        18.9780   28.1850    5.8210 P.3   1000  ENA1000     0.2189
     23  O2        18.3720   29.5630    5.3020 O.3   1000  ENA1000    -0.2703
     24  O1        17.8130   27.2630    5.9900 O.3   1000  ENA1000    -0.4371
     25  O3        20.0520   27.6660    4.8850 O.2   1000  ENA1000    -0.5170
     26  P2        19.1940   30.6760    4.5440 P.3   1000  ENA1000     0.2189
     27  O4        18.4330   32.0040    4.8760 O.3   1000  ENA1000    -0.3112
     28  O5        19.1810   30.3960    3.0570 O.2   1000  ENA1000    -0.5170
     29  O6        20.6070   30.7120    5.0680 O.3   1000  ENA1000    -0.4371
     30  C6'       17.8990   32.2530    6.1350 C.3   1000  ENA1000     0.1813
     31  C7'       16.9720   33.4120    6.2280 C.3   1000  ENA1000     0.1799
     32  O6'       17.5890   34.5110    5.6340 O.3   1000  ENA1000    -0.3327
     33  C8'       15.7080   33.1580    5.4640 C.3   1000  ENA1000     0.2158
     34  C9'       16.7580   35.0000    4.6380 C.3   1000  ENA1000     0.2263
     35  C0'       16.0020   33.8300    4.1850 C.3   1000  ENA1000     0.2309
     36  O7'       14.6290   33.7930    6.0800 O.3   1000  ENA1000    -0.2175
     37  O8'       14.8830   34.2800    3.4980 O.3   1000  ENA1000    -0.2158
     38  N11       17.4410   35.8180    3.6150 N.pl3 1000  ENA1000    -0.2787
     39  C12       17.4830   37.1780    3.7040 C.3   1000  ENA1000     0.1244
     40  C13       18.0710   37.9840    2.7170 C.2   1000  ENA1000     0.0544
     41  C14       18.6400   37.3690    1.5930 C.2   1000  ENA1000     0.0033
     42  C15       18.6060   35.9730    1.5390 C.2   1000  ENA1000     0.0157
     43  C16       18.0160   35.1940    2.5430 C.2   1000  ENA1000     0.0633
     44  C17       18.0230   39.4570    2.8830 C.2   1000  ENA1000     0.2818
     45  O17       18.1850   40.1530    1.9090 O.2   1000  ENA1000    -0.2670
     46  N17       17.4800   40.0060    4.0790 N.am  1000  ENA1000    -0.0839
@<TRIPOS>BOND
     1    42    41    1
     2    42    43    2
     3    41    40    2
     4    45    44    2
     5    43    38    1
     6    40    44    1
     7    40    39    1
     8    44    46   am
     9    28    26    2
    10    37    35    1
    11    38    39    1
    12    38    34    1
    13    35    34    1
    14    35    33    1
    15    26    27    1
    16    26    29    1
    17    26    23    1
    18    34    32    1
    19    27    30    1
    20    25    22    2
    21    23    22    1
    22    33    36    1
    23    33    31    1
    24    32    31    1
    25    22    24    1
    26    22    21    1
    27    30    31    1
    28    21    19    1
    29    19    14    1
    30    14    15    1
    31    14    10    1
    32    15    20    1
    33    15    11    1
    34    10     5    1
    35    11     5    1
    36    11    16    1
    37     5     2    1
    38     6     2    1
    39     6     8    1
    40     2     1    1
    41     8     3    2
    42     1     3    1
    43     1     4    2
    44     3     7    1
    45     4     9    1
    46     7    12   ar
    47     7    13   ar
    48     9    12    1
    49    12    17   ar
    50    13    18   ar
    51    17    18   ar
