@<TRIPOS>MOLECULE
2x0n_NAD_A_1.pdb
 44 48 0 0 0
SMALL
GASTEIGER

@<TRIPOS>ATOM
      1  PA        83.8670   10.2690   47.1400 P.3   361  NAD361      0.2189
      2  O1A       83.9100   10.5100   48.6820 O.3   361  NAD361     -0.4371
      3  O2A       82.5200    9.8130   46.4940 O.2   361  NAD361     -0.5170
      4  O5B       84.9620   10.9010   46.1920 O.3   361  NAD361     -0.3112
      5  C5B       86.2190   11.2030   46.6940 C.3   361  NAD361      0.1813
      6  C4B       87.4010   10.5980   45.9800 C.3   361  NAD361      0.1821
      7  O4B       88.5670   11.3610   46.1960 O.3   361  NAD361     -0.3135
      8  C3B       87.7190    9.2000   46.4110 C.3   361  NAD361      0.2184
      9  O3B       87.4790    8.3230   45.3710 O.3   361  NAD361     -0.2174
     10  C2B       89.1260    9.2620   46.8400 C.3   361  NAD361      0.2570
     11  O2B       89.8730    8.1220   46.5760 O.3   361  NAD361     -0.2130
     12  C1B       89.6280   10.4820   46.1150 C.3   361  NAD361      0.3186
     13  N9A       90.8500   11.0920   46.6170 N.pl3 361  NAD361     -0.1439
     14  C8A       91.1160   11.4460   47.8870 C.3   361  NAD361      0.3377
     15  N7A       92.2820   12.1110   47.9110 N.2   361  NAD361     -0.2095
     16  C5A       92.7140   12.2320   46.6470 C.2   361  NAD361      0.2526
     17  C6A       93.8310   12.8080   46.0410 C.2   361  NAD361      0.4393
     18  N6A       94.8010   13.4560   46.8620 N.pl3 361  NAD361      0.2180
     19  N1A       94.0000   12.7630   44.7170 N.2   361  NAD361      0.0021
     20  C2A       93.0780   12.1540   43.9600 C.3   361  NAD361      0.5254
     21  N3A       91.9800   11.5870   44.4790 N.2   361  NAD361     -0.0055
     22  C4A       91.7880   11.6130   45.8070 C.2   361  NAD361      0.3518
     23  O3        83.3600   11.7740   47.1120 O.3   361  NAD361     -0.2703
     24  PN        81.9950   12.3420   46.5580 P.3   361  NAD361      0.2189
     25  O1N       80.7970   11.8250   47.3310 O.3   361  NAD361     -0.4371
     26  O2N       81.8380   12.0740   45.0810 O.2   361  NAD361     -0.5170
     27  O5D       82.0380   13.8870   46.7250 O.3   361  NAD361     -0.3112
     28  C5D       83.0800   14.5950   46.1400 C.3   361  NAD361      0.1813
     29  C4D       82.8150   16.0740   46.0720 C.3   361  NAD361      0.1799
     30  O4D       81.6770   16.2380   45.3160 O.3   361  NAD361     -0.3327
     31  C3D       82.5690   16.6360   47.4530 C.3   361  NAD361      0.2158
     32  O3D       83.4400   17.6650   47.7280 O.3   361  NAD361     -0.2175
     33  C2D       81.1530   17.0600   47.5020 C.3   361  NAD361      0.2309
     34  O2D       81.0620   18.3260   48.0310 O.3   361  NAD361     -0.2158
     35  C1D       80.6690   17.0200   46.0770 C.3   361  NAD361      0.2263
     36  N1N       79.1840   16.6850   45.7380 N.pl3 361  NAD361     -0.2787
     37  C2N       78.6790   15.4790   46.0500 C.3   361  NAD361      0.1244
     38  C3N       77.3540   15.1330   45.7400 C.2   361  NAD361      0.0544
     39  C7N       76.7840   13.7790   46.0880 C.2   361  NAD361      0.2818
     40  O7N       75.6050   13.6600   46.4210 O.2   361  NAD361     -0.2670
     41  N7N       77.6230   12.6090   46.0250 N.am  361  NAD361     -0.0839
     42  C4N       76.5700   16.0890   45.0840 C.2   361  NAD361      0.0033
     43  C5N       77.1210   17.3330   44.7710 C.2   361  NAD361      0.0157
     44  C6N       78.4480   17.6050   45.1080 C.2   361  NAD361      0.0633
@<TRIPOS>BOND
     1    20    21    1
     2    20    19    1
     3    21    22    2
     4    19    17    2
     5    43    42    1
     6    43    44    2
     7    26    24    2
     8    42    38    2
     9    44    36    1
    10    30    29    1
    11    30    35    1
    12     9     8    1
    13    36    37    1
    14    36    35    1
    15    38    37    1
    16    38    39    1
    17    22    13    1
    18    22    16    1
    19     6     7    1
    20     6     8    1
    21     6     5    1
    22    41    39   am
    23    17    16    1
    24    17    18    1
    25    29    28    1
    26    29    31    1
    27    35    33    1
    28    39    40    2
    29    12     7    1
    30    12    13    1
    31    12    10    1
    32    28    27    1
    33     4     5    1
    34     4     1    1
    35     8    10    1
    36     3     1    2
    37    24    27    1
    38    24    23    1
    39    24    25    1
    40    11    10    1
    41    13    14    1
    42    16    15    2
    43    23     1    1
    44     1     2    1
    45    31    33    1
    46    31    32    1
    47    33    34    1
    48    14    15    1
