@<TRIPOS>MOLECULE
2x0p_ADN_A_1.pdb
 19 21 0 0 0
SMALL
GASTEIGER

@<TRIPOS>ATOM
      1  O5'       32.8180   14.1030  -14.2880 O.3   1607  ADN1607    -0.2176
      2  C5'       31.9180   12.9720  -14.3230 C.3   1607  ADN1607     0.2143
      3  C4'       31.9670   12.2210  -12.9380 C.3   1607  ADN1607     0.1851
      4  O4'       30.6930   12.2650  -12.2730 O.3   1607  ADN1607    -0.3134
      5  C3'       32.2450   10.7060  -12.9910 C.3   1607  ADN1607     0.2186
      6  O3'       32.7320   10.2730  -11.7110 O.3   1607  ADN1607    -0.2174
      7  C2'       30.8470   10.0830  -13.2560 C.3   1607  ADN1607     0.2570
      8  O2'       30.5490    9.0080  -12.3680 O.3   1607  ADN1607    -0.2130
      9  C1'       29.8880   11.2520  -13.0270 C.3   1607  ADN1607     0.3186
     10  N9        28.5230   11.1170  -12.3890 N.pl3 1607  ADN1607    -0.1439
     11  C8        28.1410   10.5630  -11.2350 C.3   1607  ADN1607     0.3377
     12  N7        26.8140   10.7230  -11.0900 N.2   1607  ADN1607    -0.2095
     13  C5        26.3560   11.3850  -12.1570 C.2   1607  ADN1607     0.2526
     14  C6        25.1070   11.8520  -12.5960 C.2   1607  ADN1607     0.4393
     15  N6        23.9980   11.6660  -11.8830 N.pl3 1607  ADN1607     0.2180
     16  N1        25.0310   12.5140  -13.7780 N.2   1607  ADN1607     0.0021
     17  C2        26.1060   12.7100  -14.5290 C.3   1607  ADN1607     0.5254
     18  N3        27.3020   12.2800  -14.1480 N.2   1607  ADN1607    -0.0055
     19  C4        27.4520   11.6270  -12.9800 C.2   1607  ADN1607     0.3518
@<TRIPOS>BOND
     1    17    18    1
     2    17    16    1
     3     2     1    1
     4     2     3    1
     5    18    19    2
     6    16    14    2
     7     7     9    1
     8     7     5    1
     9     7     8    1
    10     9    10    1
    11     9     4    1
    12     5     3    1
    13     5     6    1
    14    19    10    1
    15    19    13    1
    16     3     4    1
    17    14    13    1
    18    14    15    1
    19    10    11    1
    20    13    12    2
    21    11    12    1
