@<TRIPOS>MOLECULE
2x0q_ATP_A_1.pdb
 31 33 0 0 0
SMALL
GASTEIGER

@<TRIPOS>ATOM
      1  PG        33.1320   17.4390   12.9000 P.3   1607  ATP1607     0.5373
      2  O1G       31.7390   17.2410   12.3940 O.3   1607  ATP1607    -0.1143
      3  O2G       33.2650   17.3220   14.3960 O.3   1607  ATP1607    -0.1143
      4  O3G       33.8050   18.6780   12.3770 O.2   1607  ATP1607    -0.2221
      5  PB        34.2960   15.5570   10.9220 P.3   1607  ATP1607     0.2277
      6  O1B       35.0170   14.2410   11.1380 O.3   1607  ATP1607    -0.4368
      7  O2B       34.9500   16.5750   10.0470 O.2   1607  ATP1607    -0.5168
      8  O3B       34.0410   16.1780   12.3970 O.3   1607  ATP1607    -0.2258
      9  PA        32.3340   14.7590    8.9040 P.3   1607  ATP1607     0.2189
     10  O1A       30.9750   15.3900    8.6530 O.3   1607  ATP1607    -0.4371
     11  O2A       33.4330   14.9150    7.8950 O.2   1607  ATP1607    -0.5170
     12  O3A       32.7880   15.2800   10.3820 O.3   1607  ATP1607    -0.2700
     13  O5'       32.0410   13.1960    9.0740 O.3   1607  ATP1607    -0.3112
     14  C5'       31.0210   12.7760    9.9890 C.3   1607  ATP1607     0.1813
     15  C4'       31.6490   11.8080   10.9910 C.3   1607  ATP1607     0.1821
     16  O4'       30.7150   11.5190   12.0230 O.3   1607  ATP1607    -0.3135
     17  C3'       31.9880   10.4620   10.3700 C.3   1607  ATP1607     0.2184
     18  O3'       33.0320    9.8570   11.1570 O.3   1607  ATP1607    -0.2174
     19  C2'       30.7080    9.6720   10.5710 C.3   1607  ATP1607     0.2570
     20  O2'       30.9030    8.2620   10.5420 O.3   1607  ATP1607    -0.2130
     21  C1'       30.2920   10.1490   11.9550 C.3   1607  ATP1607     0.3186
     22  N9        28.8310   10.0890   12.1740 N.pl3 1607  ATP1607    -0.1439
     23  C8        28.2320    9.5220   13.2460 C.3   1607  ATP1607     0.3377
     24  N7        26.8830    9.6420   13.1810 N.2   1607  ATP1607    -0.2095
     25  C5        26.6080   10.2820   12.0300 C.2   1607  ATP1607     0.2526
     26  C6        25.3800   10.7350   11.3460 C.2   1607  ATP1607     0.4393
     27  N6        24.1850   10.4850   11.9090 N.pl3 1607  ATP1607     0.2180
     28  N1        25.5030   11.3820   10.1590 N.2   1607  ATP1607     0.0021
     29  C2        26.7160   11.6160    9.6020 C.3   1607  ATP1607     0.5254
     30  N3        27.8760   11.2430   10.1700 N.2   1607  ATP1607    -0.0055
     31  C4        27.8880   10.5870   11.3660 C.2   1607  ATP1607     0.3518
@<TRIPOS>BOND
     1    11     9    2
     2    10     9    1
     3     9    13    1
     4     9    12    1
     5    13    14    1
     6    29    28    1
     7    29    30    1
     8    14    15    1
     9     7     5    2
    10    28    26    2
    11    30    31    2
    12    17    19    1
    13    17    15    1
    14    17    18    1
    15    12     5    1
    16    20    19    1
    17    19    21    1
    18     5     6    1
    19     5     8    1
    20    15    16    1
    21    26    27    1
    22    26    25    1
    23    31    25    1
    24    31    22    1
    25    21    16    1
    26    21    22    1
    27    25    24    2
    28    22    23    1
    29     4     1    2
    30     2     1    1
    31     8     1    1
    32     1     3    1
    33    24    23    1
