@<TRIPOS>MOLECULE
2x0u_X0U_B_1.pdb
 14 16 0 0 0
SMALL
GASTEIGER

@<TRIPOS>ATOM
      1  N1       124.5560  103.8070  -43.2960 N.2   1291  X0U1291    -0.3808
      2  N2       125.2370  104.4360  -41.1420 N.pl3 1291  X0U1291    -0.0867
      3  C1       124.3780  101.5030  -46.2400 C.2   1291  X0U1291     0.1744
      4  C2       125.2400  100.4770  -45.7650 C.2   1291  X0U1291     0.1695
      5  C3       124.7790   99.1900  -47.7260 C.3   1291  X0U1291     0.2526
      6  C4       124.4250  100.5270  -48.3920 C.3   1291  X0U1291     0.2526
      7  C5       124.1290  102.6660  -45.4670 C.2   1291  X0U1291     0.0688
      8  C6       124.7230  102.7650  -44.1790 C.2   1291  X0U1291     0.1287
      9  C7       125.5560  101.7110  -43.7210 C.3   1291  X0U1291     0.1328
     10  C8       125.8530  100.5670  -44.4950 C.2   1291  X0U1291     0.0319
     11  C9       125.2430  103.5850  -42.1940 C.2   1291  X0U1291     0.2463
     12  O1       123.7540  101.4330  -47.4650 O.2   1291  X0U1291    -0.4683
     13  O2       125.5360   99.3420  -46.4880 O.2   1291  X0U1291    -0.4687
     14  S        126.1220  102.0910  -42.1610 S.3   1291  X0U1291    -0.0531
@<TRIPOS>BOND
     1     6     5    1
     2     6    12    1
     3     5    13    1
     4    12     3    1
     5    13     4    1
     6     3     4    1
     7     3     7    2
     8     4    10    2
     9     7     8    1
    10    10     9    1
    11     8     9    1
    12     8     1    2
    13     9    14    1
    14     1    11    2
    15    11    14    1
    16    11     2    1
