@<TRIPOS>MOLECULE
2x0v_X0V_B_1.pdb
 12 12 0 0 0
SMALL
GASTEIGER

@<TRIPOS>ATOM
      1  C1       125.0250   99.5760  -47.4650 C.3   1290  X0V1290     0.4186
      2  C2       124.0340   99.6280  -48.6020 C.ar  1290  X0V1290     0.0728
      3  C3       123.0450  100.8170  -50.4300 C.ar  1290  X0V1290     0.1057
      4  C4       123.9630  100.7580  -49.3970 C.ar  1290  X0V1290     0.0233
      5  C6       122.1860   99.7440  -50.6620 C.ar  1290  X0V1290     0.1057
      6  C7       123.1830   98.5590  -48.8300 C.ar  1290  X0V1290     0.0053
      7  F1       124.3060   99.6670  -46.2680 F     1290  X0V1290    -0.1659
      8  F2       125.7440   98.3780  -47.5100 F     1290  X0V1290    -0.1659
      9  F3       125.9220  100.6460  -47.5500 F     1290  X0V1290    -0.1659
     10  C8       122.2570   98.6120  -49.8580 C.ar  1290  X0V1290     0.0194
     11  N1       122.9800  101.9580  -51.2420 N.pl3 1290  X0V1290    -0.1267
     12  N2       121.2530   99.8150  -51.7040 N.pl3 1290  X0V1290    -0.1266
@<TRIPOS>BOND
     1    12     5    1
     2    11     3    1
     3     5     3   ar
     4     5    10   ar
     5     3     4   ar
     6    10     6   ar
     7     4     2   ar
     8     6     2   ar
     9     2     1    1
    10     9     1    1
    11     8     1    1
    12     1     7    1
