@<TRIPOS>MOLECULE
2x0w_X0W_B_1.pdb
 14 15 0 0 0
SMALL
GASTEIGER

@<TRIPOS>ATOM
      1  N        123.7480  103.7170  -46.4690 N.2   1291  X0W1291    -0.4031
      2  C1       125.0090  102.8600  -44.6810 C.2   1291  X0W1291     0.0604
      3  O1       126.4010   99.6510  -43.7310 O.2   1291  X0W1291    -0.4687
      4  C2       125.6810  101.8320  -43.9970 C.2   1291  X0W1291     0.0485
      5  O2       125.1690   99.0020  -46.2910 O.2   1291  X0W1291    -0.4722
      6  C3       125.7230  100.5320  -44.5450 C.2   1291  X0W1291     0.1692
      7  C4       126.6390  100.0170  -42.3800 C.3   1291  X0W1291     0.2526
      8  C5       125.0860  100.2680  -45.7730 C.2   1291  X0W1291     0.1569
      9  C6       124.7360   98.7920  -47.6330 C.3   1291  X0W1291     0.2521
     10  C7       124.4180  101.3130  -46.4370 C.3   1291  X0W1291     0.1264
     11  C8       124.3740  102.6160  -45.8960 C.2   1291  X0W1291     0.1230
     12  C9       123.8990  104.7800  -45.7070 C.2   1291  X0W1291     0.1385
     13  C10      123.3300  106.1210  -46.0190 C.3   1291  X0W1291     0.0739
     14  S        124.8000  104.5290  -44.2630 S.3   1291  X0W1291    -0.0575
@<TRIPOS>BOND
     1     9     5    1
     2     1    11    2
     3     1    12    2
     4    10    11    1
     5    10     8    1
     6     5     8    1
     7    13    12    1
     8    11     2    1
     9     8     6    2
    10    12    14    1
    11     2    14    1
    12     2     4    2
    13     6     4    1
    14     6     3    1
    15     3     7    1
