@<TRIPOS>MOLECULE
2x0y_X0T_A_1.pdb
 18 19 0 0 0
SMALL
GASTEIGER

@<TRIPOS>ATOM
      1  CAB       35.6110   47.2310   22.1750 C.3   1625  X0T1625     0.2626
      2  N3        35.2800   45.7690   22.2350 N.am  1625  X0T1625    -0.1218
      3  C2        36.2860   44.8090   22.1740 C.2   1625  X0T1625     0.4044
      4  O2        37.4510   45.2020   22.0710 O.2   1625  X0T1625    -0.2230
      5  N1        35.9690   43.4200   22.2160 N.am  1625  X0T1625    -0.1903
      6  CAA       37.0540   42.4090   22.1670 C.3   1625  X0T1625     0.1267
      7  C6        34.6280   43.0120   22.3280 C.2   1625  X0T1625     0.2609
      8  O6        34.3300   41.8080   22.3740 O.2   1625  X0T1625    -0.2723
      9  C5        33.6310   43.9970   22.3900 C.3   1625  X0T1625     0.2453
     10  C4        33.9440   45.3540   22.3460 C.2   1625  X0T1625     0.3276
     11  N9        32.8030   46.0490   22.4350 N.2   1625  X0T1625    -0.0479
     12  C8        31.7940   45.1740   22.5430 C.3   1625  X0T1625     0.3429
     13  N7        32.3080   43.9460   22.5120 N.3   1625  X0T1625    -0.2085
     14  CAI       31.5640   42.6810   22.5950 C.3   1625  X0T1625     0.1126
     15  CAO       30.0650   42.8360   22.6760 C.3   1625  X0T1625     0.2007
     16  OAF       29.7180   43.4200   23.9320 O.3   1625  X0T1625    -0.2188
     17  CAH       29.4630   41.4380   22.5790 C.3   1625  X0T1625     0.2162
     18  OAE       28.1560   41.5710   22.0600 O.3   1625  X0T1625    -0.2175
@<TRIPOS>BOND
     1    18    17    1
     2     4     3    2
     3     6     5    1
     4     3     5   am
     5     3     2   am
     6     1     2    1
     7     5     7   am
     8     2    10    1
     9     7     8    2
    10     7     9    1
    11    10     9    1
    12    10    11    2
    13     9    13    1
    14    11    12    1
    15    13    12    1
    16    13    14    1
    17    17    15    1
    18    14    15    1
    19    15    16    1
