@<TRIPOS>MOLECULE
2x13_ADP_A_1.pdb
 27 29 0 0 0
SMALL
GASTEIGER

@<TRIPOS>ATOM
      1  PB        -5.1550    8.7480  -22.5840 P.3   1420  ADP1420     0.5373
      2  O1B       -3.6610    8.9420  -22.8710 O.3   1420  ADP1420    -0.1143
      3  O2B       -5.7000    7.5290  -23.2610 O.2   1420  ADP1420    -0.2221
      4  O3B       -5.4270    8.8510  -21.1030 O.3   1420  ADP1420    -0.1143
      5  PA        -5.7280   11.6000  -22.9180 P.3   1420  ADP1420     0.2231
      6  O1A       -4.7700   12.3130  -23.8190 O.2   1420  ADP1420    -0.5169
      7  O2A       -5.5520   11.7150  -21.4500 O.3   1420  ADP1420    -0.4370
      8  O3A       -5.8590   10.0410  -23.2720 O.3   1420  ADP1420    -0.2261
      9  O5'       -7.1760   12.1840  -23.3230 O.3   1420  ADP1420    -0.3111
     10  C5'       -8.2320   11.8530  -22.4770 C.3   1420  ADP1420     0.1813
     11  C4'       -9.3060   12.9180  -22.5840 C.3   1420  ADP1420     0.1821
     12  O4'       -9.3490   13.7110  -23.7750 O.3   1420  ADP1420    -0.3135
     13  C3'      -10.6530   12.2440  -22.4950 C.3   1420  ADP1420     0.2184
     14  O3'      -11.0000   12.4440  -21.1220 O.3   1420  ADP1420    -0.2174
     15  C2'      -11.5350   13.0320  -23.4430 C.3   1420  ADP1420     0.2570
     16  O2'      -12.6730   13.4700  -22.7220 O.3   1420  ADP1420    -0.2130
     17  C1'      -10.6650   14.2310  -23.8300 C.3   1420  ADP1420     0.3186
     18  N9       -11.0130   14.7920  -25.1440 N.pl3 1420  ADP1420    -0.1439
     19  C8       -11.1430   14.1660  -26.3310 C.3   1420  ADP1420     0.3377
     20  N7       -11.4890   15.0160  -27.3070 N.2   1420  ADP1420    -0.2095
     21  C5       -11.5520   16.2460  -26.7190 C.2   1420  ADP1420     0.2526
     22  C6       -11.8860   17.6060  -27.1650 C.2   1420  ADP1420     0.4393
     23  N6       -12.1960   17.8390  -28.4540 N.pl3 1420  ADP1420     0.2180
     24  N1       -11.8090   18.5990  -26.2650 N.2   1420  ADP1420     0.0021
     25  C2       -11.4970   18.3770  -24.9630 C.3   1420  ADP1420     0.5254
     26  N3       -11.2050   17.1580  -24.4600 N.2   1420  ADP1420    -0.0055
     27  C4       -11.2380   16.0880  -25.3020 C.2   1420  ADP1420     0.3518
@<TRIPOS>BOND
     1    23    22    1
     2    20    21    2
     3    20    19    1
     4    22    21    1
     5    22    24    2
     6    21    27    1
     7    19    18    1
     8    24    25    1
     9    27    18    1
    10    27    26    2
    11    18    17    1
    12    25    26    1
    13    17    12    1
    14    17    15    1
    15     6     5    2
    16    12    11    1
    17    15    16    1
    18    15    13    1
    19     9     5    1
    20     9    10    1
    21     8     5    1
    22     8     1    1
    23     3     1    2
    24     5     7    1
    25     2     1    1
    26    11    13    1
    27    11    10    1
    28     1     4    1
    29    13    14    1
