@<TRIPOS>MOLECULE
2x13_3PG_A_1.pdb
 11 10 0 0 0
SMALL
GASTEIGER

@<TRIPOS>ATOM
      1  C1        -1.2760    8.9180  -17.8190 C.2   1419  3PG1419     0.3972
      2  O1        -2.4610    8.7950  -17.4490 O.co2 1419  3PG1419    -0.2427
      3  O2        -0.9880    9.3140  -18.9660 O.co2 1419  3PG1419    -0.2427
      4  C2        -0.1300    8.6060  -16.8660 C.3   1419  3PG1419     0.2838
      5  O3        -0.6300    8.1780  -15.5970 O.3   1419  3PG1419    -0.2081
      6  C3         0.7540    9.8480  -16.7280 C.3   1419  3PG1419     0.1983
      7  O1P       -0.0020   10.9250  -16.2090 O.3   1419  3PG1419    -0.2669
      8  P          0.4440   12.4480  -16.5050 P.3   1419  3PG1419     0.5327
      9  O2P       -0.4130   13.3260  -15.6460 O.3   1419  3PG1419    -0.1145
     10  O3P        1.9390   12.4580  -16.1300 O.3   1419  3PG1419    -0.1145
     11  O4P        0.3080   12.6620  -17.9890 O.2   1419  3PG1419    -0.2224
@<TRIPOS>BOND
     1     3     1   ar
     2    11     8    2
     3     1     2   ar
     4     1     4    1
     5     4     6    1
     6     4     5    1
     7     6     7    1
     8     8     7    1
     9     8    10    1
    10     8     9    1
