@<TRIPOS>MOLECULE
2x14_ACP_A_1.pdb
 31 33 0 0 0
SMALL
GASTEIGER

@<TRIPOS>ATOM
      1  PG        -2.6720    9.3260  -21.4150 P.3   1420  ACP1420     0.1295
      2  O1G       -3.3740   10.2020  -20.2400 O.3   1420  ACP1420    -0.3567
      3  O2G       -2.5420    7.8100  -20.8900 O.3   1420  ACP1420    -0.3567
      4  O3G       -1.2830    9.8460  -21.7650 O.2   1420  ACP1420    -0.4595
      5  PB        -5.3560    8.9470  -22.6680 P.3   1420  ACP1420     0.3815
      6  O1B       -5.8510    7.7960  -23.5910 O.2   1420  ACP1420    -0.2547
      7  O2B       -5.6060    8.7320  -21.2280 O.3   1420  ACP1420    -0.1391
      8  C3B       -3.5840    9.2030  -22.9570 C.3   1420  ACP1420     0.1768
      9  PA        -5.7820   11.7440  -22.5510 P.3   1420  ACP1420     0.2209
     10  O1A       -5.6870   11.6020  -20.9610 O.3   1420  ACP1420    -0.4371
     11  O2A       -4.6950   12.5880  -23.1530 O.2   1420  ACP1420    -0.5170
     12  O3A       -5.8780   10.3200  -23.2450 O.3   1420  ACP1420    -0.2483
     13  O5'       -7.2610   12.3960  -22.9190 O.3   1420  ACP1420    -0.3111
     14  C5'       -8.4760   11.7420  -22.4800 C.3   1420  ACP1420     0.1813
     15  C4'       -9.5210   12.8330  -22.3750 C.3   1420  ACP1420     0.1821
     16  O4'       -9.5890   13.4870  -23.6410 O.3   1420  ACP1420    -0.3135
     17  C3'      -10.9050   12.2590  -22.1240 C.3   1420  ACP1420     0.2184
     18  O3'      -11.1940   12.6190  -20.7740 O.3   1420  ACP1420    -0.2174
     19  C2'      -11.7780   13.0500  -23.1330 C.3   1420  ACP1420     0.2570
     20  O2'      -12.9530   13.5230  -22.4690 O.3   1420  ACP1420    -0.2130
     21  C1'      -10.8240   14.2080  -23.5380 C.3   1420  ACP1420     0.3186
     22  N9       -11.1740   14.8280  -24.8340 N.pl3 1420  ACP1420    -0.1439
     23  C8       -11.3180   14.2140  -26.0150 C.3   1420  ACP1420     0.3377
     24  N7       -11.6540   15.0890  -26.9570 N.2   1420  ACP1420    -0.2095
     25  C5       -11.7300   16.3010  -26.3810 C.2   1420  ACP1420     0.2526
     26  C6       -12.0520   17.5810  -26.8430 C.2   1420  ACP1420     0.4393
     27  N6       -12.3600   17.8340  -28.1130 N.pl3 1420  ACP1420     0.2180
     28  N1       -12.0270   18.5840  -25.9620 N.2   1420  ACP1420     0.0021
     29  C2       -11.6930   18.3960  -24.6770 C.3   1420  ACP1420     0.5254
     30  N3       -11.3950   17.1950  -24.1860 N.2   1420  ACP1420    -0.0055
     31  C4       -11.4250   16.1330  -25.0260 C.2   1420  ACP1420     0.3518
@<TRIPOS>BOND
     1    27    26    1
     2    24    25    2
     3    24    23    1
     4    26    25    1
     5    26    28    2
     6    25    31    1
     7    23    22    1
     8    28    29    1
     9    31    22    1
    10    31    30    2
    11    22    21    1
    12    29    30    1
    13    16    21    1
    14    16    15    1
    15     6     5    2
    16    21    19    1
    17    12     5    1
    18    12     9    1
    19    11     9    2
    20    19    20    1
    21    19    17    1
    22     8     5    1
    23     8     1    1
    24    13     9    1
    25    13    14    1
    26     5     7    1
    27     9    10    1
    28    14    15    1
    29    15    17    1
    30    17    18    1
    31     4     1    2
    32     1     3    1
    33     1     2    1
