@<TRIPOS>MOLECULE
2x14_3PG_A_1.pdb
 11 10 0 0 0
SMALL
GASTEIGER

@<TRIPOS>ATOM
      1  C1        -1.0690    8.4160  -17.8620 C.2   1419  3PG1419     0.3972
      2  O1        -2.2580    8.6060  -17.5260 O.co2 1419  3PG1419    -0.2427
      3  O2        -0.7380    8.3490  -19.0650 O.co2 1419  3PG1419    -0.2427
      4  C2         0.0350    8.2570  -16.8450 C.3   1419  3PG1419     0.2838
      5  O3        -0.4130    7.9000  -15.5470 O.3   1419  3PG1419    -0.2081
      6  C3         0.8600    9.5280  -16.7720 C.3   1419  3PG1419     0.1983
      7  O1P        0.0910   10.6260  -16.3340 O.3   1419  3PG1419    -0.2669
      8  P          0.5780   12.1210  -16.6590 P.3   1419  3PG1419     0.5327
      9  O2P       -0.2850   13.0540  -15.8570 O.3   1419  3PG1419    -0.1145
     10  O3P        2.0420   12.2130  -16.2590 O.3   1419  3PG1419    -0.1145
     11  O4P        0.3700   12.3280  -18.1490 O.2   1419  3PG1419    -0.2224
@<TRIPOS>BOND
     1     3     1   ar
     2    11     8    2
     3     1     2   ar
     4     1     4    1
     5     4     6    1
     6     4     5    1
     7     6     7    1
     8     8     7    1
     9     8    10    1
    10     8     9    1
