@<TRIPOS>MOLECULE
2x15_3PG_A_1.pdb
 11 10 0 0 0
SMALL
GASTEIGER

@<TRIPOS>ATOM
      1  C1         1.0690   -9.0040  -17.7330 C.2   1421  3PG1421     0.3972
      2  O1         2.2700   -8.6780  -17.5670 O.co2 1421  3PG1421    -0.2427
      3  O2         0.6650   -9.5530  -18.7600 O.co2 1421  3PG1421    -0.2427
      4  C2         0.0400   -8.7150  -16.6800 C.3   1421  3PG1421     0.2838
      5  O3         0.6630   -8.4210  -15.4320 O.3   1421  3PG1421    -0.2081
      6  C3        -0.8720   -9.9200  -16.5050 C.3   1421  3PG1421     0.1983
      7  O1P       -0.0600  -11.0660  -16.2920 O.3   1421  3PG1421    -0.2669
      8  P         -0.6010  -12.5380  -16.6240 P.3   1421  3PG1421     0.5327
      9  O2P        0.2690  -13.4780  -15.8100 O.3   1421  3PG1421    -0.1145
     10  O3P       -2.0380  -12.4990  -16.1690 O.3   1421  3PG1421    -0.1145
     11  O4P       -0.3850  -12.6410  -18.1100 O.2   1421  3PG1421    -0.2224
@<TRIPOS>BOND
     1     3     1   ar
     2    11     8    2
     3     1     2   ar
     4     1     4    1
     5     4     6    1
     6     4     5    1
     7     8     7    1
     8     8    10    1
     9     8     9    1
    10     6     7    1
