@<TRIPOS>MOLECULE
2x15_X15_A_1.pdb
 15 14 0 0 0
SMALL
GASTEIGER

@<TRIPOS>ATOM
      1  OAG        2.3700   -7.5910  -20.5060 O.3   1420  X151420    -0.1039
      2  PAO        1.9150   -9.0120  -20.3690 P.3   1420  X151420     0.5907
      3  OAH        3.1190  -10.0210  -20.1400 O.3   1420  X151420    -0.1039
      4  OAF        1.1540   -9.5110  -21.7050 O.2   1420  X151420    -0.2114
      5  OAK        0.5430   -9.1280  -19.1830 O.3   1420  X151420    -0.3660
      6  CAM        1.0650   -8.9820  -17.8880 C.2   1420  X151420     0.3572
      7  OAB        2.2600   -8.8590  -17.6280 O.2   1420  X151420    -0.2468
      8  CAL       -0.0590   -8.7230  -16.8570 C.3   1420  X151420     0.2798
      9  OAA        0.4950   -8.2980  -15.6180 O.3   1420  X151420    -0.2083
     10  CAI       -0.9510   -9.9220  -16.5460 C.3   1420  X151420     0.1981
     11  OAJ       -0.1890  -11.0230  -16.2510 O.3   1420  X151420    -0.2669
     12  PAN       -0.6800  -12.4330  -16.7170 P.3   1420  X151420     0.5327
     13  OAD        0.1430  -13.4710  -15.9010 O.3   1420  X151420    -0.1145
     14  OAE       -2.1790  -12.5560  -16.1700 O.3   1420  X151420    -0.1145
     15  OAC       -0.4850  -12.6390  -18.1930 O.2   1420  X151420    -0.2224
@<TRIPOS>BOND
     1     4     2    2
     2     1     2    1
     3     2     3    1
     4     2     5    1
     5     5     6    1
     6    15    12    2
     7     6     7    2
     8     6     8    1
     9     8    10    1
    10     8     9    1
    11    12    11    1
    12    12    14    1
    13    12    13    1
    14    10    11    1
