@<TRIPOS>MOLECULE
2x15_ATP_A_1.pdb
 31 33 0 0 0
SMALL
GASTEIGER

@<TRIPOS>ATOM
      1  PG         2.6220   -9.1620  -21.3360 P.3   1422  ATP1422     0.5373
      2  O1G        2.6580   -7.6020  -21.0120 O.3   1422  ATP1422    -0.1143
      3  O2G        1.1060   -9.4540  -21.8380 O.2   1422  ATP1422    -0.2221
      4  O3G        2.8880   -9.9890  -20.1360 O.3   1422  ATP1422    -0.1143
      5  PB         5.2270   -9.3150  -22.3880 P.3   1422  ATP1422     0.2277
      6  O1B        5.6130   -9.1460  -20.8290 O.3   1422  ATP1422    -0.4368
      7  O2B        5.8530   -8.2030  -23.1610 O.2   1422  ATP1422    -0.5168
      8  O3B        3.6120   -9.3640  -22.5180 O.3   1422  ATP1422    -0.2258
      9  PA         5.1830  -12.1460  -22.6640 P.3   1422  ATP1422     0.2189
     10  O1A        5.1010  -12.1520  -21.0690 O.3   1422  ATP1422    -0.4371
     11  O2A        3.9130  -12.5600  -23.2830 O.2   1422  ATP1422    -0.5170
     12  O3A        5.5640  -10.6470  -23.1030 O.3   1422  ATP1422    -0.2700
     13  O5'        6.5040  -12.9440  -23.1250 O.3   1422  ATP1422    -0.3112
     14  C5'        7.7500  -12.3720  -22.8020 C.3   1422  ATP1422     0.1813
     15  C4'        8.8080  -13.4240  -22.7220 C.3   1422  ATP1422     0.1821
     16  O4'        8.9980  -13.9370  -24.0390 O.3   1422  ATP1422    -0.3135
     17  C3'       10.1720  -12.7860  -22.4240 C.3   1422  ATP1422     0.2184
     18  O3'       10.5350  -13.0960  -21.0900 O.3   1422  ATP1422    -0.2174
     19  C2'       11.1040  -13.5110  -23.4040 C.3   1422  ATP1422     0.2570
     20  O2'       12.2270  -13.9950  -22.6910 O.3   1422  ATP1422    -0.2130
     21  C1'       10.2310  -14.6650  -23.8910 C.3   1422  ATP1422     0.3186
     22  N9        10.6470  -15.2400  -25.2020 N.pl3 1422  ATP1422    -0.1439
     23  C8        10.7450  -14.5800  -26.3640 C.3   1422  ATP1422     0.3377
     24  N7        11.1380  -15.4190  -27.3310 N.2   1422  ATP1422    -0.2095
     25  C5        11.2840  -16.6210  -26.7660 C.2   1422  ATP1422     0.2526
     26  C6        11.6730  -17.8490  -27.2470 C.2   1422  ATP1422     0.4393
     27  N6        11.9960  -17.9780  -28.5250 N.pl3 1422  ATP1422     0.2180
     28  N1        11.7210  -18.8940  -26.4190 N.2   1422  ATP1422     0.0021
     29  C2        11.4210  -18.7590  -25.1390 C.3   1422  ATP1422     0.5254
     30  N3        11.0530  -17.5900  -24.6470 N.2   1422  ATP1422    -0.0055
     31  C4        10.9790  -16.5090  -25.4290 C.2   1422  ATP1422     0.3518
@<TRIPOS>BOND
     1    27    26    1
     2    24    25    2
     3    24    23    1
     4    26    25    1
     5    26    28    2
     6    25    31    1
     7    28    29    1
     8    23    22    1
     9    31    22    1
    10    31    30    2
    11    22    21    1
    12    29    30    1
    13    16    21    1
    14    16    15    1
    15    21    19    1
    16    19    20    1
    17    19    17    1
    18    11     9    2
    19     7     5    2
    20    13    14    1
    21    13     9    1
    22    12     9    1
    23    12     5    1
    24    14    15    1
    25    15    17    1
    26     9    10    1
    27     8     5    1
    28     8     1    1
    29    17    18    1
    30     5     6    1
    31     3     1    2
    32     1     2    1
    33     1     4    1
