@<TRIPOS>MOLECULE
2x15_ADP_A_1.pdb
 27 29 0 0 0
SMALL
GASTEIGER

@<TRIPOS>ATOM
      1  PB         5.1070   -9.0170  -22.5130 P.3   1419  ADP1419     0.5373
      2  O1B        3.6050   -9.1750  -22.6590 O.3   1419  ADP1419    -0.1143
      3  O2B        5.6570   -7.8670  -23.3230 O.2   1419  ADP1419    -0.2221
      4  O3B        5.5600   -8.9870  -21.0720 O.3   1419  ADP1419    -0.1143
      5  PA         5.3460  -11.8520  -22.8130 P.3   1419  ADP1419     0.2231
      6  O1A        4.2540  -12.5450  -23.5810 O.2   1419  ADP1419    -0.5169
      7  O2A        5.2460  -11.8730  -21.3140 O.3   1419  ADP1419    -0.4370
      8  O3A        5.5870  -10.3330  -23.2910 O.3   1419  ADP1419    -0.2261
      9  O5'        6.7320  -12.4950  -23.3120 O.3   1419  ADP1419    -0.3111
     10  C5'        7.9330  -11.9760  -22.7740 C.3   1419  ADP1419     0.1813
     11  C4'        8.9990  -13.0570  -22.7130 C.3   1419  ADP1419     0.1821
     12  O4'        9.0980  -13.7920  -23.9280 O.3   1419  ADP1419    -0.3135
     13  C3'       10.3920  -12.4630  -22.5150 C.3   1419  ADP1419     0.2184
     14  O3'       10.7690  -12.6410  -21.1660 O.3   1419  ADP1419    -0.2174
     15  C2'       11.2750  -13.2420  -23.4800 C.3   1419  ADP1419     0.2570
     16  O2'       12.4890  -13.6670  -22.8560 O.3   1419  ADP1419    -0.2130
     17  C1'       10.3880  -14.3990  -23.9060 C.3   1419  ADP1419     0.3186
     18  N9        10.7650  -14.9850  -25.2190 N.pl3 1419  ADP1419    -0.1439
     19  C8        10.8920  -14.3340  -26.3970 C.3   1419  ADP1419     0.3377
     20  N7        11.2380  -15.1890  -27.4050 N.2   1419  ADP1419    -0.2095
     21  C5        11.3470  -16.4110  -26.8400 C.2   1419  ADP1419     0.2526
     22  C6        11.7000  -17.7480  -27.3050 C.2   1419  ADP1419     0.4393
     23  N6        12.0240  -17.9310  -28.6010 N.pl3 1419  ADP1419     0.2180
     24  N1        11.6740  -18.7510  -26.4190 N.2   1419  ADP1419     0.0021
     25  C2        11.3920  -18.5720  -25.1180 C.3   1419  ADP1419     0.5254
     26  N3        11.0680  -17.3730  -24.6220 N.2   1419  ADP1419    -0.0055
     27  C4        11.0360  -16.2780  -25.4110 C.2   1419  ADP1419     0.3518
@<TRIPOS>BOND
     1    23    22    1
     2    20    21    2
     3    20    19    1
     4    22    21    1
     5    22    24    2
     6    21    27    1
     7    24    25    1
     8    19    18    1
     9    27    18    1
    10    27    26    2
    11    18    17    1
    12    25    26    1
    13    12    17    1
    14    12    11    1
    15    17    15    1
    16     6     5    2
    17    15    16    1
    18    15    13    1
    19     3     1    2
    20     9     5    1
    21     9    10    1
    22     8     5    1
    23     8     1    1
    24     5     7    1
    25    10    11    1
    26    11    13    1
    27     2     1    1
    28    13    14    1
    29     1     4    1
