@<TRIPOS>MOLECULE
2x19_GTP_A_1.pdb
 32 34 0 0 0
SMALL
GASTEIGER

@<TRIPOS>ATOM
      1  PG       -51.1650   16.3480    3.9070 P.3   1181  GTP1181     0.5373
      2  O1G      -50.1850   17.4220    3.6600 O.3   1181  GTP1181    -0.1143
      3  O2G      -50.4320   14.9600    4.2180 O.3   1181  GTP1181    -0.1143
      4  O3G      -52.0700   16.1090    2.6130 O.2   1181  GTP1181    -0.2221
      5  O3B      -52.1250   16.7280    5.1410 O.3   1181  GTP1181    -0.2258
      6  PB       -52.8720   18.1280    4.8540 P.3   1181  GTP1181     0.2277
      7  O1B      -51.8600   19.1930    5.1650 O.3   1181  GTP1181    -0.4368
      8  O2B      -53.4340   18.3160    3.3600 O.2   1181  GTP1181    -0.5168
      9  O3A      -53.9600   18.1330    6.0130 O.3   1181  GTP1181    -0.2700
     10  PA       -55.1560   19.1610    5.8180 P.3   1181  GTP1181     0.2189
     11  O1A      -54.6810   20.5510    5.6890 O.3   1181  GTP1181    -0.4371
     12  O2A      -56.0320   18.7580    4.5170 O.2   1181  GTP1181    -0.5170
     13  O5'      -55.9610   18.8760    7.1890 O.3   1181  GTP1181    -0.3112
     14  C5'      -57.1230   19.6090    7.1910 C.3   1181  GTP1181     0.1813
     15  C4'      -57.8610   19.3580    8.4830 C.3   1181  GTP1181     0.1799
     16  O4'      -57.0740   19.9210    9.5850 O.3   1181  GTP1181    -0.3326
     17  C3'      -59.1620   20.1030    8.3670 C.3   1181  GTP1181     0.2158
     18  O3'      -60.2560   19.1950    8.3470 O.3   1181  GTP1181    -0.2175
     19  C2'      -59.2170   21.0810    9.5170 C.3   1181  GTP1181     0.2310
     20  O2'      -60.3840   20.9040   10.3190 O.3   1181  GTP1181    -0.2158
     21  C1'      -57.9210   20.8610   10.3120 C.3   1181  GTP1181     0.2293
     22  N9       -57.3070   22.1560   10.4960 N.pl3 1181  GTP1181    -0.2354
     23  C8       -56.5660   22.8870    9.5950 C.3   1181  GTP1181     0.2246
     24  N7       -56.2230   24.0250   10.1350 N.2   1181  GTP1181    -0.2322
     25  C5       -56.7290   24.0890   11.3970 C.2   1181  GTP1181     0.2182
     26  C6       -56.7130   25.0650   12.4640 C.1   1181  GTP1181     0.2372
     27  O6       -56.1330   26.1250   12.3350 O.2   1181  GTP1181    -0.2069
     28  N1       -57.3640   24.7650   13.6400 N.2   1181  GTP1181    -0.2485
     29  C2       -58.0330   23.5630   13.7920 C.1   1181  GTP1181     0.2531
     30  N2       -58.6750   23.2900   14.9750 N.pl3 1181  GTP1181    -0.0226
     31  N3       -58.0480   22.6590   12.8180 N.2   1181  GTP1181    -0.3074
     32  C4       -57.4490   22.9000   11.6180 C.2   1181  GTP1181     0.2300
@<TRIPOS>BOND
     1     4     1    2
     2     8     6    2
     3     2     1    1
     4     1     3    1
     5     1     5    1
     6    12    10    2
     7     6     5    1
     8     6     7    1
     9     6     9    1
    10    11    10    1
    11    10     9    1
    12    10    13    1
    13    13    14    1
    14    14    15    1
    15    18    17    1
    16    17    15    1
    17    17    19    1
    18    15    16    1
    19    19    21    1
    20    19    20    1
    21    16    21    1
    22    23    24    1
    23    23    22    1
    24    24    25    2
    25    21    22    1
    26    22    32    1
    27    25    32    1
    28    25    26    1
    29    32    31    2
    30    27    26    2
    31    26    28    2
    32    31    29    2
    33    28    29    2
    34    29    30    1
