@<TRIPOS>MOLECULE
2x1a_NUC_B_1.pdb
 24 26 0 0 0
SMALL
GASTEIGER

@<TRIPOS>ATOM
      1  O3'       -1.8090   -3.5280    1.8400 O.2     1  RU1        -0.2224
      2  P         -2.8680   -2.5820    2.5930 P.3     2  RG2         0.5327
      3  OP1       -3.3530   -3.3030    3.7890 O.3     2  RG2        -0.1145
      4  OP2       -2.3090   -1.2100    2.7430 O.3     2  RG2        -0.1145
      5  O5'       -4.0780   -2.5200    1.5590 O.3     2  RG2        -0.2675
      6  C5'       -5.1710   -1.7120    1.9150 C.3     2  RG2         0.1859
      7  C4'       -5.1370   -0.3930    1.1720 C.3     2  RG2         0.1801
      8  O4'       -6.1820   -0.4080    0.1680 O.3     2  RG2        -0.3326
      9  C3'       -5.3670    0.8210    2.0640 C.3     2  RG2         0.2158
     10  O3'       -4.2210    1.6660    2.0190 O.3     2  RG2        -0.2175
     11  C2'       -6.6280    1.4970    1.5180 C.3     2  RG2         0.2310
     12  O2'       -6.3780    2.7390    0.8860 O.3     2  RG2        -0.2158
     13  C1'       -7.2040    0.5060    0.5070 C.3     2  RG2         0.2293
     14  N9        -8.4180   -0.1830    0.9720 N.pl3   2  RG2        -0.2354
     15  C8        -9.6000   -0.1950    0.2680 C.3     2  RG2         0.2246
     16  N7       -10.5620   -0.8460    0.8560 N.2     2  RG2        -0.2322
     17  C5        -9.9940   -1.3000    2.0340 C.2     2  RG2         0.2182
     18  C6       -10.5840   -2.0680    3.0670 C.1     2  RG2         0.2372
     19  O6       -11.7500   -2.4880    3.1140 O.2     2  RG2        -0.2069
     20  N1        -9.6790   -2.3300    4.1000 N.2     2  RG2        -0.2485
     21  C2        -8.3740   -1.8950    4.1210 C.1     2  RG2         0.2531
     22  N2        -7.6440   -2.2310    5.1920 N.pl3   2  RG2        -0.0226
     23  N3        -7.8210   -1.1660    3.1550 N.2     2  RG2        -0.3074
     24  C4        -8.6740   -0.9010    2.1330 C.2     2  RG2         0.2300
@<TRIPOS>BOND
     1     8    13    1
     2     8     7    1
     3    15    16    1
     4    15    14    1
     5    13    14    1
     6    13    11    1
     7    16    17    2
     8    12    11    1
     9    14    24    1
    10     7     6    1
    11     7     9    1
    12    11     9    1
    13     5     6    1
    14     5     2    1
    15     1     2    2
    16    10     9    1
    17    17    24    1
    18    17    18    1
    19    24    23    2
    20     2     4    1
    21     2     3    1
    22    18    19    2
    23    18    20    2
    24    23    21    2
    25    20    21    2
    26    21    22    1
