@<TRIPOS>MOLECULE
2x1e_X1E_A_1.pdb
 14 15 0 0 0
SMALL
GASTEIGER

@<TRIPOS>ATOM
      1  O13      -43.0290   25.4700   -2.6270 O.co2 1358  X1E1358    -0.2438
      2  C11      -42.3590   24.5160   -3.0880 C.2   1358  X1E1358     0.3833
      3  O12      -42.8810   23.6390   -3.8090 O.co2 1358  X1E1358    -0.2438
      4  C3       -40.8810   24.4150   -2.7870 C.3   1358  X1E1358     0.1888
      5  C2       -40.0420   25.3760   -3.6340 C.3   1358  X1E1358     0.0681
      6  C10      -40.6650   25.7840   -4.9690 C.3   1358  X1E1358     0.0131
      7  C9       -38.6840   24.7520   -3.8990 C.3   1358  X1E1358     0.0131
      8  N4       -40.4980   24.9090   -1.4740 N.am  1358  X1E1358    -0.2599
      9  C7       -39.7870   24.4750   -0.4630 C.2   1358  X1E1358     0.2467
     10  O8       -39.3500   23.3990   -0.0860 O.2   1358  X1E1358    -0.2732
     11  C6       -39.6440   25.8690    0.0590 C.3   1358  X1E1358     0.1961
     12  N14      -38.2950   26.3820   -0.0640 N.3   1358  X1E1358    -0.1204
     13  C5       -40.5650   26.2970   -1.1020 C.3   1358  X1E1358     0.1505
     14  S1       -39.8520   26.8210   -2.6260 S.3   1358  X1E1358    -0.1187
@<TRIPOS>BOND
     1     6     5    1
     2     7     5    1
     3     3     2   ar
     4     5     4    1
     5     5    14    1
     6     2     4    1
     7     2     1   ar
     8     4     8    1
     9    14    13    1
    10     8    13    1
    11     8     9   am
    12    13    11    1
    13     9    10    2
    14     9    11    1
    15    12    11    1
