@<TRIPOS>MOLECULE
2x1f_NUC_B_1.pdb
 40 44 0 0 0
SMALL
GASTEIGER

@<TRIPOS>ATOM
      1  O5'       19.7290   15.6930   30.8440 O.3     1  RG1        -0.2176
      2  C5'       19.9100   16.6340   29.7830 C.3     1  RG1         0.2141
      3  C4'       20.4610   17.9790   30.2280 C.3     1  RG1         0.1800
      4  O4'       19.5020   18.6570   31.0750 O.3     1  RG1        -0.3326
      5  C3'       21.7630   17.9800   31.0250 C.3     1  RG1         0.1858
      6  O3'       22.5330   19.1270   30.6940 O.3     1  RG1        -0.3112
      7  C2'       21.2810   18.0450   32.4780 C.3     1  RG1         0.2282
      8  O2'       22.1570   18.6350   33.4100 O.3     1  RG1        -0.2159
      9  C1'       20.1050   18.9770   32.3290 C.3     1  RG1         0.2292
     10  N9        19.0950   18.8760   33.3710 N.pl3   1  RG1        -0.2354
     11  C8        18.5790   19.9190   34.0920 C.3     1  RG1         0.2246
     12  N7        17.6560   19.5610   34.9480 N.2     1  RG1        -0.2322
     13  C5        17.5590   18.1870   34.7730 C.2     1  RG1         0.2182
     14  C6        16.7340   17.2410   35.4260 C.1     1  RG1         0.2372
     15  O6        15.8900   17.4560   36.3090 O.2     1  RG1        -0.2069
     16  N1        16.9500   15.9480   34.9710 N.2     1  RG1        -0.2485
     17  C2        17.8470   15.6010   33.9850 C.1     1  RG1         0.2531
     18  N2        17.9280   14.2970   33.6720 N.pl3   1  RG1        -0.0226
     19  N3        18.6370   16.4740   33.3670 N.2     1  RG1        -0.3074
     20  C4        18.4480   17.7430   33.8180 C.2     1  RG1         0.2300
     21  P         23.6290   19.1020   29.5270 P.3     2  RU2         0.2141
     22  OP1       24.0260   20.5070   29.2960 O.3     2  RU2        -0.4373
     23  OP2       23.1340   18.2680   28.4130 O.2     2  RU2        -0.5172
     24  O5'       24.8330   18.3130   30.2270 O.3     2  RU2        -0.3114
     25  C5'       25.3680   18.6950   31.4950 C.3     2  RU2         0.1813
     26  C4'       26.8230   18.2590   31.6250 C.3     2  RU2         0.1799
     27  O4'       26.9340   16.8480   31.3000 O.3     2  RU2        -0.3320
     28  C3'       27.8000   18.9990   30.7190 C.3     2  RU2         0.2158
     29  O3'       28.9610   19.4220   31.4420 O.3     2  RU2        -0.2175
     30  C2'       28.1400   17.9830   29.6320 C.3     2  RU2         0.2319
     31  O2'       29.4750   18.0770   29.1640 O.3     2  RU2        -0.2157
     32  C1'       27.9200   16.6390   30.3100 C.3     2  RU2         0.2401
     33  N1        27.4440   15.5690   29.3630 N.am    2  RU2        -0.1766
     34  C2        28.3250   14.5850   28.9570 C.1     2  RU2         0.2845
     35  O2        29.4810   14.5480   29.3270 O.2     2  RU2        -0.1918
     36  N3        27.8010   13.6490   28.0950 N.2     2  RU2        -0.2452
     37  C4        26.5060   13.5880   27.6030 C.1     2  RU2         0.2182
     38  O4        26.1730   12.6850   26.8360 O.2     2  RU2        -0.2085
     39  C5        25.6400   14.6440   28.0660 C.2     2  RU2         0.1242
     40  C6        26.1350   15.5710   28.9020 C.2     2  RU2         0.0929
@<TRIPOS>BOND
     1    38    37    2
     2    37    39    1
     3    37    36    2
     4    39    40    2
     5    36    34    2
     6    23    21    2
     7    40    33    1
     8    34    35    2
     9    34    33   am
    10    31    30    1
    11    22    21    1
    12    33    32    1
    13    21    24    1
    14    21     6    1
    15    30    32    1
    16    30    28    1
    17     2     3    1
    18     2     1    1
    19    24    25    1
    20     3     5    1
    21     3     4    1
    22    32    27    1
    23     6     5    1
    24    28    29    1
    25    28    26    1
    26     5     7    1
    27     4     9    1
    28    27    26    1
    29    25    26    1
    30     9     7    1
    31     9    10    1
    32     7     8    1
    33    19    20    2
    34    19    17    2
    35    10    20    1
    36    10    11    1
    37    18    17    1
    38    20    13    1
    39    17    16    2
    40    11    12    1
    41    13    12    2
    42    13    14    1
    43    16    14    2
    44    14    15    2
