@<TRIPOS>MOLECULE
2x1h_X1H_A_1.pdb
 26 29 0 0 0
SMALL
GASTEIGER

@<TRIPOS>ATOM
      1  O3       -24.9380    5.5460    8.5130 O.3   2001  X1H2001    -0.2866
      2  C21      -25.1950    4.6680    7.4840 C.ar  2001  X1H2001     0.1957
      3  C20      -25.8780    5.0790    6.3740 C.ar  2001  X1H2001     0.0421
      4  C18      -26.1160    4.1700    5.3180 C.ar  2001  X1H2001     0.0065
      5  C19      -24.7120    3.2680    7.5660 C.ar  2001  X1H2001     0.0421
      6  C17      -24.9370    2.3880    6.5450 C.ar  2001  X1H2001     0.0065
      7  C16      -25.6480    2.8200    5.4040 C.ar  2001  X1H2001     0.0392
      8  C15      -25.8660    1.8830    4.2650 C.2   2001  X1H2001     0.1960
      9  O1       -25.9910    2.3340    3.1380 O.2   2001  X1H2001    -0.2866
     10  C8       -25.6470    0.4120    4.4190 C.ar  2001  X1H2001     0.0454
     11  C11      -24.1980   -0.3030    4.3540 C.ar  2001  X1H2001     0.0098
     12  C13      -22.9590    0.2310    4.2270 C.ar  2001  X1H2001     0.0039
     13  C14      -21.8230   -0.6170    4.1840 C.ar  2001  X1H2001     0.0421
     14  C12      -21.9900   -2.0500    4.3120 C.ar  2001  X1H2001     0.1962
     15  O4       -20.8620   -2.8330    4.1910 O.3   2001  X1H2001    -0.2866
     16  C10      -23.2870   -2.6230    4.4870 C.ar  2001  X1H2001     0.0485
     17  C9       -24.3910   -1.8200    4.4950 C.ar  2001  X1H2001     0.0327
     18  S1       -26.0600   -2.1070    4.6530 S.2   2001  X1H2001    -0.0867
     19  C7       -26.7790   -0.7130    4.6120 C.ar  2001  X1H2001     0.0325
     20  C4       -28.2380   -0.4050    4.6060 C.ar  2001  X1H2001     0.0063
     21  C2       -28.6920    0.7340    5.2230 C.ar  2001  X1H2001     0.0038
     22  C1       -30.0500    1.1110    5.1050 C.ar  2001  X1H2001     0.0420
     23  C3       -30.9170    0.3780    4.2310 C.ar  2001  X1H2001     0.1957
     24  O2       -32.2380    0.7440    4.1050 O.3   2001  X1H2001    -0.2866
     25  C5       -30.4210   -0.7150    3.4900 C.ar  2001  X1H2001     0.0420
     26  C6       -29.1070   -1.0840    3.6030 C.ar  2001  X1H2001     0.0038
@<TRIPOS>BOND
     1     9     8    2
     2    25    26   ar
     3    25    23   ar
     4    26    20   ar
     5    24    23    1
     6    13    12   ar
     7    13    14   ar
     8    15    14    1
     9    12    11   ar
    10    23    22   ar
    11     8    10    1
    12     8     7    1
    13    14    16   ar
    14    11    10   ar
    15    11    17   ar
    16    10    19   ar
    17    16    17   ar
    18    17    18   ar
    19    20    19    1
    20    20    21   ar
    21    19    18   ar
    22    22    21   ar
    23     4     7   ar
    24     4     3   ar
    25     7     6   ar
    26     3     2   ar
    27     6     5   ar
    28     2     5   ar
    29     2     1    1
