@<TRIPOS>MOLECULE
2x1h_NAP_A_1.pdb
 48 52 0 0 0
SMALL
GASTEIGER

@<TRIPOS>ATOM
      1  PA       -17.7600  -10.5700   -1.0310 P.3   1372  NAP1372     0.2189
      2  O1A      -16.4900  -10.6270   -1.6160 O.2   1372  NAP1372    -0.5170
      3  O2A      -18.0510  -11.3110    0.0760 O.3   1372  NAP1372    -0.4371
      4  O5B      -18.6980  -11.1610   -2.0630 O.3   1372  NAP1372    -0.3112
      5  C5B      -20.0380  -11.3470   -1.7470 C.3   1372  NAP1372     0.1813
      6  C4B      -20.4390  -12.8280   -1.6220 C.3   1372  NAP1372     0.1820
      7  O4B      -21.6770  -12.9610   -0.9550 O.3   1372  NAP1372    -0.3136
      8  C3B      -20.6460  -13.5350   -2.9480 C.3   1372  NAP1372     0.2157
      9  O3B      -19.4070  -13.9390   -3.4580 O.3   1372  NAP1372    -0.2175
     10  C2B      -21.4220  -14.7480   -2.4570 C.3   1372  NAP1372     0.2314
     11  O2B      -20.6140  -15.7390   -1.8240 O.3   1372  NAP1372    -0.2630
     12  C1B      -22.4000  -14.0730   -1.4940 C.3   1372  NAP1372     0.3158
     13  N9A      -23.5420  -13.4910   -2.2260 N.pl3 1372  NAP1372    -0.1439
     14  C8A      -23.4900  -12.7030   -3.2850 C.3   1372  NAP1372     0.3377
     15  N7A      -24.7030  -12.3770   -3.6660 N.2   1372  NAP1372    -0.2095
     16  C5A      -25.5430  -12.9470   -2.8540 C.2   1372  NAP1372     0.2526
     17  C6A      -26.9160  -12.9800   -2.7460 C.2   1372  NAP1372     0.4393
     18  N6A      -27.7070  -12.3260   -3.5770 N.pl3 1372  NAP1372     0.2180
     19  N1A      -27.4550  -13.6790   -1.7630 N.2   1372  NAP1372     0.0021
     20  C2A      -26.7090  -14.3350   -0.9140 C.3   1372  NAP1372     0.5254
     21  N3A      -25.4010  -14.3300   -1.0040 N.2   1372  NAP1372    -0.0055
     22  C4A      -24.7960  -13.6500   -1.9380 C.2   1372  NAP1372     0.3518
     23  O3       -18.3320   -9.1140   -0.8870 O.3   1372  NAP1372    -0.2703
     24  PN       -17.7830   -7.9960    0.1570 P.3   1372  NAP1372     0.2189
     25  O1N      -17.6670   -6.7280   -0.5200 O.2   1372  NAP1372    -0.5170
     26  O2N      -16.7150   -8.5550    0.8580 O.3   1372  NAP1372    -0.4371
     27  O5D      -19.0310   -7.7880    1.1940 O.3   1372  NAP1372    -0.3112
     28  C5D      -19.4710   -8.8620    1.9320 C.3   1372  NAP1372     0.1813
     29  C4D      -20.3270   -8.5090    3.1450 C.3   1372  NAP1372     0.1799
     30  O4D      -19.6040   -7.7360    4.1090 O.3   1372  NAP1372    -0.3327
     31  C3D      -21.4350   -7.5880    2.6270 C.3   1372  NAP1372     0.2158
     32  O3D      -22.5700   -7.6710    3.4440 O.3   1372  NAP1372    -0.2175
     33  C2D      -20.7920   -6.2260    2.8380 C.3   1372  NAP1372     0.2309
     34  O2D      -21.7370   -5.1950    2.8990 O.3   1372  NAP1372    -0.2158
     35  C1D      -20.2360   -6.5200    4.2290 C.3   1372  NAP1372     0.2263
     36  N1N      -19.2780   -5.4900    4.6580 N.pl3 1372  NAP1372    -0.2787
     37  C2N      -19.5760   -4.6910    5.7290 C.3   1372  NAP1372     0.1244
     38  C3N      -18.7040   -3.7310    6.1990 C.2   1372  NAP1372     0.0544
     39  C7N      -19.0800   -2.8120    7.4100 C.2   1372  NAP1372     0.2818
     40  O7N      -18.3730   -1.8300    7.7670 O.2   1372  NAP1372    -0.2670
     41  N7N      -20.2060   -3.1090    8.0180 N.am  1372  NAP1372    -0.0839
     42  C4N      -17.5000   -3.5750    5.5460 C.2   1372  NAP1372     0.0033
     43  C5N      -17.1770   -4.3970    4.4550 C.2   1372  NAP1372     0.0157
     44  C6N      -18.0480   -5.3550    4.0020 C.2   1372  NAP1372     0.0633
     45  P2B      -21.2690  -17.2100   -1.5720 P.3   1372  NAP1372     0.5328
     46  O1X      -22.6450  -17.2150   -1.8100 O.3   1372  NAP1372    -0.1145
     47  O2X      -20.4500  -18.2490   -2.3780 O.2   1372  NAP1372    -0.2224
     48  O3X      -21.0360  -17.4840   -0.0930 O.3   1372  NAP1372    -0.1145
@<TRIPOS>BOND
     1    15    14    1
     2    15    16    2
     3    18    17    1
     4     9     8    1
     5    14    13    1
     6     8    10    1
     7     8     6    1
     8    16    17    1
     9    16    22    1
    10    17    19    2
    11    10    11    1
    12    10    12    1
    13    47    45    2
    14    13    22    1
    15    13    12    1
    16     4     5    1
    17     4     1    1
    18    22    21    2
    19    11    45    1
    20    46    45    1
    21    19    20    1
    22     5     6    1
    23     6     7    1
    24     2     1    2
    25    45    48    1
    26    12     7    1
    27     1    23    1
    28     1     3    1
    29    21    20    1
    30    23    24    1
    31    25    24    2
    32    24    26    1
    33    24    27    1
    34    27    28    1
    35    28    29    1
    36    31    33    1
    37    31    29    1
    38    31    32    1
    39    33    34    1
    40    33    35    1
    41    29    30    1
    42    44    43    2
    43    44    36    1
    44    30    35    1
    45    35    36    1
    46    43    42    1
    47    36    37    1
    48    42    38    2
    49    37    38    1
    50    38    39    1
    51    39    40    2
    52    39    41   am
