@<TRIPOS>MOLECULE
2x1i_INS_A_1.pdb
 12 12 0 0 0
SMALL
GASTEIGER

@<TRIPOS>ATOM
      1  C1       -22.4100    9.5710   -0.8240 C.3   1503  INS1503     0.2175
      2  C2       -22.8560   10.3360    0.4640 C.3   1503  INS1503     0.2175
      3  C3       -24.0310   11.3090    0.1700 C.3   1503  INS1503     0.2175
      4  C4       -25.2270   10.5070   -0.4290 C.3   1503  INS1503     0.2175
      5  C5       -24.8200    9.7360   -1.7180 C.3   1503  INS1503     0.2175
      6  C6       -23.6250    8.7900   -1.4070 C.3   1503  INS1503     0.2175
      7  O1       -21.9030   10.4980   -1.8100 O.3   1503  INS1503    -0.2175
      8  O2       -21.7470   11.0690    1.0100 O.3   1503  INS1503    -0.2175
      9  O3       -23.5960   12.3310   -0.7500 O.3   1503  INS1503    -0.2175
     10  O4       -26.3240   11.3940   -0.7180 O.3   1503  INS1503    -0.2175
     11  O5       -24.4580   10.6610   -2.7540 O.3   1503  INS1503    -0.2175
     12  O6       -23.2330    8.0900   -2.6030 O.3   1503  INS1503    -0.2175
@<TRIPOS>BOND
     1    11     5    1
     2    12     6    1
     3     7     1    1
     4     5     6    1
     5     5     4    1
     6     6     1    1
     7     1     2    1
     8     9     3    1
     9    10     4    1
    10     4     3    1
    11     3     2    1
    12     2     8    1
