@<TRIPOS>MOLECULE
2x1l_ADN_A_1.pdb
 19 21 0 0 0
SMALL
GASTEIGER

@<TRIPOS>ATOM
      1  O5'        2.6170   25.5740  -20.6400 O.3   601  ADN601     -0.2176
      2  C5'        2.6620   25.5910  -22.0720 C.3   601  ADN601      0.2143
      3  C4'        4.0830   25.8500  -22.5640 C.3   601  ADN601      0.1851
      4  O4'        4.6470   27.0100  -21.9360 O.3   601  ADN601     -0.3134
      5  C3'        5.0090   24.6780  -22.2670 C.3   601  ADN601      0.2186
      6  O3'        5.5920   24.2120  -23.4870 O.3   601  ADN601     -0.2174
      7  C2'        6.0720   25.2460  -21.3450 C.3   601  ADN601      0.2570
      8  O2'        7.3680   24.7200  -21.6340 O.3   601  ADN601     -0.2130
      9  C1'        6.0110   26.7450  -21.5970 C.3   601  ADN601      0.3186
     10  N9         6.4590   27.5150  -20.4070 N.pl3 601  ADN601     -0.1439
     11  C8         5.8310   27.5890  -19.2180 C.3   601  ADN601      0.3377
     12  N7         6.5160   28.3760  -18.3490 N.2   601  ADN601     -0.2095
     13  C5         7.6120   28.8260  -18.9850 C.2   601  ADN601      0.2526
     14  C6         8.7670   29.7000  -18.6490 C.2   601  ADN601      0.4393
     15  N6         8.8810   30.2690  -17.4240 N.pl3 601  ADN601      0.2180
     16  N1         9.6990   29.9150  -19.6120 N.2   601  ADN601      0.0021
     17  C2         9.5990   29.3590  -20.8380 C.3   601  ADN601      0.5254
     18  N3         8.5800   28.5550  -21.2070 N.2   601  ADN601     -0.0055
     19  C4         7.5720   28.2550  -20.3430 C.2   601  ADN601      0.3518
@<TRIPOS>BOND
     1     6     5    1
     2     3     5    1
     3     3     2    1
     4     3     4    1
     5     5     7    1
     6     2     1    1
     7     4     9    1
     8     8     7    1
     9     9     7    1
    10     9    10    1
    11    18    17    1
    12    18    19    2
    13    17    16    1
    14    10    19    1
    15    10    11    1
    16    19    13    1
    17    16    14    2
    18    11    12    1
    19    13    14    1
    20    13    12    2
    21    14    15    1
