@<TRIPOS>MOLECULE
2x1n_III_H_1.pdb
 32 32 0 0 0
SMALL
GASTEIGER

@<TRIPOS>ATOM
      1  C          8.5930   75.8500   25.0690 C.2     1  ACE1        0.2423
      2  O          9.0320   75.2340   26.0050 O.2     1  ACE1       -0.2733
      3  CH3        7.4100   76.7710   25.2660 C.3     1  ACE1        0.0964
      4  N          9.1710   75.7070   23.8910 N.am    2  LEU2       -0.1978
      5  CA         8.9810   76.6110   22.7700 C.3     2  LEU2        0.1727
      6  C          7.7410   76.2560   22.0050 C.2     2  LEU2        0.2616
      7  O          7.4990   75.0940   21.7230 O.2     2  LEU2       -0.2715
      8  CB        10.1430   76.5380   21.8070 C.3     2  LEU2        0.0311
      9  CG        11.5480   76.7790   22.2980 C.3     2  LEU2        0.0022
     10  CD1       12.5910   76.2160   21.3370 C.3     2  LEU2        0.0001
     11  CD2       11.6990   78.2900   22.4310 C.3     2  LEU2        0.0001
     12  N          6.9660   77.2690   21.6170 N.am    3  ASN3       -0.1958
     13  CA         5.7230   77.0620   20.8670 C.3     3  ASN3        0.1819
     14  C          5.9220   77.3190   19.3900 C.2     3  ASN3        0.2621
     15  O          6.3770   78.3470   18.8300 O.2     3  ASN3       -0.2715
     16  CB         4.5470   77.8300   21.4570 C.3     3  ASN3        0.1195
     17  CG         3.9050   77.3630   22.5520 C.2     3  ASN3        0.2630
     18  OD1        4.4390   76.5220   23.2720 O.2     3  ASN3       -0.2716
     19  ND2        2.6980   77.8750   22.8110 N.am    3  ASN3       -0.0877
     20  N          5.6030   76.2260   18.6990 N.am    4  PHE4       -0.1959
     21  CA         5.5980   76.3160   17.2480 C.3     4  PHE4        0.1787
     22  C          4.2100   75.9770   16.7660 C.2     4  PHE4        0.2809
     23  O          3.8480   76.4970   15.7070 O.2     4  PHE4       -0.2698
     24  CB         6.5210   75.3690   16.4880 C.3     4  PHE4        0.0575
     25  CG         7.9060   75.0300   16.9480 C.ar    4  PHE4       -0.0198
     26  CD1        8.9380   75.9320   16.6960 C.ar    4  PHE4       -0.0019
     27  CD2        8.1170   74.0350   17.9080 C.ar    4  PHE4       -0.0019
     28  CE1       10.1740   75.8100   17.3170 C.ar    4  PHE4        0.0293
     29  CE2        9.3650   73.8660   18.4980 C.ar    4  PHE4        0.0293
     30  CZ        10.3950   74.7560   18.1830 C.ar    4  PHE4        0.1401
     31  F         11.6570   74.7140   18.7050 F       4  PHE4       -0.2042
     32  N          3.5100   75.0950   17.4950 N.am    5  NH25       -0.0863
@<TRIPOS>BOND
     1    23    22    2
     2    24    25    1
     3    24    21    1
     4    26    25   ar
     5    26    28   ar
     6    22    21    1
     7    22    32   am
     8    25    27   ar
     9    21    20    1
    10    28    30   ar
    11    27    29   ar
    12    30    29   ar
    13    30    31    1
    14    20    14   am
    15    15    14    2
    16    14    13    1
    17    13    16    1
    18    13    12    1
    19    10     9    1
    20    16    17    1
    21    12     6   am
    22     7     6    2
    23     8     9    1
    24     8     5    1
    25     6     5    1
    26     9    11    1
    27    17    19   am
    28    17    18    2
    29     5     4    1
    30     4     1   am
    31     1     3    1
    32     1     2    2
