@<TRIPOS>MOLECULE
2x1n_X1N_A_1.pdb
 24 27 0 0 0
SMALL
GASTEIGER

@<TRIPOS>ATOM
      1  O9B       -0.4020   47.3070    0.9160 O.2   1297  X1N1297    -0.1261
      2  N7B       -1.5220   47.6680    1.7460 N.pl3 1297  X1N1297     0.0577
      3  O8B       -2.6880   46.7970    1.7930 O.2   1297  X1N1297    -0.1261
      4  C3B       -1.4890   48.7760    2.4850 C.ar  1297  X1N1297     0.1442
      5  C2B       -0.2930   49.4780    2.5730 C.ar  1297  X1N1297     0.0414
      6  C4B       -2.6370   49.1790    3.1760 C.ar  1297  X1N1297     0.0242
      7  C5B       -2.6080   50.3050    3.9860 C.ar  1297  X1N1297     0.0031
      8  C6B       -1.4110   51.0050    4.0640 C.ar  1297  X1N1297     0.0175
      9  C1B       -0.2470   50.6130    3.3770 C.ar  1297  X1N1297     0.0842
     10  N7         0.8690   51.3460    3.5480 N.pl3 1297  X1N1297    -0.1357
     11  C2         2.1140   50.9820    3.2680 C.1   1297  X1N1297     0.1693
     12  N3         2.4660   49.7920    2.7960 N.2   1297  X1N1297    -0.3396
     13  C4         3.7420   49.5510    2.4990 C.2   1297  X1N1297     0.1356
     14  C5A        4.1510   48.3150    2.0080 C.3   1297  X1N1297     0.1542
     15  S4A        3.3900   46.8260    1.8260 S.3   1297  X1N1297    -0.0735
     16  C3A        4.6780   45.9810    1.1070 C.2   1297  X1N1297     0.1347
     17  C20        4.5940   44.6370    0.7330 C.3   1297  X1N1297     0.0735
     18  N2A        5.6590   46.8740    1.0060 N.2   1297  X1N1297    -0.4074
     19  C1A        5.4250   48.1050    1.4830 C.2   1297  X1N1297     0.1040
     20  C6A        6.4790   49.2040    1.3880 C.3   1297  X1N1297     0.0605
     21  C60        6.1910   50.3340    2.3600 C.3   1297  X1N1297     0.0374
     22  C5         4.7050   50.5330    2.6380 C.2   1297  X1N1297     0.0258
     23  C6         4.3170   51.7810    3.1090 C.2   1297  X1N1297     0.1097
     24  N1         3.0450   51.9300    3.4140 N.2   1297  X1N1297    -0.1687
@<TRIPOS>BOND
     1    17    16    1
     2     1     2    2
     3    18    16    2
     4    18    19    2
     5    16    15    1
     6    20    19    1
     7    20    21    1
     8    19    14    1
     9     2     3    2
    10     2     4    1
    11    15    14    1
    12    14    13    1
    13    21    22    1
    14     4     5   ar
    15     4     6   ar
    16    13    22    1
    17    13    12    2
    18     5     9   ar
    19    22    23    2
    20    12    11    2
    21    23    24    1
    22     6     7   ar
    23    11    24    2
    24    11    10    1
    25     9    10    1
    26     9     8   ar
    27     7     8   ar
