@<TRIPOS>MOLECULE
2x1r_X1R_A_1.pdb
 11 10 0 0 0
SMALL
GASTEIGER

@<TRIPOS>ATOM
      1  C3        28.3080   -0.0890   -4.5480 C.3   1252  X1R1252     0.0019
      2  C4        27.1160    0.1930   -3.6520 C.3   1252  X1R1252     0.0253
      3  C5        27.3960    1.2940   -2.6310 C.3   1252  X1R1252     0.1508
      4  C7        24.7960    0.5990   -2.1710 C.3   1252  X1R1252     0.1626
      5  C8        23.4480    1.1820   -1.7350 C.3   1252  X1R1252     0.1393
      6  C9        22.3200    0.2010   -2.0000 C.2   1252  X1R1252     0.3667
      7  O1        26.2020    1.8560   -0.4540 O.2   1252  X1R1252    -0.1730
      8  O2        25.5420    3.0100   -2.3800 O.2   1252  X1R1252    -0.1730
      9  O3        21.1580    0.5080   -1.6550 O.co2 1252  X1R1252    -0.2456
     10  O4        22.5830   -0.8830   -2.5660 O.co2 1252  X1R1252    -0.2456
     11  S5        25.9810    1.7400   -1.8800 S.O2  1252  X1R1252    -0.0094
@<TRIPOS>BOND
     1     1     2    1
     2     2     3    1
     3     3    11    1
     4    10     6   ar
     5     8    11    2
     6     4    11    1
     7     4     5    1
     8     6     5    1
     9     6     9   ar
    10    11     7    2
