@<TRIPOS>MOLECULE
2x1t_RES_B_1.pdb
 14 13 0 0 0
SMALL
GASTEIGER

@<TRIPOS>ATOM
      1  O7        15.4220  -24.3670   37.9880 O.3   1251  RES1251    -0.1145
      2  P         14.6490  -24.6850   36.7650 P.3   1251  RES1251     0.5327
      3  O5        13.8420  -26.0690   36.9550 O.3   1251  RES1251    -0.1145
      4  O6        15.6590  -24.7650   35.5110 O.2   1251  RES1251    -0.2224
      5  O4        13.5920  -23.5060   36.4850 O.3   1251  RES1251    -0.2674
      6  C4        12.1880  -23.7360   36.5670 C.3   1251  RES1251     0.1895
      7  C3        11.5130  -22.4690   36.0670 C.3   1251  RES1251     0.2182
      8  O3        11.8660  -21.3760   36.9130 O.3   1251  RES1251    -0.2172
      9  C2        11.9870  -22.1130   34.6660 C.3   1251  RES1251     0.2291
     10  O2        11.7610  -23.2110   33.7630 O.3   1251  RES1251    -0.2134
     11  C1        11.2180  -20.8990   34.2430 C.2   1251  RES1251     0.1201
     12  O1        11.6930  -19.7840   34.4210 O.2   1251  RES1251    -0.5373
     13  N         10.0210  -21.1300   33.7000 N.am  1251  RES1251    -0.2003
     14  ON         9.2070  -20.0770   33.3000 O.3   1251  RES1251    -0.4026
@<TRIPOS>BOND
     1    14    13    1
     2    13    11   am
     3    10     9    1
     4    11    12    2
     5    11     9    1
     6     9     7    1
     7     4     2    2
     8     7     6    1
     9     7     8    1
    10     5     6    1
    11     5     2    1
    12     2     3    1
    13     2     1    1
