@<TRIPOS>MOLECULE
2x1v_GDP_A_1.pdb
 28 30 0 0 0
SMALL
GASTEIGER

@<TRIPOS>ATOM
      1  PB        19.9300  -20.0410    7.5860 P.3   1165  GDP1165     0.5373
      2  O1B       20.6610  -21.2200    7.0070 O.2   1165  GDP1165    -0.2221
      3  O2B       18.5930  -20.4880    8.1220 O.3   1165  GDP1165    -0.1143
      4  O3B       20.7670  -19.4470    8.6960 O.3   1165  GDP1165    -0.1143
      5  O3A       19.6980  -18.9570    6.4170 O.3   1165  GDP1165    -0.2261
      6  PA        19.0510  -17.5180    6.7360 P.3   1165  GDP1165     0.2231
      7  O1A       17.6380  -17.4700    6.2200 O.2   1165  GDP1165    -0.5169
      8  O2A       19.0790  -17.2110    8.2160 O.3   1165  GDP1165    -0.4370
      9  O5'       19.9600  -16.4910    5.9000 O.3   1165  GDP1165    -0.3111
     10  C5'       20.7320  -15.5050    6.5840 C.3   1165  GDP1165     0.1813
     11  C4'       20.6840  -14.1770    5.8380 C.3   1165  GDP1165     0.1799
     12  O4'       20.8610  -14.4000    4.4380 O.3   1165  GDP1165    -0.3326
     13  C3'       19.3390  -13.4920    6.0170 C.3   1165  GDP1165     0.2158
     14  O3'       19.4900  -12.2450    6.7070 O.3   1165  GDP1165    -0.2175
     15  C2'       18.8110  -13.2430    4.6170 C.3   1165  GDP1165     0.2310
     16  O2'       18.3970  -11.8780    4.4840 O.3   1165  GDP1165    -0.2158
     17  C1'       19.9630  -13.5880    3.6780 C.3   1165  GDP1165     0.2293
     18  N9        19.4730  -14.3460    2.4970 N.pl3 1165  GDP1165    -0.2354
     19  C8        18.8560  -15.5470    2.5370 C.3   1165  GDP1165     0.2246
     20  N7        18.5340  -15.9900    1.2960 N.2   1165  GDP1165    -0.2322
     21  C5        18.9610  -15.0530    0.4240 C.2   1165  GDP1165     0.2182
     22  C6        18.9420  -14.8870   -1.0540 C.1   1165  GDP1165     0.2372
     23  O6        18.4310  -15.7660   -1.7840 O.2   1165  GDP1165    -0.2069
     24  N1        19.4900  -13.7720   -1.5670 N.2   1165  GDP1165    -0.2485
     25  C2        20.0500  -12.8200   -0.7820 C.1   1165  GDP1165     0.2531
     26  N2        20.5870  -11.7210   -1.3650 N.pl3 1165  GDP1165    -0.0226
     27  N3        20.0980  -12.9050    0.5720 N.2   1165  GDP1165    -0.3074
     28  C4        19.5820  -13.9760    1.2190 C.2   1165  GDP1165     0.2300
@<TRIPOS>BOND
     1    23    22    2
     2    24    22    2
     3    24    25    2
     4    26    25    1
     5    22    21    1
     6    25    27    2
     7    21    28    1
     8    21    20    2
     9    27    28    2
    10    28    18    1
    11    20    19    1
    12    18    19    1
    13    18    17    1
    14    17    12    1
    15    17    15    1
    16    12    11    1
    17    16    15    1
    18    15    13    1
    19    11    13    1
    20    11    10    1
    21     9    10    1
    22     9     6    1
    23    13    14    1
    24     7     6    2
    25     5     6    1
    26     5     1    1
    27     6     8    1
    28     2     1    2
    29     1     3    1
    30     1     4    1
