@<TRIPOS>MOLECULE
2x1z_PID_M_1.pdb
 46 49 0 0 0
SMALL
GASTEIGER

@<TRIPOS>ATOM
      1  C1       -34.7950  -17.8290   13.6880 C.3   611  PID611      0.1216
      2  C4       -32.5240  -19.6540   14.5690 C.3   611  PID611      0.0356
      3  C5       -32.4640  -19.1190   13.1310 C.3   611  PID611      0.0311
      4  C6       -33.6110  -18.1690   12.7420 C.3   611  PID611      0.1332
      5  C7       -33.7220  -17.8610   11.2380 C.2   611  PID611     -0.0012
      6  C8       -33.5410  -16.5840   10.8580 C.2   611  PID611     -0.0131
      7  C9       -33.5390  -16.2510    9.3840 C.3   611  PID611      0.1461
      8  C10      -33.7620  -17.0520    8.1890 C.2   611  PID611      0.3293
      9  C11      -33.1820  -14.9440    8.9290 C.2   611  PID611      0.0266
     10  C12      -33.2200  -15.0750    7.5250 C.2   611  PID611      0.1448
     11  C13      -32.9140  -13.9460    6.6230 C.2   611  PID611      0.0330
     12  C14      -32.9000  -13.9220    5.1430 C.2   611  PID611     -0.0191
     13  C15      -32.3430  -12.7640    4.6030 C.2   611  PID611     -0.0084
     14  C16      -32.2330  -12.4370    3.1780 C.2   611  PID611     -0.0217
     15  C17      -31.6930  -11.2460    2.7200 C.3   611  PID611      0.0520
     16  C18      -31.7850  -11.0990    1.2450 C.2   611  PID611     -0.0214
     17  C19      -31.4190   -9.8780    0.6960 C.2   611  PID611     -0.0045
     18  C20      -31.6270   -9.6580   -0.7520 C.2   611  PID611     -0.0040
     19  C21      -31.5000   -8.4280   -1.3920 C.2   611  PID611     -0.0142
     20  C22      -31.8940   -8.4190   -2.8390 C.2   611  PID611      0.0365
     21  C23      -32.0290   -7.4060   -3.5800 C.1   611  PID611     -0.1078
     22  C24      -32.2790   -6.4280   -4.3950 C.2   611  PID611      0.0168
     23  C25      -31.1680   -5.9470   -5.3860 C.3   611  PID611      0.0275
     24  C26      -31.1780   -4.4070   -5.4860 C.3   611  PID611      0.0481
     25  C27      -32.6300   -3.8840   -5.6970 C.3   611  PID611      0.1720
     26  C28      -33.6640   -4.3080   -4.5900 C.3   611  PID611      0.0785
     27  C29      -33.7160   -5.8430   -4.4150 C.3   611  PID611      0.1516
     28  C30      -33.4950   -1.6700   -6.4130 C.2   611  PID611      0.3174
     29  C31      -33.3600   -0.1650   -6.2150 C.3   611  PID611      0.1212
     30  CM1      -36.1510  -17.3640   13.1470 C.3   611  PID611      0.0325
     31  CM2      -31.2010  -18.2410   13.0210 C.3   611  PID611      0.0028
     32  CM3      -32.4310  -20.3000   12.1460 C.3   611  PID611      0.0028
     33  CM4      -33.2730  -15.1370    4.2820 C.3   611  PID611      0.0311
     34  CM5      -30.9870   -7.1640   -0.7570 C.3   611  PID611      0.0317
     35  CM6      -29.7720   -6.3760   -4.9280 C.3   611  PID611      0.0049
     36  CM7      -31.4400   -6.5580   -6.8110 C.3   611  PID611      0.0049
     37  CM8      -34.5550   -6.1950   -3.1680 C.3   611  PID611      0.0379
     38  O1       -33.6480  -16.9740   13.5760 O.3   611  PID611     -0.3543
     39  O3       -34.1130  -18.2830    8.1700 O.2   611  PID611     -0.2490
     40  O4       -33.5960  -16.3210    7.0390 O.3   611  PID611     -0.4240
     41  O5       -34.4250   -6.3000   -5.5460 O.3   611  PID611     -0.2208
     42  O6       -32.5350   -2.4320   -5.6770 O.3   611  PID611     -0.4522
     43  O7       -34.3520   -2.2050   -7.1210 O.2   611  PID611     -0.2501
     44  C2       -34.9130  -18.7660   14.9140 C.3   611  PID611      0.0627
     45  C3       -33.8970  -19.9220   15.1090 C.3   611  PID611      0.1545
     46  O2       -34.2320  -21.1480   14.4850 O.3   611  PID611     -0.2231
@<TRIPOS>BOND
     1    43    28    2
     2    36    23    1
     3    28    29    1
     4    28    42    1
     5    25    42    1
     6    25    24    1
     7    25    26    1
     8    41    27    1
     9    24    23    1
    10    23    35    1
    11    23    22    1
    12    26    27    1
    13    27    22    1
    14    27    37    1
    15    22    21    2
    16    21    20    2
    17    20    19    1
    18    19    34    1
    19    19    18    2
    20    18    17    1
    21    17    16    2
    22    16    15    1
    23    15    14    1
    24    14    13    2
    25    33    12    1
    26    13    12    1
    27    12    11    2
    28    11    10    1
    29    40    10    1
    30    40     8    1
    31    10     9    2
    32    39     8    2
    33     8     7    1
    34     9     7    1
    35     7     6    1
    36     6     5    2
    37     5     4    1
    38    32     3    1
    39     4     3    1
    40     4    38    1
    41     4     1    1
    42    31     3    1
    43     3     2    1
    44    30     1    1
    45    38     1    1
    46     1    44    1
    47    46    45    1
    48     2    45    1
    49    44    45    1
