@<TRIPOS>MOLECULE
2x20_PID_M_1.pdb
 46 49 0 0 0
SMALL
GASTEIGER

@<TRIPOS>ATOM
      1  C1         0.5460  -17.7520  -13.6780 C.3   611  PID611      0.1216
      2  C2         0.6780  -18.6510  -14.9210 C.3   611  PID611      0.0627
      3  C3        -0.7100  -18.9160  -15.4610 C.3   611  PID611      0.1545
      4  C4        -1.5340  -19.7160  -14.4990 C.3   611  PID611      0.0356
      5  C5        -1.7230  -19.0620  -13.1170 C.3   611  PID611      0.0311
      6  C6        -0.6210  -18.0460  -12.7170 C.3   611  PID611      0.1332
      7  C7        -0.5080  -17.7480  -11.2190 C.2   611  PID611     -0.0012
      8  C8        -0.7400  -16.4700  -10.8210 C.2   611  PID611     -0.0131
      9  C9        -0.7360  -16.1070   -9.3720 C.3   611  PID611      0.1457
     10  C10       -0.5140  -16.9370   -8.1630 C.2   611  PID611      0.3290
     11  C11       -1.1560  -14.8410   -8.9240 C.2   611  PID611      0.0224
     12  C12       -1.0890  -14.9730   -7.5090 C.2   611  PID611      0.1266
     13  C13       -1.4270  -13.8390   -6.6220 C.3   611  PID611      0.0863
     14  C14       -1.4450  -13.8240   -5.1440 C.2   611  PID611     -0.0364
     15  C15       -2.0020  -12.6920   -4.6120 C.2   611  PID611     -0.0081
     16  C16       -2.1470  -12.3030   -3.1880 C.2   611  PID611     -0.0006
     17  C17       -2.7380  -11.1810   -2.7130 C.2   611  PID611     -0.0000
     18  C18       -2.6600  -10.9910   -1.2410 C.2   611  PID611     -0.0000
     19  C19       -2.9610   -9.7860   -0.7320 C.2   611  PID611     -0.0003
     20  C20       -2.7610   -9.5450    0.7190 C.2   611  PID611     -0.0037
     21  C21       -2.9150   -8.3670    1.4270 C.2   611  PID611     -0.0142
     22  C22       -2.5190   -8.4230    2.8900 C.2   611  PID611      0.0365
     23  C23       -2.3110   -7.3680    3.5900 C.1   611  PID611     -0.1078
     24  C24       -2.0550   -6.4250    4.4240 C.2   611  PID611      0.0168
     25  C25       -3.1410   -5.9260    5.4670 C.3   611  PID611      0.0275
     26  C26       -3.0900   -4.3940    5.6390 C.3   611  PID611      0.0481
     27  C27       -1.6790   -3.8240    5.8200 C.3   611  PID611      0.1720
     28  C28       -0.7570   -4.2610    4.6700 C.3   611  PID611      0.0785
     29  C29       -0.6520   -5.7920    4.4620 C.3   611  PID611      0.1516
     30  C30       -0.7830   -1.6580    6.4590 C.2   611  PID611      0.3174
     31  C31       -0.8420   -0.1620    6.4340 C.3   611  PID611      0.1212
     32  CM1        1.9470  -17.4120  -13.1040 C.3   611  PID611      0.0325
     33  CM2       -1.8590  -20.2170  -12.1300 C.3   611  PID611      0.0028
     34  CM3       -3.0210  -18.2240  -13.0990 C.3   611  PID611      0.0028
     35  CM4       -1.0470  -15.0680   -4.3600 C.3   611  PID611      0.0268
     36  CM5       -3.4550   -7.0590    0.8580 C.3   611  PID611      0.0317
     37  CM6       -2.9310   -6.5230    6.8890 C.3   611  PID611      0.0049
     38  CM7       -4.5400   -6.3680    5.0920 C.3   611  PID611      0.0049
     39  CM8        0.1660   -6.1180    3.2040 C.3   611  PID611      0.0379
     40  O1        -0.6290  -16.8660  -13.5390 O.3   611  PID611     -0.3543
     41  O2        -0.5530  -19.7110  -16.6110 O.3   611  PID611     -0.2231
     42  O3        -0.0720  -18.1290   -8.1120 O.2   611  PID611     -0.2490
     43  O4        -0.7070  -16.2150   -7.0090 O.3   611  PID611     -0.4281
     44  O5         0.0430   -6.3290    5.6000 O.3   611  PID611     -0.2208
     45  O6        -1.7980   -2.3920    5.7730 O.3   611  PID611     -0.4522
     46  O7         0.0420   -2.2880    7.0560 O.2   611  PID611     -0.2501
@<TRIPOS>BOND
     1    41     3    1
     2     3     2    1
     3     3     4    1
     4     2     1    1
     5     4     5    1
     6     1    40    1
     7     1    32    1
     8     1     6    1
     9    40     6    1
    10     5    34    1
    11     5     6    1
    12     5    33    1
    13     6     7    1
    14     7     8    2
    15     8     9    1
    16     9    11    1
    17     9    10    1
    18    11    12    2
    19    10    42    2
    20    10    43    1
    21    12    43    1
    22    12    13    1
    23    13    14    1
    24    14    15    2
    25    14    35    1
    26    15    16    1
    27    16    17    2
    28    17    18    1
    29    18    19    2
    30    19    20    1
    31    20    21    2
    32    36    21    1
    33    21    22    1
    34    22    23    2
    35    39    29    1
    36    23    24    2
    37    24    29    1
    38    24    25    1
    39    29    28    1
    40    29    44    1
    41    28    27    1
    42    38    25    1
    43    25    26    1
    44    25    37    1
    45    26    27    1
    46    45    27    1
    47    45    30    1
    48    31    30    1
    49    30    46    2
