@<TRIPOS>MOLECULE
2x21_PID_M_1.pdb
 46 49 0 0 0
SMALL
GASTEIGER

@<TRIPOS>ATOM
      1  C1        -0.4370   17.7440  -13.6200 C.3   611  PID611      0.1216
      2  C5         1.9130   18.9700  -13.1030 C.3   611  PID611      0.0311
      3  C6         0.7600   18.0030  -12.6660 C.3   611  PID611      0.1335
      4  C7         0.6570   17.7460  -11.1500 C.2   611  PID611      0.0027
      5  C8         0.8290   16.4660  -10.7580 C.2   611  PID611      0.0044
      6  C9         0.8440   16.1510   -9.3130 C.2   611  PID611      0.0788
      7  C10        0.5910   17.0040   -8.1070 C.2   611  PID611      0.3458
      8  C11        1.2240   14.8820   -8.8590 C.2   611  PID611      0.0440
      9  C12        1.1370   15.0210   -7.4660 C.2   611  PID611      0.1487
     10  C13        1.5480   13.8730   -6.6050 C.2   611  PID611      0.0330
     11  C14        1.5670   13.8430   -5.1340 C.2   611  PID611     -0.0227
     12  C15        2.1050   12.6850   -4.5920 C.2   611  PID611     -0.0256
     13  C16        2.2260   12.3800   -3.1680 C.3   611  PID611      0.0513
     14  C17        2.8350   11.1860   -2.7120 C.2   611  PID611     -0.0257
     15  C18        2.8240   10.9460   -1.2350 C.2   611  PID611     -0.0257
     16  C19        3.2660    9.7050   -0.7180 C.3   611  PID611      0.0514
     17  C20        3.0490    9.5530    0.7630 C.2   611  PID611     -0.0251
     18  C21        3.1380    8.3860    1.4980 C.2   611  PID611     -0.0182
     19  C22        2.8000    8.4380    2.9550 C.2   611  PID611      0.0362
     20  C23        2.5670    7.3900    3.6850 C.1   611  PID611     -0.1078
     21  C24        2.2410    6.4590    4.5240 C.2   611  PID611      0.0168
     22  C25        3.2750    5.9720    5.5900 C.3   611  PID611      0.0275
     23  C26        3.2890    4.4460    5.6670 C.3   611  PID611      0.0481
     24  C27        1.8500    3.9150    5.8000 C.3   611  PID611      0.1720
     25  C28        0.9260    4.2950    4.6070 C.3   611  PID611      0.0785
     26  C29        0.8330    5.8240    4.4980 C.3   611  PID611      0.1516
     27  C30        0.9680    1.7290    6.4440 C.2   611  PID611      0.3174
     28  C31        1.0960    0.2310    6.2740 C.3   611  PID611      0.1212
     29  CM1       -1.8300   17.3820  -13.0630 C.3   611  PID611      0.0325
     30  CM2        2.0070   20.1560  -12.1270 C.3   611  PID611      0.0028
     31  CM3        3.2140   18.1680  -12.9850 C.3   611  PID611      0.0028
     32  CM4        1.2000   15.0510   -4.2490 C.3   611  PID611      0.0308
     33  CM5        3.6010    7.0770    0.8820 C.3   611  PID611      0.0313
     34  CM6        2.9480    6.5650    6.9770 C.3   611  PID611      0.0049
     35  CM7        4.7100    6.2750    5.2230 C.3   611  PID611      0.0049
     36  CM8        0.0760    6.1960    3.2020 C.3   611  PID611      0.0379
     37  O1         0.6780   16.8410  -13.4930 O.3   611  PID611     -0.3543
     38  O3         0.2500   18.2270   -8.1530 O.2   611  PID611     -0.2445
     39  O4         0.8250   16.3090   -6.9930 O.3   611  PID611     -0.4210
     40  O5         0.1210    6.3370    5.6390 O.3   611  PID611     -0.2208
     41  O6         2.0130    2.4640    5.7990 O.3   611  PID611     -0.4522
     42  O7         0.1220    2.3200    7.0110 O.2   611  PID611     -0.2501
     43  C2        -0.4750   18.6130  -14.8980 C.3   611  PID611      0.0627
     44  C3         0.5870   19.7190  -15.0680 C.3   611  PID611      0.1545
     45  C4         1.9520   19.2720  -14.5800 C.3   611  PID611      0.0356
     46  O2         0.2170   20.9200  -14.4300 O.3   611  PID611     -0.2231
@<TRIPOS>BOND
     1    44    43    1
     2    44    45    1
     3    44    46    1
     4    43     1    1
     5    45     2    1
     6     1    37    1
     7     1    29    1
     8     1     3    1
     9    37     3    1
    10     2    31    1
    11     2     3    1
    12     2    30    1
    13     3     4    1
    14     4     5    2
    15     5     6    1
    16     6     8    2
    17     6     7    1
    18     8     9    1
    19    38     7    2
    20     7    39    1
    21     9    39    1
    22     9    10    2
    23    10    11    1
    24    11    12    2
    25    11    32    1
    26    12    13    1
    27    13    14    1
    28    14    15    2
    29    15    16    1
    30    16    17    1
    31    17    18    2
    32    33    18    1
    33    18    19    1
    34    19    20    2
    35    36    26    1
    36    20    21    2
    37    26    21    1
    38    26    25    1
    39    26    40    1
    40    21    22    1
    41    25    24    1
    42    35    22    1
    43    22    23    1
    44    22    34    1
    45    23    24    1
    46    41    24    1
    47    41    27    1
    48    28    27    1
    49    27    42    2
