@<TRIPOS>MOLECULE
2x22_NAD_A_1.pdb
 44 48 0 0 0
SMALL
GASTEIGER

@<TRIPOS>ATOM
      1  PA       -24.6950  -34.9450   16.9010 P.3   1270  NAD1270     0.2189
      2  O1A      -25.6240  -35.3730   18.1010 O.3   1270  NAD1270    -0.4371
      3  O2A      -24.8410  -35.8300   15.7130 O.2   1270  NAD1270    -0.5170
      4  O5B      -25.0360  -33.4390   16.6000 O.3   1270  NAD1270    -0.3112
      5  C5B      -24.5950  -32.8010   15.3830 C.3   1270  NAD1270     0.1813
      6  C4B      -25.5870  -31.7570   15.0400 C.3   1270  NAD1270     0.1821
      7  O4B      -25.1220  -31.0310   13.8620 O.3   1270  NAD1270    -0.3135
      8  C3B      -26.8790  -32.4770   14.5880 C.3   1270  NAD1270     0.2184
      9  O3B      -27.9570  -32.0510   15.4440 O.3   1270  NAD1270    -0.2174
     10  C2B      -27.0870  -31.9020   13.1860 C.3   1270  NAD1270     0.2570
     11  O2B      -28.4580  -31.6250   12.9550 O.3   1270  NAD1270    -0.2130
     12  C1B      -26.3270  -30.5690   13.3030 C.3   1270  NAD1270     0.3186
     13  N9A      -26.1920  -30.0240   11.9480 N.pl3 1270  NAD1270    -0.1439
     14  C8A      -25.5410  -30.5910   10.9140 C.3   1270  NAD1270     0.3377
     15  N7A      -25.6640  -29.7950    9.8580 N.2   1270  NAD1270    -0.2095
     16  C5A      -26.4170  -28.7420   10.2030 C.2   1270  NAD1270     0.2526
     17  C6A      -26.8920  -27.6140    9.5380 C.2   1270  NAD1270     0.4393
     18  N6A      -26.6300  -27.3770    8.2440 N.pl3 1270  NAD1270     0.2180
     19  N1A      -27.6370  -26.7380   10.2260 N.2   1270  NAD1270     0.0021
     20  C2A      -27.9330  -26.9120   11.4980 C.3   1270  NAD1270     0.5254
     21  N3A      -27.4910  -27.9650   12.1650 N.2   1270  NAD1270    -0.0055
     22  C4A      -26.7450  -28.8960   11.5400 C.2   1270  NAD1270     0.3518
     23  O3       -23.1470  -35.1200   17.4170 O.3   1270  NAD1270    -0.2703
     24  PN       -22.4260  -34.2650   18.5490 P.3   1270  NAD1270     0.2189
     25  O1N      -21.1780  -35.0460   18.7970 O.2   1270  NAD1270    -0.5170
     26  O2N      -23.3620  -33.9890   19.6770 O.3   1270  NAD1270    -0.4371
     27  O5D      -22.0680  -32.9130   17.8430 O.3   1270  NAD1270    -0.3112
     28  C5D      -22.3520  -31.6240   18.4690 C.3   1270  NAD1270     0.1813
     29  C4D      -21.0910  -30.7430   18.5500 C.3   1270  NAD1270     0.1799
     30  O4D      -20.1900  -31.3570   19.5100 O.3   1270  NAD1270    -0.3327
     31  C3D      -20.3190  -30.6390   17.2150 C.3   1270  NAD1270     0.2158
     32  O3D      -19.7700  -29.3070   17.0700 O.3   1270  NAD1270    -0.2175
     33  C2D      -19.1960  -31.6380   17.4200 C.3   1270  NAD1270     0.2309
     34  O2D      -18.1210  -31.3440   16.5280 O.3   1270  NAD1270    -0.2158
     35  C1D      -18.8660  -31.3530   18.8960 C.3   1270  NAD1270     0.2263
     36  N1N      -18.0070  -32.3590   19.5810 N.pl3 1270  NAD1270    -0.2787
     37  C2N      -18.3540  -33.7350   19.6340 C.3   1270  NAD1270     0.1244
     38  C3N      -17.5370  -34.6440   20.2990 C.2   1270  NAD1270     0.0544
     39  C7N      -17.8760  -36.1420   20.3700 C.2   1270  NAD1270     0.2818
     40  O7N      -17.0020  -36.9600   20.6730 O.2   1270  NAD1270    -0.2670
     41  N7N      -19.1240  -36.4970   20.0670 N.am  1270  NAD1270    -0.0839
     42  C4N      -16.3400  -34.1960   20.8740 C.2   1270  NAD1270     0.0033
     43  C5N      -15.9830  -32.8430   20.8100 C.2   1270  NAD1270     0.0157
     44  C6N      -16.8040  -31.9260   20.1560 C.2   1270  NAD1270     0.0633
@<TRIPOS>BOND
     1    18    17    1
     2    17    16    1
     3    17    19    2
     4    15    16    2
     5    15    14    1
     6    16    22    1
     7    19    20    1
     8    14    13    1
     9    20    21    1
    10    22    13    1
    11    22    21    2
    12    13    12    1
    13    11    10    1
    14    10    12    1
    15    10     8    1
    16    12     7    1
    17     7     6    1
    18     8     6    1
    19     8     9    1
    20     6     5    1
    21     5     4    1
    22     3     1    2
    23    34    33    1
    24     4     1    1
    25     1    23    1
    26     1     2    1
    27    32    31    1
    28    31    33    1
    29    31    29    1
    30    23    24    1
    31    33    35    1
    32    27    28    1
    33    27    24    1
    34    28    29    1
    35    24    25    2
    36    24    26    1
    37    29    30    1
    38    35    30    1
    39    35    36    1
    40    36    37    1
    41    36    44    1
    42    37    38    1
    43    41    39   am
    44    44    43    2
    45    38    39    1
    46    38    42    2
    47    39    40    2
    48    43    42    1
