@<TRIPOS>MOLECULE
2x22_TCU_A_1.pdb
 21 22 0 0 0
SMALL
GASTEIGER

@<TRIPOS>ATOM
      1  O17      -16.3640  -33.1310   16.5740 O.3   1271  TCU1271    -0.2833
      2  C6       -16.4270  -34.4610   16.8810 C.ar  1271  TCU1271     0.2295
      3  C1       -15.3910  -35.1190   17.5510 C.ar  1271  TCU1271     0.0410
      4  C2       -15.5180  -36.4760   17.8320 C.ar  1271  TCU1271    -0.0188
      5  C16      -14.3680  -37.1940   18.5250 C.3   1271  TCU1271     0.0265
      6  C17      -13.5770  -37.7830   17.3480 C.3   1271  TCU1271     0.0047
      7  C18      -12.2750  -38.4580   17.7440 C.3   1271  TCU1271     0.0003
      8  C19      -11.2390  -38.4450   16.6190 C.3   1271  TCU1271     0.0000
      9  C20      -11.6780  -39.2280   15.3910 C.3   1271  TCU1271     0.0000
     10  C21      -11.4570  -40.7170   15.5650 C.3   1271  TCU1271     0.0000
     11  C3       -16.6730  -37.2000   17.4710 C.ar  1271  TCU1271    -0.0009
     12  C4       -17.7590  -36.5890   16.8150 C.ar  1271  TCU1271     0.0405
     13  C5       -17.6460  -35.2260   16.5070 C.ar  1271  TCU1271     0.1839
     14  O7       -18.6350  -34.5590   15.8570 O.3   1271  TCU1271    -0.4506
     15  C8       -18.4750  -34.4700   14.4920 C.ar  1271  TCU1271     0.1414
     16  C9       -17.3620  -34.9760   13.8270 C.ar  1271  TCU1271     0.0372
     17  C10      -17.2510  -34.8340   12.4420 C.ar  1271  TCU1271     0.0031
     18  C11      -18.2520  -34.2060   11.6980 C.ar  1271  TCU1271    -0.0001
     19  C12      -19.3930  -33.7060   12.3230 C.ar  1271  TCU1271    -0.0012
     20  C13      -19.5230  -33.8060   13.7040 C.ar  1271  TCU1271     0.0127
     21  C14      -20.7230  -33.2820   14.4340 C.3   1271  TCU1271     0.0342
@<TRIPOS>BOND
     1    18    19   ar
     2    18    17   ar
     3    19    20   ar
     4    17    16   ar
     5    20    21    1
     6    20    15   ar
     7    16    15   ar
     8    15    14    1
     9     9    10    1
    10     9     8    1
    11    14    13    1
    12    13    12   ar
    13    13     2   ar
    14     1     2    1
    15     8     7    1
    16    12    11   ar
    17     2     3   ar
    18     6     7    1
    19     6     5    1
    20    11     4   ar
    21     3     4   ar
    22     4     5    1
