@<TRIPOS>MOLECULE
2x23_TCU_A_1.pdb
 21 22 0 0 0
SMALL
GASTEIGER

@<TRIPOS>ATOM
      1  O17      -21.4550   -4.3220  -27.6240 O.3   1271  TCU1271    -0.2833
      2  C6       -21.7880   -4.4230  -28.9580 C.ar  1271  TCU1271     0.2295
      3  C1       -22.1920   -5.6140  -29.5620 C.ar  1271  TCU1271     0.0410
      4  C2       -22.4900   -5.6080  -30.9300 C.ar  1271  TCU1271    -0.0188
      5  C16      -22.8800   -6.9150  -31.6040 C.3   1271  TCU1271     0.0265
      6  C17      -21.5180   -7.4190  -32.1030 C.3   1271  TCU1271     0.0047
      7  C18      -21.5650   -8.7800  -32.7550 C.3   1271  TCU1271     0.0003
      8  C19      -20.1740   -9.3970  -32.7980 C.3   1271  TCU1271     0.0000
      9  C20      -19.2280   -8.6920  -33.7430 C.3   1271  TCU1271     0.0000
     10  C21      -19.3740   -9.1730  -35.1900 C.3   1271  TCU1271     0.0000
     11  C3       -22.4300   -4.4320  -31.6820 C.ar  1271  TCU1271    -0.0009
     12  C4       -22.0340   -3.2130  -31.1410 C.ar  1271  TCU1271     0.0405
     13  C5       -21.7490   -3.1870  -29.7760 C.ar  1271  TCU1271     0.1839
     14  O7       -21.3580   -2.0560  -29.1740 O.3   1271  TCU1271    -0.4506
     15  C8       -19.9990   -1.7270  -29.1250 C.ar  1271  TCU1271     0.1414
     16  C9       -18.9980   -2.5670  -29.6430 C.ar  1271  TCU1271     0.0372
     17  C10      -17.6650   -2.1660  -29.5780 C.ar  1271  TCU1271     0.0031
     18  C11      -17.2950   -0.9540  -28.9790 C.ar  1271  TCU1271    -0.0001
     19  C12      -18.2540   -0.0800  -28.4520 C.ar  1271  TCU1271    -0.0012
     20  C13      -19.6100   -0.4290  -28.5000 C.ar  1271  TCU1271     0.0127
     21  C14      -20.6730    0.4860  -27.9510 C.3   1271  TCU1271     0.0342
@<TRIPOS>BOND
     1    10     9    1
     2     9     8    1
     3     8     7    1
     4     7     6    1
     5     6     5    1
     6    11    12   ar
     7    11     4   ar
     8     5     4    1
     9    12    13   ar
    10     4     3   ar
    11    13    14    1
    12    13     2   ar
    13    16    17   ar
    14    16    15   ar
    15    17    18   ar
    16     3     2   ar
    17    14    15    1
    18    15    20   ar
    19    18    19   ar
    20     2     1    1
    21    20    19   ar
    22    20    21    1
