@<TRIPOS>MOLECULE
2x23_NAD_A_1.pdb
 44 48 0 0 0
SMALL
GASTEIGER

@<TRIPOS>ATOM
      1  PA       -24.0350    3.4940  -29.7840 P.3   1270  NAD1270     0.2189
      2  O1A      -25.4520    4.0730  -30.1980 O.3   1270  NAD1270    -0.4371
      3  O2A      -22.8610    3.8820  -30.6100 O.2   1270  NAD1270    -0.5170
      4  O5B      -23.7430    3.8580  -28.3040 O.3   1270  NAD1270    -0.3112
      5  C5B      -22.4420    3.7330  -27.6810 C.3   1270  NAD1270     0.1813
      6  C4B      -22.3950    4.9050  -26.6390 C.3   1270  NAD1270     0.1821
      7  O4B      -21.1600    4.9140  -25.9050 O.3   1270  NAD1270    -0.3135
      8  C3B      -22.3770    6.2310  -27.4590 C.3   1270  NAD1270     0.2184
      9  O3B      -23.4560    7.1270  -27.0710 O.3   1270  NAD1270    -0.2174
     10  C2B      -21.0320    6.8500  -27.1050 C.3   1270  NAD1270     0.2570
     11  O2B      -21.0990    8.3080  -27.1120 O.3   1270  NAD1270    -0.2130
     12  C1B      -20.8540    6.2560  -25.6790 C.3   1270  NAD1270     0.3186
     13  N9A      -19.4900    6.5490  -25.1960 N.pl3 1270  NAD1270    -0.1439
     14  C8A      -18.3240    6.2210  -25.7810 C.3   1270  NAD1270     0.3377
     15  N7A      -17.3260    6.7240  -25.0290 N.2   1270  NAD1270    -0.2095
     16  C5A      -17.8730    7.3750  -23.9950 C.2   1270  NAD1270     0.2526
     17  C6A      -17.3450    8.0700  -22.8960 C.2   1270  NAD1270     0.4393
     18  N6A      -16.0330    8.2480  -22.7300 N.pl3 1270  NAD1270     0.2180
     19  N1A      -18.1990    8.6140  -22.0180 N.2   1270  NAD1270     0.0021
     20  C2A      -19.5210    8.4870  -22.1380 C.3   1270  NAD1270     0.5254
     21  N3A      -20.0310    7.8190  -23.1850 N.2   1270  NAD1270    -0.0055
     22  C4A      -19.2360    7.2600  -24.1060 C.2   1270  NAD1270     0.3518
     23  O3       -24.1380    1.8970  -29.7850 O.3   1270  NAD1270    -0.2703
     24  PN       -25.1140    0.8870  -29.0040 P.3   1270  NAD1270     0.2189
     25  O1N      -25.0200   -0.3390  -29.7940 O.2   1270  NAD1270    -0.5170
     26  O2N      -26.4390    1.5360  -28.7330 O.3   1270  NAD1270    -0.4371
     27  O5D      -24.3330    0.6430  -27.6130 O.3   1270  NAD1270    -0.3112
     28  C5D      -24.8710    0.9490  -26.2770 C.3   1270  NAD1270     0.1813
     29  C4D      -24.4990   -0.2160  -25.3050 C.3   1270  NAD1270     0.1799
     30  O4D      -25.2000   -1.4520  -25.7540 O.3   1270  NAD1270    -0.3327
     31  C3D      -22.9960   -0.5380  -25.2390 C.3   1270  NAD1270     0.2158
     32  O3D      -22.7750   -0.9890  -23.8810 O.3   1270  NAD1270    -0.2175
     33  C2D      -22.8900   -1.7150  -26.2020 C.3   1270  NAD1270     0.2309
     34  O2D      -21.7450   -2.4890  -25.8800 O.3   1270  NAD1270    -0.2158
     35  C1D      -24.1790   -2.4900  -25.8510 C.3   1270  NAD1270     0.2263
     36  N1N      -24.6880   -3.4900  -26.8160 N.pl3 1270  NAD1270    -0.2787
     37  C2N      -24.8480   -3.1970  -28.1750 C.3   1270  NAD1270     0.1244
     38  C3N      -25.3450   -4.2130  -28.9920 C.2   1270  NAD1270     0.0544
     39  C7N      -25.5540   -4.0100  -30.4910 C.2   1270  NAD1270     0.2818
     40  O7N      -25.7410   -5.0060  -31.1820 O.2   1270  NAD1270    -0.2670
     41  N7N      -25.5510   -2.7590  -30.9570 N.am  1270  NAD1270    -0.0839
     42  C4N      -25.6580   -5.4900  -28.5210 C.2   1270  NAD1270     0.0033
     43  C5N      -25.5020   -5.7800  -27.1680 C.2   1270  NAD1270     0.0157
     44  C6N      -25.0250   -4.7720  -26.3370 C.2   1270  NAD1270     0.0633
@<TRIPOS>BOND
     1    40    39    2
     2    41    39   am
     3     3     1    2
     4    39    38    1
     5     2     1    1
     6    25    24    2
     7    23     1    1
     8    23    24    1
     9     1     4    1
    10    24    26    1
    11    24    27    1
    12    38    42    2
    13    38    37    1
    14    42    43    1
    15     4     5    1
    16    37    36    1
    17     5     6    1
    18    27    28    1
    19     8    10    1
    20     8     9    1
    21     8     6    1
    22    43    44    2
    23    11    10    1
    24    10    12    1
    25    36    44    1
    26    36    35    1
    27     6     7    1
    28    28    29    1
    29    33    34    1
    30    33    35    1
    31    33    31    1
    32     7    12    1
    33    35    30    1
    34    14    13    1
    35    14    15    1
    36    30    29    1
    37    12    13    1
    38    29    31    1
    39    31    32    1
    40    13    22    1
    41    15    16    2
    42    22    16    1
    43    22    21    2
    44    16    17    1
    45    21    20    1
    46    17    18    1
    47    17    19    2
    48    20    19    1
