@<TRIPOS>MOLECULE
2x24_X24_A_1.pdb
 37 40 0 0 0
SMALL
GASTEIGER

@<TRIPOS>ATOM
      1  C1         3.8420   20.6240   41.0310 C.3   1715  X241715     0.0437
      2  C2         4.6080   20.8640   42.3340 C.3   1715  X241715     0.1379
      3  C3         3.9380   22.0270   43.0770 C.3   1715  X241715     0.0437
      4  C4         4.5250   19.5990   43.1870 C.3   1715  X241715     0.0437
      5  O5         6.0200   21.0720   42.0460 O.3   1715  X241715    -0.4408
      6  C6         6.8480   22.0010   42.5930 C.2   1715  X241715     0.4209
      7  O7         6.8030   22.3250   43.7690 O.2   1715  X241715    -0.2246
      8  N8         7.7770   22.5630   41.7900 N.am  1715  X241715    -0.1687
      9  C9         7.8850   22.1230   40.3880 C.3   1715  X241715     0.1186
     10  C10        7.8500   23.2710   39.3830 C.3   1715  X241715     0.0218
     11  C11        6.5150   24.0390   39.4130 C.3   1715  X241715     0.0018
     12  C12        6.4720   25.0100   38.2270 C.3   1715  X241715     0.0018
     13  C13        7.7260   25.9090   38.2080 C.3   1715  X241715     0.0217
     14  C14        7.6900   26.7980   36.9700 C.3   1715  X241715     0.1154
     15  N15        6.8650   27.9380   37.3730 N.am  1715  X241715    -0.2019
     16  C16        6.2420   28.7640   36.5120 C.2   1715  X241715     0.2616
     17  O17        6.4120   28.7080   35.3070 O.2   1715  X241715    -0.2687
     18  C18        5.4610   29.8480   37.1270 C.2   1715  X241715     0.0458
     19  C19        6.2100   30.8570   37.6780 C.2   1715  X241715     0.0330
     20  C20        5.6190   31.9530   38.3150 C.2   1715  X241715     0.1308
     21  N21        4.3000   32.0320   38.4490 N.2   1715  X241715    -0.4056
     22  C22        3.4900   31.0610   37.9650 C.2   1715  X241715     0.1169
     23  C23        2.0790   31.1450   38.1130 C.2   1715  X241715     0.0282
     24  C24        1.2700   30.1540   37.6030 C.2   1715  X241715     0.0020
     25  C25        1.8130   29.0470   36.9300 C.2   1715  X241715    -0.0038
     26  C26        3.1770   28.9150   36.7750 C.2   1715  X241715    -0.0149
     27  C27        4.0440   29.9150   37.2840 C.3   1715  X241715     0.1010
     28  C28        6.6000   32.9440   38.8090 C.ar  1715  X241715     0.0295
     29  C29        7.8960   32.4640   39.0700 C.ar  1715  X241715     0.0023
     30  C30        8.8930   33.3110   39.5070 C.ar  1715  X241715    -0.0027
     31  C31        8.6260   34.6670   39.6350 C.ar  1715  X241715    -0.0032
     32  C32        9.7320   35.5840   40.0910 C.3   1715  X241715     0.1356
     33  N33       10.9730   35.2590   39.3730 N.3   1715  X241715    -0.1262
     34  C34        7.3390   35.1600   39.3690 C.ar  1715  X241715    -0.0027
     35  C35        6.3230   34.3090   38.9380 C.ar  1715  X241715     0.0023
     36  C36        9.0810   25.1650   38.3230 C.3   1715  X241715     0.0018
     37  C37        9.0720   24.2030   39.5270 C.3   1715  X241715     0.0018
@<TRIPOS>BOND
     1    17    16    2
     2    16    18    1
     3    16    15   am
     4    26    25    2
     5    26    27    1
     6    25    24    1
     7    14    15    1
     8    14    13    1
     9    18    27    1
    10    18    19    2
    11    27    22    1
    12    24    23    2
    13    19    20    1
    14    22    23    1
    15    22    21    2
    16    13    12    1
    17    13    36    1
    18    12    11    1
    19    20    21    2
    20    20    28    1
    21    36    37    1
    22    28    35   ar
    23    28    29   ar
    24    35    34   ar
    25    29    30   ar
    26    34    31   ar
    27    33    32    1
    28    10    11    1
    29    10    37    1
    30    10     9    1
    31    30    31   ar
    32    31    32    1
    33     9     8    1
    34     1     2    1
    35     8     6   am
    36     5     2    1
    37     5     6    1
    38     2     3    1
    39     2     4    1
    40     6     7    2
