@<TRIPOS>MOLECULE
2x2b_SXM_A_1.pdb
 13 12 0 0 0
SMALL
GASTEIGER

@<TRIPOS>ATOM
      1  P24       51.5860   -8.1650   31.2270 P.3   101  SXM101      0.3942
      2  O26       52.5390   -8.8100   32.3030 O.3   101  SXM101     -0.1425
      3  O10       50.5260   -7.3410   31.8430 O.3   101  SXM101     -0.1425
      4  O27       50.9020   -9.2720   30.3510 O.3   101  SXM101     -0.2952
      5  C28       51.4140   -9.8030   29.1340 C.3   101  SXM101      0.1537
      6  C29       50.5820  -11.0420   28.9200 C.3   101  SXM101      0.0647
      7  C30       49.4510  -10.6340   27.9840 C.3   101  SXM101      0.0056
      8  C31       51.4300  -12.1190   28.2550 C.3   101  SXM101      0.0056
      9  C32       50.1880  -11.4900   30.4030 C.3   101  SXM101      0.2329
     10  O33       50.6330  -12.8010   30.6940 O.3   101  SXM101     -0.2131
     11  C34       48.7400  -11.1790   30.9870 C.2   101  SXM101      0.2912
     12  O35       47.7360  -11.0580   30.2990 O.2   101  SXM101     -0.2689
     13  N36       48.6630  -11.0840   32.3120 N.am  101  SXM101     -0.0856
@<TRIPOS>BOND
     1     7     6    1
     2     8     6    1
     3     6     5    1
     4     6     9    1
     5     5     4    1
     6    12    11    2
     7     4     1    1
     8     9    10    1
     9     9    11    1
    10    11    13   am
    11     1     3    1
    12     1     2    1
