@<TRIPOS>MOLECULE
2x2e_GDP_A_1.pdb
 28 30 0 0 0
SMALL
GASTEIGER

@<TRIPOS>ATOM
      1  PB        -7.6550  -10.7250   39.8310 P.3   1744  GDP1744     0.5373
      2  O1B       -7.6460  -10.6660   38.3560 O.2   1744  GDP1744    -0.2221
      3  O2B       -8.7060   -9.9990   40.5420 O.3   1744  GDP1744    -0.1143
      4  O3B       -6.4390  -10.2680   40.5610 O.3   1744  GDP1744    -0.1143
      5  O3A       -8.0740  -12.2080   40.2880 O.3   1744  GDP1744    -0.2261
      6  PA        -7.3510  -13.4870   39.6470 P.3   1744  GDP1744     0.2231
      7  O1A       -8.2560  -13.8860   38.5510 O.2   1744  GDP1744    -0.5169
      8  O2A       -5.9110  -13.3130   39.3650 O.3   1744  GDP1744    -0.4370
      9  O5'       -7.4350  -14.6580   40.7250 O.3   1744  GDP1744    -0.3111
     10  C5'       -6.9070  -14.4440   42.0270 C.3   1744  GDP1744     0.1813
     11  C4'       -6.7150  -15.7470   42.7430 C.3   1744  GDP1744     0.1799
     12  O4'       -7.9990  -16.2360   43.2150 O.3   1744  GDP1744    -0.3326
     13  C3'       -6.0930  -16.8690   41.9230 C.3   1744  GDP1744     0.2158
     14  O3'       -5.2370  -17.6240   42.7730 O.3   1744  GDP1744    -0.2175
     15  C2'       -7.3130  -17.6840   41.4850 C.3   1744  GDP1744     0.2310
     16  O2'       -7.0020  -19.0580   41.3050 O.3   1744  GDP1744    -0.2158
     17  C1'       -8.2370  -17.5230   42.6910 C.3   1744  GDP1744     0.2293
     18  N9        -9.6610  -17.6060   42.3910 N.pl3 1744  GDP1744    -0.2354
     19  C8       -10.3820  -16.7880   41.5410 C.3   1744  GDP1744     0.2246
     20  N7       -11.6550  -17.0890   41.5090 N.2   1744  GDP1744    -0.2322
     21  C5       -11.7780  -18.1670   42.3780 C.2   1744  GDP1744     0.2182
     22  C6       -12.9190  -18.9300   42.7400 C.1   1744  GDP1744     0.2372
     23  O6       -14.0830  -18.7870   42.3770 O.2   1744  GDP1744    -0.2069
     24  N1       -12.5940  -19.9540   43.6180 N.2   1744  GDP1744    -0.2485
     25  C2       -11.3350  -20.2160   44.0970 C.1   1744  GDP1744     0.2531
     26  N2       -11.2150  -21.2830   44.9070 N.pl3 1744  GDP1744    -0.0226
     27  N3       -10.2680  -19.4970   43.7890 N.2   1744  GDP1744    -0.3074
     28  C4       -10.5580  -18.5020   42.9240 C.2   1744  GDP1744     0.2300
@<TRIPOS>BOND
     1     2     1    2
     2     7     6    2
     3     8     6    1
     4     6     5    1
     5     6     9    1
     6     1     5    1
     7     1     3    1
     8     1     4    1
     9     9    10    1
    10    16    15    1
    11    15    13    1
    12    15    17    1
    13    20    19    1
    14    20    21    2
    15    19    18    1
    16    13    11    1
    17    13    14    1
    18    10    11    1
    19    23    22    2
    20    21    22    1
    21    21    28    1
    22    18    17    1
    23    18    28    1
    24    17    12    1
    25    22    24    2
    26    11    12    1
    27    28    27    2
    28    24    25    2
    29    27    25    2
    30    25    26    1
