@<TRIPOS>MOLECULE
2x2f_GDP_A_1.pdb
 28 30 0 0 0
SMALL
GASTEIGER

@<TRIPOS>ATOM
      1  PB        -7.3330  -11.6160   38.0380 P.3   1747  GDP1747     0.5373
      2  O1B       -7.3500  -11.5600   36.5660 O.2   1747  GDP1747    -0.2221
      3  O2B       -8.3660  -10.8700   38.7920 O.3   1747  GDP1747    -0.1143
      4  O3B       -6.0880  -11.1260   38.7460 O.3   1747  GDP1747    -0.1143
      5  O3A       -7.6810  -13.0990   38.5110 O.3   1747  GDP1747    -0.2261
      6  PA        -6.9740  -14.3560   37.8220 P.3   1747  GDP1747     0.2231
      7  O1A       -7.9500  -14.7550   36.7830 O.2   1747  GDP1747    -0.5169
      8  O2A       -5.5260  -14.2170   37.4600 O.3   1747  GDP1747    -0.4370
      9  O5'       -7.0650  -15.4960   38.9070 O.3   1747  GDP1747    -0.3111
     10  C5'       -6.5900  -15.2680   40.2270 C.3   1747  GDP1747     0.1813
     11  C4'       -6.4020  -16.5720   40.9520 C.3   1747  GDP1747     0.1799
     12  O4'       -7.6790  -17.0890   41.4070 O.3   1747  GDP1747    -0.3326
     13  C3'       -5.7290  -17.6880   40.1640 C.3   1747  GDP1747     0.2158
     14  O3'       -4.8400  -18.3670   41.0400 O.3   1747  GDP1747    -0.2175
     15  C2'       -6.9010  -18.5800   39.7340 C.3   1747  GDP1747     0.2310
     16  O2'       -6.5120  -19.9490   39.6530 O.3   1747  GDP1747    -0.2158
     17  C1'       -7.8740  -18.4030   40.8970 C.3   1747  GDP1747     0.2293
     18  N9        -9.2790  -18.5060   40.5110 N.pl3 1747  GDP1747    -0.2354
     19  C8        -9.9570  -17.7170   39.5950 C.3   1747  GDP1747     0.2246
     20  N7       -11.2380  -17.9920   39.5330 N.2   1747  GDP1747    -0.2322
     21  C5       -11.4100  -19.0340   40.4470 C.2   1747  GDP1747     0.2182
     22  C6       -12.5790  -19.7420   40.8330 C.1   1747  GDP1747     0.2372
     23  O6       -13.7370  -19.5680   40.4630 O.2   1747  GDP1747    -0.2069
     24  N1       -12.2940  -20.7400   41.7630 N.2   1747  GDP1747    -0.2485
     25  C2       -11.0430  -21.0100   42.2760 C.1   1747  GDP1747     0.2531
     26  N2       -10.9460  -22.0320   43.1470 N.pl3 1747  GDP1747    -0.0226
     27  N3        -9.9590  -20.3400   41.9520 N.2   1747  GDP1747    -0.3074
     28  C4       -10.2080  -19.3790   41.0340 C.2   1747  GDP1747     0.2300
@<TRIPOS>BOND
     1     2     1    2
     2     7     6    2
     3     8     6    1
     4     6     5    1
     5     6     9    1
     6     1     5    1
     7     1     4    1
     8     1     3    1
     9     9    10    1
    10    20    19    1
    11    20    21    2
    12    19    18    1
    13    16    15    1
    14    15    13    1
    15    15    17    1
    16    13    11    1
    17    13    14    1
    18    10    11    1
    19    21    22    1
    20    21    28    1
    21    23    22    2
    22    18    17    1
    23    18    28    1
    24    22    24    2
    25    17    12    1
    26    11    12    1
    27    28    27    2
    28    24    25    2
    29    27    25    2
    30    25    26    1
