@<TRIPOS>MOLECULE
2x2g_3PG_B_1.pdb
 11 10 0 0 0
SMALL
GASTEIGER

@<TRIPOS>ATOM
      1  C1        11.2320  -20.4140   35.1460 C.2   1251  3PG1251     0.3972
      2  O1        11.5830  -19.6480   36.0290 O.co2 1251  3PG1251    -0.2427
      3  O2        10.5200  -19.9360   34.1320 O.co2 1251  3PG1251    -0.2427
      4  C2        12.0390  -21.6380   34.8810 C.3   1251  3PG1251     0.2838
      5  O3        11.5570  -22.2830   33.6980 O.3   1251  3PG1251    -0.2081
      6  C3        11.9230  -22.6130   36.0380 C.3   1251  3PG1251     0.1983
      7  O1P       12.8140  -23.6620   35.6740 O.3   1251  3PG1251    -0.2669
      8  P         12.9590  -24.9930   36.5530 P.3   1251  3PG1251     0.5327
      9  O2P       13.1090  -24.6300   37.9820 O.3   1251  3PG1251    -0.1145
     10  O3P       11.6130  -25.8510   36.3150 O.3   1251  3PG1251    -0.1145
     11  O4P       14.2750  -25.7960   36.0710 O.2   1251  3PG1251    -0.2224
@<TRIPOS>BOND
     1     5     4    1
     2     3     1   ar
     3     4     1    1
     4     4     6    1
     5     1     2   ar
     6     7     6    1
     7     7     8    1
     8    11     8    2
     9    10     8    1
    10     8     9    1
