@<TRIPOS>MOLECULE
2x2i_QPS_A_1.pdb
 44 47 0 0 0
SMALL
GASTEIGER

@<TRIPOS>ATOM
      1  C1A       24.9240    1.6930   65.9570 C.3   1050  QPS1050     0.1273
      2  C2A       25.9790    0.5910   65.9420 C.3   1050  QPS1050     0.2049
      3  C3A       26.0680   -0.1140   64.6020 C.3   1050  QPS1050     0.2179
      4  C4A       24.7240   -0.7420   64.2270 C.3   1050  QPS1050     0.2053
      5  C5A       23.5460    0.1240   64.5520 C.2   1050  QPS1050     0.0180
      6  C6A       22.2020   -0.2470   63.9790 C.3   1050  QPS1050     0.2066
      7  C7A       23.6390    1.2110   65.3250 C.2   1050  QPS1050    -0.0100
      8  O2A       27.2630    1.0790   66.3560 O.3   1050  QPS1050    -0.2184
      9  O3A       26.9730   -1.1900   64.8180 O.3   1050  QPS1050    -0.2172
     10  O4A       24.6960   -1.0010   62.8270 O.3   1050  QPS1050    -0.2157
     11  O6A       21.5800   -1.2120   64.8300 O.3   1050  QPS1050    -0.2155
     12  C1B       23.1740    6.5900   65.4520 C.3   1050  QPS1050     0.2694
     13  C2B       23.5940    5.9140   66.7620 C.3   1050  QPS1050     0.2394
     14  C3B       24.7910    5.0060   66.5300 C.3   1050  QPS1050     0.2054
     15  C4B       24.3750    4.0010   65.4740 C.3   1050  QPS1050     0.1333
     16  C5B       23.9670    4.7360   64.1960 C.3   1050  QPS1050     0.1364
     17  C6B       23.5730    3.8080   63.0670 C.3   1050  QPS1050     0.0337
     18  N4B       25.3570    2.9330   65.3450 N.3   1050  QPS1050    -0.2087
     19  O2B       23.9210    6.8600   67.7800 O.3   1050  QPS1050    -0.2149
     20  O3B       25.1050    4.3240   67.7390 O.3   1050  QPS1050    -0.2186
     21  O5B       22.8350    5.5430   64.5380 O.3   1050  QPS1050    -0.3295
     22  C1C       24.5080   11.3120   63.2590 C.3   1050  QPS1050     0.2695
     23  C2C       24.5190   11.1600   64.7660 C.3   1050  QPS1050     0.2404
     24  C3C       24.8270    9.7260   65.1980 C.3   1050  QPS1050     0.2167
     25  C4C       23.9010    8.7390   64.4990 C.3   1050  QPS1050     0.1804
     26  C5C       23.9670    8.9930   62.9840 C.3   1050  QPS1050     0.1803
     27  C6C       23.0670    8.0570   62.1720 C.3   1050  QPS1050     0.2141
     28  O2C       25.5420   12.0240   65.2540 O.3   1050  QPS1050    -0.2149
     29  O3C       24.6620    9.5680   66.6130 O.3   1050  QPS1050    -0.2175
     30  O4C       24.2480    7.3910   64.8980 O.3   1050  QPS1050    -0.3257
     31  O5C       23.6270   10.3590   62.6890 O.3   1050  QPS1050    -0.3257
     32  O6C       23.4160    8.1940   60.7850 O.3   1050  QPS1050    -0.2176
     33  C1D       28.7270   12.9720   60.6790 C.3   1050  QPS1050     0.3023
     34  C2D       27.8880   13.9550   61.4810 C.3   1050  QPS1050     0.2433
     35  C3D       27.0650   13.1460   62.4860 C.3   1050  QPS1050     0.2168
     36  C4D       26.3100   11.9860   61.8240 C.3   1050  QPS1050     0.1804
     37  C5D       27.2640   11.2300   60.9040 C.3   1050  QPS1050     0.1804
     38  C6D       26.6490   10.0630   60.1490 C.3   1050  QPS1050     0.2141
     39  O1D       29.6640   13.6030   59.7870 O.3   1050  QPS1050    -0.1869
     40  O2D       28.7500   14.8770   62.1570 O.3   1050  QPS1050    -0.2148
     41  O3D       26.1490   13.9960   63.1780 O.3   1050  QPS1050    -0.2175
     42  O4D       25.8340   11.0620   62.8090 O.3   1050  QPS1050    -0.3257
     43  O5D       27.7960   12.1550   59.9730 O.3   1050  QPS1050    -0.3237
     44  O6D       27.6550    9.4970   59.2820 O.3   1050  QPS1050    -0.2176
@<TRIPOS>BOND
     1    44    38    1
     2    39    33    1
     3    43    33    1
     4    43    37    1
     5    38    37    1
     6    33    34    1
     7    32    27    1
     8    37    36    1
     9    34    40    1
    10    34    35    1
    11    36    35    1
    12    36    42    1
    13    27    26    1
    14    35    41    1
    15    31    26    1
    16    31    22    1
    17    42    22    1
    18    10     4    1
    19    26    25    1
    20    17    16    1
    21    22    23    1
    22     6     5    1
    23     6    11    1
    24    16    21    1
    25    16    15    1
    26     4     5    1
    27     4     3    1
    28    25    30    1
    29    25    24    1
    30    21    12    1
    31     5     7    2
    32     3     9    1
    33     3     2    1
    34    23    24    1
    35    23    28    1
    36    30    12    1
    37    24    29    1
    38     7     1    1
    39    18    15    1
    40    18     1    1
    41    12    13    1
    42    15    14    1
    43     2     1    1
    44     2     8    1
    45    14    13    1
    46    14    20    1
    47    13    19    1
