@<TRIPOS>MOLECULE
2x2j_NOJ_A_1.pdb
 11 11 0 0 0
SMALL
GASTEIGER

@<TRIPOS>ATOM
      1  C1        25.0330    1.3960   65.9030 C.3   1050  NOJ1050     0.1243
      2  C2        26.1000    0.3270   65.7530 C.3   1050  NOJ1050     0.2020
      3  O2        27.3710    0.8320   66.1510 O.3   1050  NOJ1050    -0.2188
      4  C3        26.1270   -0.1900   64.3240 C.3   1050  NOJ1050     0.2151
      5  O3        27.1040   -1.2270   64.2790 O.3   1050  NOJ1050    -0.2176
      6  C4        24.7540   -0.7340   63.9090 C.3   1050  NOJ1050     0.2031
      7  O4        24.7590   -1.0530   62.5240 O.3   1050  NOJ1050    -0.2187
      8  C5        23.6510    0.2970   64.1530 C.3   1050  NOJ1050     0.1386
      9  N5        23.7680    0.8210   65.4960 N.3   1050  NOJ1050    -0.2113
     10  C6        22.2410   -0.2310   63.8930 C.3   1050  NOJ1050     0.2020
     11  O6        21.7990   -1.1040   64.9320 O.3   1050  NOJ1050    -0.2188
@<TRIPOS>BOND
     1     7     6    1
     2    10     8    1
     3    10    11    1
     4     6     8    1
     5     6     4    1
     6     8     9    1
     7     5     4    1
     8     4     2    1
     9     9     1    1
    10     2     1    1
    11     2     3    1
