@<TRIPOS>MOLECULE
2x2k_X2K_A_1.pdb
 19 21 0 0 0
SMALL
GASTEIGER

@<TRIPOS>ATOM
      1  CAB       -7.9550   10.6140   10.7070 C.3   2017  X2K2017     0.0338
      2  CAN       -9.3340   11.1530   11.2050 C.2   2017  X2K2017     0.0099
      3  CAH       -9.5600   12.4320   11.5350 C.2   2017  X2K2017     0.0258
      4  CAL      -10.8510   12.4830   11.9000 C.2   2017  X2K2017     0.1092
      5  CAA      -11.5500   13.7780   12.3660 C.3   2017  X2K2017     0.0664
      6  NAJ      -11.4450   11.2750   11.8050 N.2   2017  X2K2017    -0.4065
      7  CAO      -10.5230   10.4010   11.3670 C.2   2017  X2K2017     0.1278
      8  CAE      -10.5470    9.0240   11.0560 C.2   2017  X2K2017     0.0444
      9  CAQ      -11.6100    8.1100   11.1920 C.2   2017  X2K2017     0.0994
     10  CAS      -11.5590    6.7460   10.8190 C.2   2017  X2K2017     0.0400
     11  CAI      -10.5820    5.8950   10.2480 C.2   2017  X2K2017     0.0207
     12  CAM      -10.8990    4.5230   10.0220 C.2   2017  X2K2017     0.0854
     13  NAC      -10.0160    3.6230    9.4830 N.pl3 2017  X2K2017    -0.1284
     14  CAF      -12.1770    4.0350   10.3460 C.2   2017  X2K2017    -0.0006
     15  CAG      -13.1300    4.8780   10.9040 C.3   2017  X2K2017     0.0873
     16  CAR      -12.8440    6.2290   11.1470 C.2   2017  X2K2017     0.1271
     17  NAK      -13.6150    7.2060   11.6800 N.2   2017  X2K2017    -0.3370
     18  CAP      -12.9000    8.3410   11.7170 C.1   2017  X2K2017     0.2045
     19  OAD      -13.3370    9.4080   12.1600 O.2   2017  X2K2017    -0.2093
@<TRIPOS>BOND
     1    13    12    1
     2    12    11    1
     3    12    14    2
     4    11    10    2
     5    14    15    1
     6     1     2    1
     7    10    16    1
     8    10     9    1
     9    15    16    1
    10     8     9    2
    11     8     7    1
    12    16    17    2
    13     9    18    1
    14     2     7    1
    15     2     3    2
    16     7     6    2
    17     3     4    1
    18    17    18    2
    19    18    19    2
    20     6     4    2
    21     4     5    1
