@<TRIPOS>MOLECULE
2x2l_X2L_A_1.pdb
 20 22 0 0 0
SMALL
GASTEIGER

@<TRIPOS>ATOM
      1  CAH       -9.5690  -23.8960   11.0240 C.ar  2015  X2L2015     0.0031
      2  CAO       -9.3310  -22.5630   11.3760 C.ar  2015  X2L2015     0.0369
      3  CAM      -10.3100  -21.8630   12.0870 C.ar  2015  X2L2015     0.1387
      4  OAB      -10.0260  -20.5570   12.4200 O.3   2015  X2L2015    -0.4714
      5  CAP      -11.5240  -22.5030   12.4110 C.ar  2015  X2L2015     0.0369
      6  CAI      -11.7420  -23.8410   12.0380 C.ar  2015  X2L2015     0.0031
      7  CAQ      -10.7600  -24.5710   11.3370 C.ar  2015  X2L2015     0.0009
      8  CAF      -10.8820  -25.9190   10.8840 C.2   2015  X2L2015     0.0127
      9  CAS      -11.8860  -26.9070   11.0450 C.2   2015  X2L2015     0.0972
     10  CAU      -11.7210  -28.2440   10.6730 C.2   2015  X2L2015     0.0440
     11  CAK      -10.6670  -28.9520   10.0970 C.2   2015  X2L2015     0.0242
     12  CAN      -10.8060  -30.3170    9.8550 C.2   2015  X2L2015     0.1031
     13  CAG      -11.9620  -31.0210   10.1590 C.2   2015  X2L2015     0.0236
     14  CAJ      -13.0120  -30.3170   10.7400 C.2   2015  X2L2015     0.0347
     15  CAT      -12.9030  -28.9380   10.9970 C.2   2015  X2L2015     0.1452
     16  CAA      -10.6720  -19.9110   13.5880 C.3   2015  X2L2015     0.2525
     17  NAL      -13.7610  -28.0740   11.5550 N.2   2015  X2L2015    -0.3329
     18  CAR      -13.1930  -26.8610   11.5620 C.1   2015  X2L2015     0.2047
     19  NAB       -9.7800  -30.9630    9.3060 N.2   2015  X2L2015    -0.1480
     20  OAA      -13.7740  -25.8940   12.0100 O.2   2015  X2L2015    -0.2093
@<TRIPOS>BOND
     1    19    12    2
     2    12    11    1
     3    12    13    1
     4    11    10    2
     5    13    14    2
     6    10    15    1
     7    10     9    1
     8    14    15    1
     9     8     9    2
    10     8     7    1
    11    15    17    2
    12     1     7   ar
    13     1     2   ar
    14     9    18    1
    15     7     6   ar
    16     2     3   ar
    17    17    18    2
    18    18    20    2
    19     6     5   ar
    20     3     5   ar
    21     3     4    1
    22     4    16    1
