@<TRIPOS>MOLECULE
2x2m_X2M_A_1.pdb
 18 20 0 0 0
SMALL
GASTEIGER

@<TRIPOS>ATOM
      1  C3        -0.9450   11.1850    5.1790 C.1   2016  X2M2016     0.2010
      2  C5        -1.5970   10.0670    5.7170 C.2   2016  X2M2016     0.0820
      3  C6         0.6240    9.7170    5.5610 C.ar  2016  X2M2016     0.1448
      4  C7        -0.5990    9.1270    5.9690 C.ar  2016  X2M2016     0.0388
      5  C8        -0.6210    7.8150    6.4890 C.ar  2016  X2M2016     0.0030
      6  C9         0.5680    7.1050    6.5920 C.ar  2016  X2M2016     0.0002
      7  C10        1.7780    7.6840    6.1870 C.ar  2016  X2M2016     0.0027
      8  C11        1.8190    8.9880    5.6670 C.ar  2016  X2M2016     0.0330
      9  C19       -2.9670    9.8750    5.9700 C.3   2016  X2M2016     0.0978
     10  C21       -4.0160   10.7400    5.6280 C.2   2016  X2M2016     0.1098
     11  O4        -1.4870   12.2500    4.8350 O.2   2016  X2M2016    -0.2096
     12  N1         0.3780   10.9370    5.0840 N.2   2016  X2M2016    -0.3331
     13  C26       -5.3660   10.3610    5.8290 C.2   2016  X2M2016     0.0061
     14  C25       -6.1920   11.3600    5.4660 C.2   2016  X2M2016     0.0255
     15  C24       -5.3680   12.3370    5.0510 C.2   2016  X2M2016     0.1087
     16  N22       -4.0670   11.9880    5.1420 N.2   2016  X2M2016    -0.4105
     17  CAB       -5.8390    8.9930    6.4000 C.3   2016  X2M2016     0.0334
     18  CAA       -5.8480   13.6920    4.5230 C.3   2016  X2M2016     0.0664
@<TRIPOS>BOND
     1    18    15    1
     2    11     1    2
     3    15    16    2
     4    15    14    1
     5    12     1    2
     6    12     3    2
     7    16    10    2
     8     1     2    1
     9    14    13    2
    10     3     8   ar
    11     3     4   ar
    12    10    13    1
    13    10     9    1
    14     8     7   ar
    15     2     4    2
    16     2     9    1
    17    13    17    1
    18     4     5   ar
    19     7     6   ar
    20     5     6   ar
