@<TRIPOS>MOLECULE
2x2n_HEM_A_1.pdb
 43 50 0 0 0
SMALL
GASTEIGER

@<TRIPOS>ATOM
      1  CHA       21.0090  -27.0170   26.9460 C.2   1479  HEM1479     0.0000
      2  CHB       24.4090  -28.0350   23.7250 C.2   1479  HEM1479     0.0000
      3  CHC       22.3100  -24.8890   20.6480 C.2   1479  HEM1479     0.0000
      4  CHD       19.6480  -23.2120   24.2500 C.2   1479  HEM1479     0.0000
      5  C1A       22.0900  -27.5670   26.3410 C.ar  1479  HEM1479     0.0000
      6  C2A       22.8990  -28.6300   26.8730 C.ar  1479  HEM1479     0.0000
      7  C3A       23.8560  -28.9360   26.0000 C.ar  1479  HEM1479     0.0000
      8  C4A       23.6470  -28.0580   24.8590 C.ar  1479  HEM1479     0.0000
      9  CMA       24.9890  -29.9870   26.1620 C.3   1479  HEM1479     0.0000
     10  CAA       22.6800  -29.2870   28.2210 C.3   1479  HEM1479     0.0000
     11  CBA       23.3790  -28.5060   29.3080 C.3   1479  HEM1479     0.0000
     12  CGA       23.2450  -29.2400   30.6040 C.2   1479  HEM1479     0.0000
     13  O1A       22.9610  -30.4840   30.5840 O.co2 1479  HEM1479     0.0000
     14  O2A       23.4450  -28.5660   31.6460 O.co2 1479  HEM1479     0.0000
     15  C1B       24.1090  -27.2700   22.6150 C.2   1479  HEM1479     0.0000
     16  C2B       24.8670  -27.2700   21.3720 C.2   1479  HEM1479     0.0000
     17  C3B       24.2450  -26.4090   20.5810 C.2   1479  HEM1479     0.0000
     18  C4B       23.1310  -25.8390   21.2460 C.2   1479  HEM1479     0.0000
     19  CMB       26.1530  -28.1200   21.0570 C.3   1479  HEM1479     0.0000
     20  CAB       24.5880  -26.0050   19.1630 C.2   1479  HEM1479     0.0000
     21  CBB       25.1610  -26.9020   18.3640 C.2   1479  HEM1479     0.0000
     22  C1C       21.4520  -24.0890   21.3520 C.ar  1479  HEM1479     0.0000
     23  C2C       20.7800  -22.8900   20.8690 C.ar  1479  HEM1479     0.0000
     24  C3C       20.0640  -22.4480   21.8990 C.ar  1479  HEM1479     0.0000
     25  C4C       20.2430  -23.3470   23.0170 C.ar  1479  HEM1479     0.0000
     26  CMC       20.8770  -22.2500   19.4490 C.3   1479  HEM1479     0.0000
     27  CAC       19.1630  -21.2100   21.9160 C.2   1479  HEM1479     0.0000
     28  CBC       18.9780  -20.5390   20.7670 C.2   1479  HEM1479     0.0000
     29  C1D       19.7740  -24.1000   25.2840 C.2   1479  HEM1479     0.0000
     30  C2D       19.0890  -23.9330   26.5350 C.2   1479  HEM1479     0.0000
     31  C3D       19.5020  -25.1100   27.3540 C.2   1479  HEM1479     0.0000
     32  C4D       20.3920  -25.8710   26.5090 C.2   1479  HEM1479     0.0000
     33  CMD       18.1460  -22.8120   26.9660 C.3   1479  HEM1479     0.0000
     34  CAD       19.0880  -25.4250   28.7940 C.3   1479  HEM1479     0.0000
     35  CBD       17.8390  -26.2390   28.7040 C.3   1479  HEM1479     0.0000
     36  CGD       17.3340  -26.6140   30.0580 C.2   1479  HEM1479     0.0000
     37  O1D       18.0210  -26.4040   31.0880 O.co2 1479  HEM1479     0.0000
     38  O2D       16.1920  -27.1500   30.0810 O.co2 1479  HEM1479     0.0000
     39  NA        22.5620  -27.2360   25.1010 N.ar  1479  HEM1479     0.0000
     40  NB        23.0620  -26.3830   22.5020 N.2   1479  HEM1479     0.0000
     41  NC        21.0990  -24.3500   22.6530 N.ar  1479  HEM1479     0.0000
     42  ND        20.5260  -25.2480   25.2860 N.2   1479  HEM1479     0.0000
     43 FE         21.8860  -25.7940   23.8840 Fe    1479  HEM1479     0.0000
@<TRIPOS>BOND
     1    21    20    2
     2    20    17    1
     3    26    23    1
     4    17    18    1
     5    17    16    2
     6     3    18    2
     7     3    22    1
     8    28    27    2
     9    23    22   ar
    10    23    24   ar
    11    19    16    1
    12    18    40    1
    13    22    41   ar
    14    16    15    1
    15    24    27    1
    16    24    25   ar
    17    40    15    2
    18    40    43    1
    19    15     2    1
    20    41    25   ar
    21    41    43    1
    22    25     4    1
    23     2     8    2
    24    43    39    1
    25    43    42    1
    26     4    29    2
    27     8    39   ar
    28     8     7   ar
    29    39     5   ar
    30    29    42    1
    31    29    30    1
    32    42    32    2
    33     7     9    1
    34     7     6   ar
    35     5     6   ar
    36     5     1    2
    37    32     1    1
    38    32    31    1
    39    30    33    1
    40    30    31    2
    41     6    10    1
    42    31    34    1
    43    10    11    1
    44    35    34    1
    45    35    36    1
    46    11    12    1
    47    36    38   ar
    48    36    37   ar
    49    13    12   ar
    50    12    14   ar
