@<TRIPOS>MOLECULE
2x2o_FMN_A_1.pdb
 31 33 0 0 0
SMALL
GASTEIGER

@<TRIPOS>ATOM
      1  N1         0.4200    1.1350   -0.3900 N.2   1119  FMN1119    -0.2890
      2  C2         0.4790    0.2380   -1.4360 C.1   1119  FMN1119     0.3669
      3  O2         0.1540    0.6050   -2.6260 O.2   1119  FMN1119    -0.1744
      4  N3         0.9360   -1.0220   -1.1950 N.2   1119  FMN1119    -0.2300
      5  C4         1.3460   -1.5750   -0.0090 C.1   1119  FMN1119     0.2513
      6  O4         1.6890   -2.7360    0.0850 O.2   1119  FMN1119    -0.2057
      7  C4A        1.2760   -0.6140    1.0880 C.2   1119  FMN1119     0.2700
      8  N5         1.6060   -1.0280    2.2890 N.2   1119  FMN1119    -0.3878
      9  C5A        1.5660   -0.0600    3.3480 C.2   1119  FMN1119     0.1320
     10  C6         2.1000   -0.3940    4.6430 C.2   1119  FMN1119     0.0250
     11  C7         2.1100    0.4550    5.6690 C.2   1119  FMN1119    -0.0238
     12  C7M        2.6440   -0.1040    7.0180 C.3   1119  FMN1119     0.0308
     13  C8         1.5950    1.7560    5.4290 C.2   1119  FMN1119    -0.0280
     14  C8M        1.6200    2.8930    6.5750 C.3   1119  FMN1119     0.0304
     15  C9         1.1160    2.1250    4.2230 C.2   1119  FMN1119    -0.0041
     16  C9A        1.1510    1.2470    3.1230 C.3   1119  FMN1119     0.1497
     17  N10        0.6710    1.5950    1.8460 N.pl3 1119  FMN1119    -0.2691
     18  C10        0.7610    0.7250    0.7990 C.2   1119  FMN1119     0.2416
     19  C1'        0.1790    2.9420    1.6120 C.3   1119  FMN1119     0.1294
     20  C2'       -1.2240    3.1880    2.0870 C.3   1119  FMN1119     0.2044
     21  O2'       -2.1600    2.2830    1.4320 O.3   1119  FMN1119    -0.2185
     22  C3'       -1.6170    4.6300    1.7560 C.3   1119  FMN1119     0.2164
     23  O3'       -0.9450    5.5390    2.6420 O.3   1119  FMN1119    -0.2175
     24  C4'       -3.1310    4.9250    1.8850 C.3   1119  FMN1119     0.2147
     25  O4'       -3.4030    6.2320    1.3120 O.3   1119  FMN1119    -0.2176
     26  C5'       -3.6480    4.8080    3.3000 C.3   1119  FMN1119     0.1892
     27  O5'       -5.0490    5.0760    3.2990 O.3   1119  FMN1119    -0.2674
     28  P         -5.7720    5.6060    4.6330 P.3   1119  FMN1119     0.5327
     29  O1P       -4.9860    6.9410    5.0200 O.3   1119  FMN1119    -0.1145
     30  O2P       -5.6120    4.6230    5.7650 O.3   1119  FMN1119    -0.1145
     31  O3P       -7.1450    5.9390    4.1760 O.2   1119  FMN1119    -0.2224
@<TRIPOS>BOND
     1     3     2    2
     2     2     4    2
     3     2     1    2
     4     4     5    2
     5     1    18    2
     6     5     6    2
     7     5     7    1
     8    18     7    1
     9    18    17    1
    10     7     8    2
    11    25    24    1
    12    21    20    1
    13    19    17    1
    14    19    20    1
    15    22    24    1
    16    22    20    1
    17    22    23    1
    18    17    16    1
    19    24    26    1
    20     8     9    2
    21    16     9    1
    22    16    15    1
    23    27    26    1
    24    27    28    1
    25     9    10    1
    26    31    28    2
    27    15    13    2
    28    28    29    1
    29    28    30    1
    30    10    11    2
    31    13    11    1
    32    13    14    1
    33    11    12    1
