@<TRIPOS>MOLECULE
2x2r_ADP_A_1.pdb
 27 29 0 0 0
SMALL
GASTEIGER

@<TRIPOS>ATOM
      1  PB        41.1220    7.9450    1.7720 P.3   1366  ADP1366     0.5373
      2  O1B       42.4780    7.8000    1.1910 O.3   1366  ADP1366    -0.1143
      3  O2B       40.5420    6.6140    2.2220 O.3   1366  ADP1366    -0.1143
      4  O3B       40.1530    8.8100    1.0130 O.2   1366  ADP1366    -0.2221
      5  PA        42.5300    9.8940    3.4270 P.3   1366  ADP1366     0.2231
      6  O1A       42.3830   10.9330    2.3350 O.2   1366  ADP1366    -0.5169
      7  O2A       43.8450    9.2300    3.7110 O.3   1366  ADP1366    -0.4370
      8  O3A       41.3910    8.7710    3.1380 O.3   1366  ADP1366    -0.2261
      9  O5'       41.9740   10.4320    4.8510 O.3   1366  ADP1366    -0.3111
     10  C5'       40.9210   11.3910    4.8620 C.3   1366  ADP1366     0.1813
     11  C4'       41.1040   12.3300    6.0420 C.3   1366  ADP1366     0.1821
     12  O4'       41.1310   11.5660    7.2470 O.3   1366  ADP1366    -0.3135
     13  C3'       42.4400   13.0420    5.9410 C.3   1366  ADP1366     0.2184
     14  O3'       42.2420   14.3720    6.4130 O.3   1366  ADP1366    -0.2174
     15  C2'       43.3380   12.3080    6.9130 C.3   1366  ADP1366     0.2570
     16  O2'       44.2630   13.2040    7.5320 O.3   1366  ADP1366    -0.2130
     17  C1'       42.3580   11.7740    7.9450 C.3   1366  ADP1366     0.3186
     18  N9        42.7520   10.4760    8.5150 N.pl3 1366  ADP1366    -0.1439
     19  C8        42.6250    9.2790    7.9090 C.3   1366  ADP1366     0.3377
     20  N7        43.0590    8.2890    8.7160 N.2   1366  ADP1366    -0.2095
     21  C5        43.4630    8.8550    9.8780 C.2   1366  ADP1366     0.2526
     22  C6        44.0180    8.3800   11.1650 C.2   1366  ADP1366     0.4393
     23  N6        44.2300    7.0690   11.3560 N.pl3 1366  ADP1366     0.2180
     24  N1        44.3110    9.2810   12.1250 N.2   1366  ADP1366     0.0021
     25  C2        44.1030   10.5950   11.9260 C.3   1366  ADP1366     0.5254
     26  N3        43.5820   11.1030   10.7880 N.2   1366  ADP1366    -0.0055
     27  C4        43.2530   10.2970    9.7460 C.2   1366  ADP1366     0.3518
@<TRIPOS>BOND
     1     4     1    2
     2     2     1    1
     3     1     3    1
     4     1     8    1
     5     6     5    2
     6     8     5    1
     7     5     7    1
     8     5     9    1
     9     9    10    1
    10    10    11    1
    11    13    11    1
    12    13    14    1
    13    13    15    1
    14    11    12    1
    15    15    16    1
    16    15    17    1
    17    12    17    1
    18    19    18    1
    19    19    20    1
    20    17    18    1
    21    18    27    1
    22    20    21    2
    23    27    21    1
    24    27    26    2
    25    21    22    1
    26    26    25    1
    27    22    23    1
    28    22    24    2
    29    25    24    1
