@<TRIPOS>MOLECULE
2x2r_X2O_A_1.pdb
 24 25 0 0 0
SMALL
GASTEIGER

@<TRIPOS>ATOM
      1  CAL       54.4910   10.9610   -1.2200 C.ar  1367  X2O1367    -0.0032
      2  CAH       54.5020    9.9070   -2.1230 C.ar  1367  X2O1367    -0.0003
      3  CAF       54.4670    8.6000   -1.6390 C.ar  1367  X2O1367    -0.0000
      4  CAI       54.4340    8.3490   -0.2670 C.ar  1367  X2O1367    -0.0003
      5  CAM       54.4200    9.4060    0.6360 C.ar  1367  X2O1367    -0.0032
      6  CAT       54.4680   10.7150    0.1500 C.ar  1367  X2O1367    -0.0098
      7  CAX       54.4250   11.8880    1.1300 C.3   1367  X2O1367     0.0766
      8  SAR       52.6770   11.9680    1.6670 S.3   1367  X2O1367    -0.1315
      9  CB        51.8290   12.3840    0.0980 C.3   1367  X2O1367     0.0887
     10  CA        50.3180   12.5750    0.3160 C.3   1367  X2O1367     0.2050
     11  C         49.6570   13.0000   -1.0020 C.2   1367  X2O1367     0.3828
     12  OXT       50.1160   14.0210   -1.5510 O.co2 1367  X2O1367    -0.2440
     13  O         48.7190   12.2940   -1.4340 O.co2 1367  X2O1367    -0.2440
     14  N         49.7170   11.3290    0.8390 N.3   1367  X2O1367    -0.1199
     15  CAW       54.8450   13.2180    0.4540 C.3   1367  X2O1367     0.0168
     16  CAB       56.2850   13.2070   -0.0870 C.3   1367  X2O1367     0.0015
     17  CAP       54.7270   14.4000    1.3940 C.3   1367  X2O1367     0.0015
     18  CAA       55.1510   15.6670    0.6510 C.3   1367  X2O1367     0.0000
     19  CAU       55.2980   11.6430    2.3760 C.ar  1367  X2O1367    -0.0098
     20  CAN       54.8180   12.0150    3.6340 C.ar  1367  X2O1367    -0.0032
     21  CAJ       55.5880   11.8190    4.7750 C.ar  1367  X2O1367    -0.0003
     22  CAG       56.8510   11.2430    4.6670 C.ar  1367  X2O1367    -0.0000
     23  CAK       57.3350   10.8720    3.4140 C.ar  1367  X2O1367    -0.0003
     24  CAO       56.5640   11.0680    2.2700 C.ar  1367  X2O1367    -0.0032
@<TRIPOS>BOND
     1     2     3   ar
     2     2     1   ar
     3     3     4   ar
     4    12    11   ar
     5    13    11   ar
     6     1     6   ar
     7    11    10    1
     8     4     5   ar
     9    16    15    1
    10     9    10    1
    11     9     8    1
    12     6     5   ar
    13     6     7    1
    14    10    14    1
    15    15     7    1
    16    15    17    1
    17    18    17    1
    18     7     8    1
    19     7    19    1
    20    24    19   ar
    21    24    23   ar
    22    19    20   ar
    23    23    22   ar
    24    20    21   ar
    25    22    21   ar
