@<TRIPOS>MOLECULE
2x2t_GAL_A_1.pdb
 11 11 0 0 0
SMALL
GASTEIGER

@<TRIPOS>ATOM
      1  C1         4.1840  -18.2300    7.5410 C.3   1153  GAL1153     0.1777
      2  C2         5.3210  -17.3360    8.0120 C.3   1153  GAL1153     0.2141
      3  C3         6.4400  -17.2580    6.9570 C.3   1153  GAL1153     0.2173
      4  C4         6.8240  -18.6600    6.4760 C.3   1153  GAL1153     0.2142
      5  C5         5.5590  -19.3930    6.0230 C.3   1153  GAL1153     0.1810
      6  C6         5.8670  -20.7660    5.4480 C.3   1153  GAL1153     0.2141
      7  O2         4.8380  -16.0210    8.3460 O.3   1153  GAL1153    -0.2176
      8  O3         7.5570  -16.5530    7.5100 O.3   1153  GAL1153    -0.2175
      9  O4         7.4960  -19.3880    7.5170 O.3   1153  GAL1153    -0.2176
     10  O5         4.6690  -19.5230    7.1460 O.3   1153  GAL1153    -0.3481
     11  O6         4.6970  -21.3500    4.8450 O.3   1153  GAL1153    -0.2176
@<TRIPOS>BOND
     1    11     6    1
     2     6     5    1
     3     5     4    1
     4     5    10    1
     5     4     3    1
     6     4     9    1
     7     3     8    1
     8     3     2    1
     9    10     1    1
    10     1     2    1
    11     2     7    1
