@<TRIPOS>MOLECULE
2x2v_DPV_B_1.pdb
 23 22 0 0 0
SMALL
GASTEIGER

@<TRIPOS>ATOM
      1  N         12.7990  -13.8510   35.5800 N.4   200  DPV200      0.3874
      2  P         14.6790  -14.3110   31.1770 P.3   200  DPV200      0.2139
      3  C1        16.7890  -15.7100   30.3990 C.3   200  DPV200      0.1491
      4  C2        17.1240  -17.0910   29.8390 C.3   200  DPV200      0.0325
      5  C3        18.6060  -17.2300   29.5020 C.3   200  DPV200      0.0026
      6  C4        14.4590  -14.6050   33.8330 C.3   200  DPV200      0.1271
      7  C5        13.0390  -14.1270   34.1530 C.3   200  DPV200     -0.0402
      8  C6        13.9620  -14.2390   36.3910 C.3   200  DPV200     -0.0959
      9  C7        12.5340  -12.4230   35.7660 C.3   200  DPV200     -0.0959
     10  C8        11.5960  -14.5620   36.0280 C.3   200  DPV200     -0.0959
     11  C15       18.9230  -16.6350   28.1380 C.3   200  DPV200      0.0001
     12  C16       18.6330  -17.6320   27.0240 C.3   200  DPV200      0.0000
     13  C17       19.7750  -18.6250   26.8290 C.3   200  DPV200      0.0000
     14  C18       20.9020  -18.0440   25.9800 C.3   200  DPV200      0.0000
     15  C19       21.4240  -19.0640   24.9700 C.3   200  DPV200      0.0000
     16  O1P       15.2810  -13.2710   30.2630 O.2   200  DPV200     -0.5172
     17  C20       22.7600  -18.6150   24.3880 C.3   200  DPV200      0.0000
     18  C21       23.2560  -19.5460   23.2820 C.3   200  DPV200      0.0000
     19  C22       24.6320  -19.1110   22.7770 C.3   200  DPV200      0.0000
     20  C23       25.1670  -20.0150   21.6860 C.3   200  DPV200      0.0000
     21  O2P       13.2040  -14.5950   31.0520 O.3   200  DPV200     -0.4373
     22  O3P       15.4620  -15.7030   30.9370 O.3   200  DPV200     -0.3141
     23  O4P       14.9830  -13.8870   32.7090 O.3   200  DPV200     -0.3163
@<TRIPOS>BOND
     1    20    19    1
     2    19    18    1
     3    18    17    1
     4    17    15    1
     5    15    14    1
     6    14    13    1
     7    13    12    1
     8    12    11    1
     9    11     5    1
    10     5     4    1
    11     4     3    1
    12    16     2    2
    13     3    22    1
    14    22     2    1
    15    21     2    1
    16     2    23    1
    17    23     6    1
    18     6     7    1
    19     7     1    1
    20     1     9    1
    21     1    10    1
    22     1     8    1
