@<TRIPOS>MOLECULE
2x2w_X2W_A_1.pdb
 17 16 0 0 0
SMALL
GASTEIGER

@<TRIPOS>ATOM
      1  CA        19.1260   73.3180  108.1400 C.3   1259  X2W1259     0.1983
      2  CB        18.6640   71.8630  108.2860 C.3   1259  X2W1259     0.0449
      3  CG        18.6780   71.3580  109.7310 C.3   1259  X2W1259     0.1123
      4  C3        17.5020   71.8840  110.5620 C.2   1259  X2W1259     0.3239
      5  C         20.6530   73.4170  108.2800 C.2   1259  X2W1259     0.3842
      6  O         21.1470   73.1180  109.3830 O.co2 1259  X2W1259    -0.2437
      7  OXT       21.2980   73.7960  107.2880 O.co2 1259  X2W1259    -0.2437
      8  C1        18.6670   75.0710  106.4700 C.2   1259  X2W1259     0.2423
      9  O1        18.9680   75.9790  107.2340 O.2   1259  X2W1259    -0.2733
     10  P         16.4230   71.2530  112.7220 P.3   1259  X2W1259     0.5907
     11  O2P       16.5760   71.8640  114.1960 O.3   1259  X2W1259    -0.1039
     12  O1P       16.6850   69.6850  112.9120 O.3   1259  X2W1259    -0.1039
     13  O3P       15.1240   71.5700  112.1040 O.2   1259  X2W1259    -0.2114
     14  N1        18.7160   73.7900  106.8110 N.am  1259  X2W1259    -0.1956
     15  C2        18.2680   75.4050  105.1830 C.3   1259  X2W1259     0.0964
     16  O2        16.5020   72.3690  110.0300 O.2   1259  X2W1259    -0.2497
     17  OE2       17.7020   71.8030  111.9070 O.3   1259  X2W1259    -0.3679
@<TRIPOS>BOND
     1    15     8    1
     2     8    14   am
     3     8     9    2
     4    14     1    1
     5     7     5   ar
     6     1     5    1
     7     1     2    1
     8     5     6   ar
     9     2     3    1
    10     3     4    1
    11    16     4    2
    12     4    17    1
    13    17    10    1
    14    13    10    2
    15    10    12    1
    16    10    11    1
