@<TRIPOS>MOLECULE
2x32_OTP_A_1.pdb
 49 48 0 0 0
SMALL
GASTEIGER

@<TRIPOS>ATOM
      1  O7        42.9050   22.0730   29.6630 O.3   1174  OTP1174    -0.1143
      2  P2        43.5220   20.7660   30.0870 P.3   1174  OTP1174     0.5373
      3  O5        44.7860   20.9500   30.9080 O.3   1174  OTP1174    -0.1143
      4  O6        43.6340   19.7430   28.9890 O.2   1174  OTP1174    -0.2221
      5  O4        42.4460   20.1740   31.1890 O.3   1174  OTP1174    -0.2261
      6  P1        41.4920   18.8810   31.0200 P.3   1174  OTP1174     0.2233
      7  O2        40.3340   19.3530   30.1620 O.2   1174  OTP1174    -0.5169
      8  O3        42.2220   17.5770   30.7710 O.3   1174  OTP1174    -0.4370
      9  O1        40.7320   18.6600   32.4320 O.3   1174  OTP1174    -0.3089
     10  C40       39.7440   19.6400   32.8100 C.3   1174  OTP1174     0.1747
     11  C39       38.3650   18.9840   32.9590 C.2   1174  OTP1174    -0.0024
     12  C37       37.2620   19.4880   32.4390 C.2   1174  OTP1174    -0.0454
     13  C38       37.1410   20.7500   31.5750 C.3   1174  OTP1174     0.0261
     14  C36       35.9310   18.7860   32.6920 C.3   1174  OTP1174     0.0264
     15  C35       35.0150   19.5020   33.6500 C.3   1174  OTP1174     0.0297
     16  C34       33.6610   18.7750   33.7650 C.2   1174  OTP1174    -0.0342
     17  C32       32.4730   19.3650   33.9440 C.2   1174  OTP1174    -0.0478
     18  C33       32.3100   20.8470   33.9510 C.3   1174  OTP1174     0.0260
     19  C31       31.2330   18.4590   33.9600 C.3   1174  OTP1174     0.0263
     20  C30       30.3240   18.5240   35.1610 C.3   1174  OTP1174     0.0297
     21  C29       29.0840   17.6540   34.9860 C.2   1174  OTP1174    -0.0342
     22  C27       27.8740   17.9700   35.4360 C.2   1174  OTP1174    -0.0478
     23  C28       27.5540   19.1900   36.2960 C.3   1174  OTP1174     0.0260
     24  C26       26.6650   17.1320   35.0820 C.3   1174  OTP1174     0.0263
     25  C25       26.8900   15.9730   34.1350 C.3   1174  OTP1174     0.0297
     26  C24       25.6100   15.4290   33.4780 C.2   1174  OTP1174    -0.0342
     27  C22       24.9440   14.3350   33.8410 C.2   1174  OTP1174    -0.0478
     28  C23       25.3910   13.3350   34.8780 C.3   1174  OTP1174     0.0260
     29  C21       23.6680   14.0190   33.1160 C.3   1174  OTP1174     0.0263
     30  C20       22.4010   14.1990   33.9940 C.3   1174  OTP1174     0.0297
     31  C19       21.1000   13.8250   33.2830 C.2   1174  OTP1174    -0.0342
     32  C17       20.1940   14.6730   32.7980 C.2   1174  OTP1174    -0.0478
     33  C18       20.1680   16.1470   33.0040 C.3   1174  OTP1174     0.0260
     34  C16       19.0580   14.1140   31.9550 C.3   1174  OTP1174     0.0264
     35  C15       17.7040   14.3950   32.5400 C.3   1174  OTP1174     0.0300
     36  C14       16.6350   13.5450   31.9000 C.2   1174  OTP1174    -0.0300
     37  C12       15.3610   13.9450   31.6650 C.2   1174  OTP1174    -0.0261
     38  C13       14.8860   15.3630   31.9770 C.3   1174  OTP1174     0.0307
     39  C11       14.3340   13.0370   31.0710 C.2   1174  OTP1174    -0.0046
     40  C10       14.7810   11.7260   30.5610 C.2   1174  OTP1174    -0.0010
     41  C9        13.7650   10.9400   29.7300 C.2   1174  OTP1174    -0.0085
     42  C7        13.0610    9.8670   30.1260 C.2   1174  OTP1174    -0.0436
     43  C8        13.2220    9.1310   31.4410 C.3   1174  OTP1174     0.0264
     44  C6        12.0440    9.2990   29.1640 C.3   1174  OTP1174     0.0267
     45  C5        10.6220    9.7600   29.4210 C.3   1174  OTP1174     0.0297
     46  C4         9.6240    9.1030   28.5130 C.2   1174  OTP1174    -0.0342
     47  C2         8.5530    9.7340   28.0210 C.2   1174  OTP1174    -0.0478
     48  C3         8.1130   11.1370   28.2580 C.3   1174  OTP1174     0.0260
     49  C1         7.6210    8.9440   27.1460 C.3   1174  OTP1174     0.0260
@<TRIPOS>BOND
     1    49    47    1
     2    47    48    1
     3    47    46    2
     4    46    45    1
     5     4     2    2
     6    44    45    1
     7    44    42    1
     8     1     2    1
     9    41    42    2
    10    41    40    1
    11     2     3    1
    12     2     5    1
    13    42    43    1
    14     7     6    2
    15    40    39    2
    16     8     6    1
    17     6     5    1
    18     6     9    1
    19    39    37    1
    20    13    12    1
    21    37    36    2
    22    37    38    1
    23    36    35    1
    24    34    35    1
    25    34    32    1
    26     9    10    1
    27    12    14    1
    28    12    11    2
    29    14    15    1
    30    32    33    1
    31    32    31    2
    32    10    11    1
    33    29    27    1
    34    29    30    1
    35    31    30    1
    36    26    27    2
    37    26    25    1
    38    15    16    1
    39    16    17    2
    40    27    28    1
    41    17    18    1
    42    17    19    1
    43    19    20    1
    44    25    24    1
    45    21    20    1
    46    21    22    2
    47    24    22    1
    48    22    23    1
