@<TRIPOS>MOLECULE
2x38_IC8_A_1.pdb
 30 34 0 0 0
SMALL
GASTEIGER

@<TRIPOS>ATOM
      1  CAT       -3.0010   -1.7860   23.8780 C.3   2028  IC82028     0.0323
      2  CAP       -3.8720   -3.0510   23.7680 C.ar  2028  IC82028    -0.0078
      3  CAQ       -3.5140   -4.1750   24.5140 C.ar  2028  IC82028    -0.0030
      4  CAR       -4.2960   -5.3330   24.4490 C.ar  2028  IC82028    -0.0002
      5  CAJ       -5.4300   -5.3810   23.6320 C.ar  2028  IC82028     0.0013
      6  CAI       -5.7890   -4.2660   22.8820 C.ar  2028  IC82028     0.0150
      7  CAH       -5.0150   -3.1000   22.9630 C.ar  2028  IC82028     0.0562
      8  NAG       -5.4420   -2.0210   22.1710 N.am  2028  IC82028    -0.2122
      9  CAF       -4.9080   -1.8500   20.8650 C.2   2028  IC82028     0.2448
     10  OAB       -4.0480   -2.6120   20.4640 O.2   2028  IC82028    -0.2734
     11  CAE       -5.3280   -0.8080   20.0480 C.3   2028  IC82028     0.1478
     12  CAD       -4.8110   -0.5850   18.7490 C.2   2028  IC82028    -0.0290
     13  CAA       -3.7190   -1.4610   18.0980 C.3   2028  IC82028     0.0273
     14  CAC       -5.2970    0.4850   18.0000 C.2   2028  IC82028    -0.0076
     15  CAK       -6.2830    1.3100   18.5130 C.2   2028  IC82028     0.0017
     16  CAL       -6.8010    1.0900   19.7920 C.2   2028  IC82028     0.0284
     17  CAM       -6.3180    0.0300   20.5690 C.2   2028  IC82028     0.1225
     18  NAN       -6.8210   -0.1710   21.8020 N.2   2028  IC82028    -0.3900
     19  CAO       -6.4410   -1.1600   22.6090 C.2   2028  IC82028     0.2170
     20  CAS       -7.0830   -1.3080   24.0190 C.3   2028  IC82028     0.2798
     21  N9        -7.4530    0.0430   24.4880 N.pl3 2028  IC82028    -0.1598
     22  C8        -8.6750    0.6050   24.3880 C.3   2028  IC82028     0.3362
     23  N7        -8.5940    1.8480   24.8910 N.2   2028  IC82028    -0.2096
     24  C5        -7.3340    2.0300   25.3100 C.2   2028  IC82028     0.2525
     25  C4        -6.6040    0.8810   25.0440 C.2   2028  IC82028     0.3504
     26  N3        -5.3090    0.8030   25.3620 N.2   2028  IC82028    -0.0055
     27  C2        -4.6940    1.8320   25.9330 C.3   2028  IC82028     0.5254
     28  N1        -5.3710    2.9540   26.2090 N.2   2028  IC82028     0.0021
     29  C6        -6.6830    3.0820   25.9120 C.2   2028  IC82028     0.4393
     30  N6        -7.3590    4.2060   26.1890 N.pl3 2028  IC82028     0.2180
@<TRIPOS>BOND
     1    14    15    1
     2    14    12    2
     3    13    12    1
     4    15    16    2
     5    12    11    1
     6    16    17    1
     7    11    17    1
     8    11     9    1
     9    10     9    2
    10    17    18    2
    11     9     8   am
    12    18    19    2
    13     8    19    1
    14     8     7    1
    15    19    20    1
    16     6     7   ar
    17     6     5   ar
    18     7     2   ar
    19     5     4   ar
    20     2     1    1
    21     2     3   ar
    22    20    21    1
    23    22    21    1
    24    22    23    1
    25     4     3   ar
    26    21    25    1
    27    23    24    2
    28    25    24    1
    29    25    26    2
    30    24    29    1
    31    26    27    1
    32    29    30    1
    33    29    28    2
    34    27    28    1
