@<TRIPOS>MOLECULE
2x39_X39_A_1.pdb
 27 30 0 0 0
SMALL
GASTEIGER

@<TRIPOS>ATOM
      1  N1        45.1570   33.2530  111.3780 N.pl3 1480  X391480    -0.1931
      2  C2        43.8220   32.6490  111.4460 C.3   1480  X391480     0.2040
      3  C3        43.6270   31.9480  112.7790 C.3   1480  X391480     0.0774
      4  C4        44.7570   30.9420  113.0720 C.3   1480  X391480     0.1547
      5  N5        44.6610   30.5160  114.5120 N.3   1480  X391480    -0.1247
      6  C9        46.1250   31.5980  112.8660 C.3   1480  X391480     0.0774
      7  C10       46.2180   32.2620  111.5160 C.3   1480  X391480     0.2040
      8  C11       44.6570   29.6650  112.2120 C.2   1480  X391480     0.2575
      9  O12       45.6360   29.1720  111.7300 O.2   1480  X391480    -0.2718
     10  N13       43.4520   29.1240  112.0350 N.am  1480  X391480    -0.1994
     11  C14       43.2720   27.9650  111.1780 C.3   1480  X391480     0.1415
     12  C15       42.5540   28.3240  109.9110 C.ar  1480  X391480    -0.0005
     13  C16       43.2660   28.5950  108.7430 C.ar  1480  X391480    -0.0017
     14  C17       42.5980   28.9320  107.5810 C.ar  1480  X391480     0.0111
     15  C18       41.2170   28.9990  107.5790 C.ar  1480  X391480     0.0577
     16 CL1        40.3790   29.4170  106.1230 Cl    1480  X391480    -0.0822
     17  C20       40.4960   28.7320  108.7270 C.ar  1480  X391480     0.0111
     18  C21       41.1590   28.3990  109.8880 C.ar  1480  X391480    -0.0017
     19  C22       45.4060   34.6120  111.7620 C.2   1480  X391480     0.3148
     20  N23       46.6800   34.8930  112.1080 N.2   1480  X391480    -0.0389
     21  C24       46.9510   36.1470  112.4690 C.3   1480  X391480     0.3998
     22  N25       46.1120   37.1850  112.5230 N.2   1480  X391480    -0.1687
     23  C26       44.8650   36.8900  112.1650 C.1   1480  X391480     0.0266
     24  N27       43.7990   37.7250  112.1150 N.2   1480  X391480    -0.1961
     25  C29       42.7190   37.0440  111.7100 C.2   1480  X391480     0.1063
     26  C30       43.0980   35.7670  111.4990 C.2   1480  X391480     0.0219
     27  C31       44.4200   35.6370  111.7750 C.3   1480  X391480     0.2132
@<TRIPOS>BOND
     1    16    15    1
     2    15    14   ar
     3    15    17   ar
     4    14    13   ar
     5    17    18   ar
     6    13    12   ar
     7    18    12   ar
     8    12    11    1
     9    11    10    1
    10     1     2    1
    11     1     7    1
    12     1    19    1
    13     2     3    1
    14    26    25    2
    15    26    27    1
    16     7     6    1
    17    25    24    1
    18     9     8    2
    19    19    27    1
    20    19    20    2
    21    27    23    1
    22    10     8   am
    23    20    21    1
    24    24    23    2
    25    23    22    2
    26     8     4    1
    27    21    22    1
    28     3     4    1
    29     6     4    1
    30     4     5    1
