@<TRIPOS>MOLECULE
2x3f_APC_A_1.pdb
 31 33 0 0 0
SMALL
GASTEIGER

@<TRIPOS>ATOM
      1  PG        42.1960   40.0260   36.5390 P.3   1283  APC1283     0.5389
      2  O1G       43.2220   39.7330   37.6200 O.3   1283  APC1283    -0.1143
      3  O2G       42.7380   39.7760   35.1450 O.2   1283  APC1283    -0.2220
      4  O3G       40.8190   39.4420   36.7970 O.3   1283  APC1283    -0.1143
      5  PB        43.2410   42.6470   36.6300 P.3   1283  APC1283     0.3895
      6  O1B       43.0900   43.6470   35.5210 O.2   1283  APC1283    -0.2544
      7  O2B       44.4820   41.7790   36.5270 O.3   1283  APC1283    -0.1388
      8  O3B       41.9730   41.6390   36.6050 O.3   1283  APC1283    -0.2026
      9  PA        42.2330   43.2300   39.5610 P.3   1283  APC1283     0.3820
     10  O1A       42.0930   41.7220   39.5840 O.2   1283  APC1283    -0.2548
     11  O2A       42.7820   43.8920   40.7960 O.3   1283  APC1283    -0.1392
     12  C3A       43.3290   43.6360   38.1670 C.3   1283  APC1283     0.2357
     13  O5'       40.7820   43.8830   39.3130 O.3   1283  APC1283    -0.2896
     14  C5'       40.4220   45.1510   39.8720 C.3   1283  APC1283     0.1836
     15  C4'       39.1960   45.7180   39.1570 C.3   1283  APC1283     0.1822
     16  O4'       39.5500   46.2080   37.8550 O.3   1283  APC1283    -0.3135
     17  C3'       38.1060   44.6650   38.9580 C.3   1283  APC1283     0.2184
     18  O3'       36.8320   45.2150   39.2790 O.3   1283  APC1283    -0.2174
     19  C2'       38.1970   44.3260   37.4900 C.3   1283  APC1283     0.2570
     20  O2'       36.9610   43.8930   36.9110 O.3   1283  APC1283    -0.2130
     21  C1'       38.6680   45.6490   36.8950 C.3   1283  APC1283     0.3186
     22  N9        39.2880   45.4140   35.5750 N.pl3 1283  APC1283    -0.1439
     23  C8        40.3290   44.6170   35.3080 C.3   1283  APC1283     0.3377
     24  N7        40.5770   44.6490   33.9810 N.2   1283  APC1283    -0.2095
     25  C5        39.6760   45.4840   33.4250 C.2   1283  APC1283     0.2526
     26  C6        39.4310   45.9200   32.1300 C.2   1283  APC1283     0.4393
     27  N6        40.2000   45.4710   31.1120 N.pl3 1283  APC1283     0.2180
     28  N1        38.4210   46.7870   31.8890 N.2   1283  APC1283     0.0021
     29  C2        37.6440   47.2370   32.8860 C.3   1283  APC1283     0.5254
     30  N3        37.8540   46.8220   34.1510 N.2   1283  APC1283    -0.0055
     31  C4        38.8610   45.9560   34.4370 C.2   1283  APC1283     0.3518
@<TRIPOS>BOND
     1    27    26    1
     2    28    26    2
     3    28    29    1
     4    26    25    1
     5    29    30    1
     6    25    24    2
     7    25    31    1
     8    24    23    1
     9    30    31    2
    10    31    22    1
    11     3     1    2
    12    23    22    1
    13     6     5    2
    14    22    21    1
    15     7     5    1
    16     1     8    1
    17     1     4    1
    18     1     2    1
    19     8     5    1
    20     5    12    1
    21    21    19    1
    22    21    16    1
    23    20    19    1
    24    19    17    1
    25    16    15    1
    26    12     9    1
    27    17    15    1
    28    17    18    1
    29    15    14    1
    30    13     9    1
    31    13    14    1
    32     9    10    2
    33     9    11    1
