@<TRIPOS>MOLECULE
2x3j_X3J_B_1.pdb
 16 15 0 0 0
SMALL
GASTEIGER

@<TRIPOS>ATOM
      1  C'        -7.2060  -14.2890  -28.2520 C.2   1592  X3J1592     0.3680
      2  O1'       -8.0130  -14.8260  -29.0550 O.co2 1592  X3J1592    -0.2455
      3  O2'       -7.3760  -14.1430  -27.0190 O.co2 1592  X3J1592    -0.2455
      4  C1        -5.8810  -13.7300  -28.7920 C.3   1592  X3J1592     0.1560
      5  C3        -7.9710  -15.1870  -35.2570 C.3   1592  X3J1592     0.1327
      6  N3        -8.9840  -14.7510  -36.2370 N.3   1592  X3J1592    -0.1294
      7  O3        -5.7570  -15.3720  -30.6140 O.3   1592  X3J1592    -0.2130
      8  CM3       -4.0670  -13.5890  -30.4700 C.2   1592  X3J1592     0.3927
      9  O3'       -3.2630  -14.4700  -30.8440 O.co2 1592  X3J1592    -0.2429
     10  C4        -7.1330  -13.9820  -34.8620 C.3   1592  X3J1592     0.1356
     11  N4        -7.2480  -13.7030  -33.4110 N.am  1592  X3J1592    -0.2037
     12  C4'       -6.1760  -13.3840  -32.6900 C.2   1592  X3J1592     0.2445
     13  O4        -5.0330  -13.3120  -33.1580 O.2   1592  X3J1592    -0.2732
     14  CM4       -6.4480  -13.1150  -31.1900 C.3   1592  X3J1592     0.1288
     15  CAP       -5.5510  -13.9860  -30.2810 C.3   1592  X3J1592     0.2381
     16  OAF       -3.7590  -12.4060  -30.2290 O.co2 1592  X3J1592    -0.2429
@<TRIPOS>BOND
     1     6     5    1
     2     5    10    1
     3    10    11    1
     4    11    12   am
     5    13    12    2
     6    12    14    1
     7    14    15    1
     8     9     8   ar
     9     7    15    1
    10     8    15    1
    11     8    16   ar
    12    15     4    1
    13     2     1   ar
    14     4     1    1
    15     1     3   ar
