@<TRIPOS>MOLECULE
2x3j_ATP_A_1.pdb
 31 33 0 0 0
SMALL
GASTEIGER

@<TRIPOS>ATOM
      1  PG         3.5040    9.4630   37.4240 P.3   1589  ATP1589     0.5373
      2  O1G        3.7370   10.0690   36.0430 O.2   1589  ATP1589    -0.2221
      3  O2G        2.0840    8.9340   37.6180 O.3   1589  ATP1589    -0.1143
      4  O3G        4.0700   10.2060   38.6010 O.3   1589  ATP1589    -0.1143
      5  PB         5.9870    7.9230   37.4230 P.3   1589  ATP1589     0.2277
      6  O1B        6.6970    8.9020   38.3290 O.3   1589  ATP1589    -0.4368
      7  O2B        6.3090    6.4450   37.5780 O.2   1589  ATP1589    -0.5168
      8  O3B        4.3660    8.0870   37.4880 O.3   1589  ATP1589    -0.2258
      9  PA         7.7830    8.6030   35.2920 P.3   1589  ATP1589     0.2189
     10  O1A        7.7000    9.8920   34.4880 O.2   1589  ATP1589    -0.5170
     11  O2A        8.8140    8.4610   36.3980 O.3   1589  ATP1589    -0.4371
     12  O3A        6.3000    8.2580   35.8630 O.3   1589  ATP1589    -0.2700
     13  O5'        8.0470    7.3850   34.2540 O.3   1589  ATP1589    -0.3112
     14  C5'        7.2270    7.2860   33.0840 C.3   1589  ATP1589     0.1813
     15  C4'        6.4030    5.9980   33.0530 C.3   1589  ATP1589     0.1821
     16  O4'        5.6000    6.0500   31.8630 O.3   1589  ATP1589    -0.3135
     17  C3'        7.2530    4.7510   32.8900 C.3   1589  ATP1589     0.2184
     18  O3'        6.5670    3.6520   33.5040 O.3   1589  ATP1589    -0.2174
     19  C2'        7.3520    4.5400   31.3760 C.3   1589  ATP1589     0.2570
     20  O2'        7.4820    3.1570   31.0050 O.3   1589  ATP1589    -0.2130
     21  C1'        6.0280    5.0850   30.8740 C.3   1589  ATP1589     0.3186
     22  N9         6.1310    5.6640   29.4970 N.pl3 1589  ATP1589    -0.1439
     23  C8         5.3220    5.3440   28.4700 C.3   1589  ATP1589     0.3377
     24  N7         5.6620    6.0320   27.3610 N.2   1589  ATP1589    -0.2095
     25  C5         6.6980    6.8240   27.6670 C.2   1589  ATP1589     0.2526
     26  C6         7.5400    7.8020   26.9440 C.2   1589  ATP1589     0.4393
     27  N6         7.3400    8.0680   25.6210 N.pl3 1589  ATP1589     0.2180
     28  N1         8.5240    8.3980   27.6430 N.2   1589  ATP1589     0.0021
     29  C2         8.7640    8.1280   28.9300 C.3   1589  ATP1589     0.5254
     30  N3         8.0420    7.2530   29.6460 N.2   1589  ATP1589    -0.0055
     31  C4         7.0130    6.5770   29.0740 C.2   1589  ATP1589     0.3518
@<TRIPOS>BOND
     1    27    26    1
     2    26    28    2
     3    26    25    1
     4    24    25    2
     5    24    23    1
     6    28    29    1
     7    25    31    1
     8    23    22    1
     9    29    30    1
    10    31    22    1
    11    31    30    2
    12    22    21    1
    13    21    19    1
    14    21    16    1
    15    20    19    1
    16    19    17    1
    17    16    15    1
    18    17    15    1
    19    17    18    1
    20    15    14    1
    21    14    13    1
    22    13     9    1
    23    10     9    2
    24     9    12    1
    25     9    11    1
    26    12     5    1
    27     2     1    2
    28     5     8    1
    29     5     7    2
    30     5     6    1
    31     1     8    1
    32     1     3    1
    33     1     4    1
