@<TRIPOS>MOLECULE
2x3k_AMP_A_1.pdb
 23 25 0 0 0
SMALL
GASTEIGER

@<TRIPOS>ATOM
      1  P          5.2560   35.7770   54.8150 P.3   1588  AMP1588     0.5327
      2  O1P        4.1230   36.7860   54.9270 O.3   1588  AMP1588    -0.1145
      3  O2P        6.3980   36.2150   53.9040 O.2   1588  AMP1588    -0.2224
      4  O3P        5.6990   35.1710   56.1280 O.3   1588  AMP1588    -0.1145
      5  O5'        4.4790   34.5970   54.0210 O.3   1588  AMP1588    -0.2675
      6  C5'        3.3080   34.8500   53.2290 C.3   1588  AMP1588     0.1860
      7  C4'        2.6700   33.5920   52.6600 C.3   1588  AMP1588     0.1823
      8  O4'        2.1060   33.8560   51.3590 O.3   1588  AMP1588    -0.3135
      9  C3'        3.6860   32.4710   52.4660 C.3   1588  AMP1588     0.2184
     10  O3'        3.1180   31.3220   53.0500 O.3   1588  AMP1588    -0.2174
     11  C2'        3.8330   32.2930   50.9730 C.3   1588  AMP1588     0.2570
     12  O2'        4.0660   30.9450   50.5620 O.3   1588  AMP1588    -0.2130
     13  C1'        2.5070   32.8030   50.4530 C.3   1588  AMP1588     0.3186
     14  N9         2.6930   33.3800   49.1130 N.pl3 1588  AMP1588    -0.1439
     15  C8         1.9920   32.9980   48.0430 C.3   1588  AMP1588     0.3377
     16  N7         2.3690   33.7150   46.9660 N.2   1588  AMP1588    -0.2095
     17  C5         3.3230   34.5670   47.3360 C.2   1588  AMP1588     0.2526
     18  C6         4.0990   35.6090   46.6740 C.2   1588  AMP1588     0.4393
     19  N6         3.9210   35.8340   45.3430 N.pl3 1588  AMP1588     0.2180
     20  N1         4.9890   36.2990   47.4280 N.2   1588  AMP1588     0.0021
     21  C2         5.1710   36.0770   48.7340 C.3   1588  AMP1588     0.5254
     22  N3         4.4520   35.1580   49.4000 N.2   1588  AMP1588    -0.0055
     23  C4         3.5310   34.3690   48.7670 C.2   1588  AMP1588     0.3518
@<TRIPOS>BOND
     1    19    18    1
     2    18    17    1
     3    18    20    2
     4    16    17    2
     5    16    15    1
     6    17    23    1
     7    20    21    1
     8    15    14    1
     9    21    22    1
    10    23    14    1
    11    23    22    2
    12    14    13    1
    13    13    11    1
    14    13     8    1
    15    12    11    1
    16    11     9    1
    17     8     7    1
    18     9     7    1
    19     9    10    1
    20     7     6    1
    21     6     5    1
    22     3     1    2
    23     5     1    1
    24     1     2    1
    25     1     4    1
