@<TRIPOS>MOLECULE
2x3t_GYV_A_1.pdb
 18 18 0 0 0
SMALL
GASTEIGER

@<TRIPOS>ATOM
      1  ND3       17.4860   10.2990  -18.0360 N.am  1170  GYV1170    -0.0475
      2  C1        16.9590   10.0380  -16.8580 C.2   1170  GYV1170     0.4429
      3  O1A       16.5980   10.9440  -16.1620 O.2   1170  GYV1170    -0.2227
      4  O1B       16.8340    8.7190  -16.2910 O.3   1170  GYV1170    -0.4062
      5  C15       15.6430    8.0470  -16.5240 C.3   1170  GYV1170     0.3149
      6  O8        16.1010    6.8410  -17.0890 O.3   1170  GYV1170    -0.3162
      7  C8        16.7330    5.8930  -16.2370 C.3   1170  GYV1170     0.1845
      8  C9        16.8660    4.5350  -16.9050 C.3   1170  GYV1170     0.2142
      9  O9        17.6640    4.6030  -18.0740 O.3   1170  GYV1170    -0.2176
     10  C7        15.9100    5.7040  -14.9960 C.3   1170  GYV1170     0.2137
     11  O7        16.5560    4.8360  -14.1040 O.3   1170  GYV1170    -0.2176
     12  C6        15.8000    7.0300  -14.3750 C.3   1170  GYV1170     0.2107
     13  O6        15.2570    6.8520  -13.1010 O.3   1170  GYV1170    -0.2182
     14  C5        14.8560    7.7310  -15.2650 C.3   1170  GYV1170     0.1980
     15  N5        14.4940    8.8720  -14.4720 N.am  1170  GYV1170    -0.1979
     16  C10       13.2740    9.3560  -14.4990 C.2   1170  GYV1170     0.2421
     17  O10       12.4270    8.9020  -15.1990 O.2   1170  GYV1170    -0.2733
     18  C11       12.9530   10.5200  -13.6520 C.3   1170  GYV1170     0.0964
@<TRIPOS>BOND
     1     9     8    1
     2     1     2   am
     3     6     5    1
     4     6     7    1
     5     8     7    1
     6     2     4    1
     7     2     3    2
     8     5     4    1
     9     5    14    1
    10     7    10    1
    11    14    15    1
    12    14    12    1
    13    17    16    2
    14    10    12    1
    15    10    11    1
    16    16    15   am
    17    16    18    1
    18    12    13    1
