@<TRIPOS>MOLECULE
2x41_BGC_A_1.pdb
 12 12 0 0 0
SMALL
GASTEIGER

@<TRIPOS>ATOM
      1  C2       -14.9730   26.2320  -18.1110 C.3   1726  BGC1726     0.2434
      2  C3       -14.0700   25.6440  -19.1890 C.3   1726  BGC1726     0.2199
      3  C4       -14.1170   26.5110  -20.4420 C.3   1726  BGC1726     0.2144
      4  C5       -13.7420   27.9350  -20.0560 C.3   1726  BGC1726     0.1836
      5  C6       -13.6500   28.8490  -21.2770 C.3   1726  BGC1726     0.2142
      6  C1       -14.7150   27.7260  -17.9230 C.3   1726  BGC1726     0.3024
      7  O1       -15.7190   28.2680  -17.0960 O.3   1726  BGC1726    -0.1869
      8  O2       -14.7410   25.5530  -16.8920 O.3   1726  BGC1726    -0.2148
      9  O3       -14.4800   24.3260  -19.4780 O.3   1726  BGC1726    -0.2174
     10  O4       -13.2220   26.0260  -21.4180 O.3   1726  BGC1726    -0.2176
     11  O5       -14.7230   28.4090  -19.1600 O.3   1726  BGC1726    -0.3236
     12  O6       -14.9460   29.1350  -21.7510 O.3   1726  BGC1726    -0.2176
@<TRIPOS>BOND
     1    12     5    1
     2    10     3    1
     3     5     4    1
     4     3     4    1
     5     3     2    1
     6     4    11    1
     7     9     2    1
     8     2     1    1
     9    11     6    1
    10     1     6    1
    11     1     8    1
    12     6     7    1
