@<TRIPOS>MOLECULE
2x42_GLC_A_1.pdb
 12 12 0 0 0
SMALL
GASTEIGER

@<TRIPOS>ATOM
      1  C1       -14.0770   27.6210  -17.7980 C.3   1722  GLC1722     0.3024
      2  C2       -14.6410   26.2350  -18.1060 C.3   1722  GLC1722     0.2434
      3  C3       -13.7700   25.5630  -19.1530 C.3   1722  GLC1722     0.2199
      4  C4       -13.7950   26.4420  -20.3990 C.3   1722  GLC1722     0.2144
      5  C5       -13.2340   27.8180  -20.0290 C.3   1722  GLC1722     0.1836
      6  C6       -13.2580   28.7150  -21.2580 C.3   1722  GLC1722     0.2142
      7  O1       -12.7650   27.5000  -17.2540 O.3   1722  GLC1722    -0.1869
      8  O2       -14.6010   25.4580  -16.9050 O.3   1722  GLC1722    -0.2148
      9  O3       -14.2720   24.2570  -19.4330 O.3   1722  GLC1722    -0.2174
     10  O4       -12.9950   25.8680  -21.4330 O.3   1722  GLC1722    -0.2176
     11  O5       -14.0600   28.4270  -19.0000 O.3   1722  GLC1722    -0.3236
     12  O6       -14.6040   28.8560  -21.6970 O.3   1722  GLC1722    -0.2176
@<TRIPOS>BOND
     1    12     6    1
     2    10     4    1
     3     6     5    1
     4     4     5    1
     5     4     3    1
     6     5    11    1
     7     9     3    1
     8     3     2    1
     9    11     1    1
    10     2     1    1
    11     2     8    1
    12     1     7    1
