@<TRIPOS>MOLECULE
2x4f_16X_A_1.pdb
 23 26 0 0 0
SMALL
GASTEIGER

@<TRIPOS>ATOM
      1  N7A       87.0450   49.8870   34.7010 N.pl3 1374  16X1374    -0.0867
      2  C3A       87.0210   49.7290   33.3880 C.2   1374  16X1374     0.2461
      3  N2A       86.4040   48.7390   32.7420 N.2   1374  16X1374    -0.3852
      4  C1A       86.5030   48.7710   31.4040 C.2   1374  16X1374     0.1063
      5  C6A       85.9630   47.8680   30.5060 C.3   1374  16X1374     0.0629
      6  S4A       87.7510   50.7480   32.3130 S.3   1374  16X1374    -0.0508
      7  C5A       87.2580   49.8770   30.9620 C.3   1374  16X1374     0.1563
      8  C4        87.6000   50.2660   29.6590 C.2   1374  16X1374     0.1398
      9  N3        88.4070   51.3300   29.5100 N.2   1374  16X1374    -0.3393
     10  C5        87.1530   49.6060   28.5170 C.2   1374  16X1374     0.0513
     11  C6        87.5540   50.0730   27.2780 C.2   1374  16X1374     0.1141
     12  N1        88.3440   51.1230   27.2000 N.2   1374  16X1374    -0.1683
     13  C2        88.7880   51.7560   28.2990 C.1   1374  16X1374     0.1694
     14  N7        89.5850   52.8230   28.1410 N.pl3 1374  16X1374    -0.1357
     15  C1B       90.4390   53.3940   29.0010 C.ar  1374  16X1374     0.0842
     16  C6B       91.6880   53.8070   28.5300 C.ar  1374  16X1374     0.0174
     17  C2B       90.1240   53.6400   30.3310 C.ar  1374  16X1374     0.0393
     18  C3B       91.0520   54.2600   31.1620 C.ar  1374  16X1374     0.1190
     19  N7B       90.7460   54.4730   32.4270 N.4   1374  16X1374    -0.0564
     20  O8B       91.1030   54.3660   33.7370 O.3   1374  16X1374    -0.0542
     21  O9B       89.8650   54.9440   33.3580 O.3   1374  16X1374    -0.0542
     22  C4B       92.2990   54.6570   30.6920 C.ar  1374  16X1374     0.0220
     23  C5B       92.6250   54.4290   29.3620 C.ar  1374  16X1374     0.0030
@<TRIPOS>BOND
     1    12    11    1
     2    12    13    2
     3    11    10    2
     4    14    13    1
     5    14    15    1
     6    13     9    2
     7    10     8    1
     8    16    15   ar
     9    16    23   ar
    10    15    17   ar
    11    23    22   ar
    12     9     8    2
    13     8     7    1
    14    17    18   ar
    15     5     4    1
    16    22    18   ar
    17     7     4    1
    18     7     6    1
    19    18    19    1
    20     4     3    2
    21     6     2    1
    22    19    21    1
    23    19    20    1
    24     3     2    2
    25    21    20    1
    26     2     1    1
