@<TRIPOS>MOLECULE
2x4m_C8E_A_1.pdb
 11 10 0 0 0
SMALL
GASTEIGER

@<TRIPOS>ATOM
      1  C1       -28.7880  -43.4070   -0.0190 C.3   1300  C8E1300     0.0000
      2  C2       -27.9860  -42.2110   -0.5100 C.3   1300  C8E1300     0.0000
      3  C3       -28.1250  -42.0320   -2.0190 C.3   1300  C8E1300     0.0000
      4  C4       -26.8300  -42.3670   -2.7450 C.3   1300  C8E1300     0.0000
      5  C5       -27.0960  -42.7710   -4.1900 C.3   1300  C8E1300     0.0001
      6  C6       -26.2340  -41.9500   -5.1420 C.3   1300  C8E1300     0.0026
      7  C7       -26.8720  -41.8340   -6.5240 C.3   1300  C8E1300     0.0321
      8  C8       -26.0280  -42.5150   -7.6020 C.3   1300  C8E1300     0.1422
      9  O9       -25.5460  -41.5260   -8.4880 O.3   1300  C8E1300    -0.3538
     10  C10      -25.3890  -41.9820   -9.8140 C.3   1300  C8E1300     0.1422
     11  C11      -25.8600  -40.8850  -10.7690 C.3   1300  C8E1300     0.0346
@<TRIPOS>BOND
     1    11    10    1
     2    10     9    1
     3     9     8    1
     4     8     7    1
     5     7     6    1
     6     6     5    1
     7     5     4    1
     8     4     3    1
     9     3     2    1
    10     2     1    1
