@<TRIPOS>MOLECULE
2x4n_III_C_1.pdb
 30 29 0 0 0
SMALL
GASTEIGER

@<TRIPOS>ATOM
      1  N         22.3820   -7.8900    4.1410 N.3     1  LYS1       -0.1231
      2  CA        23.5830   -7.1420    4.5020 C.3     1  LYS1        0.1693
      3  C         24.4980   -6.9920    3.3030 C.2     1  LYS1        0.2592
      4  O         24.7560   -7.9640    2.5970 O.2     1  LYS1       -0.2718
      5  CB        24.3360   -7.8400    5.6320 C.3     1  LYS1        0.0285
      6  CG        23.6570   -7.7350    6.9830 C.3     1  LYS1        0.0035
      7  CD        24.6350   -8.0050    8.1140 C.3     1  LYS1        0.0206
      8  CE        24.0870   -7.4850    9.4320 C.3     1  LYS1        0.1093
      9  NZ        24.9290   -7.8740   10.5810 N.3     1  LYS1       -0.1314
     10  N         24.9870   -5.7780    3.0700 N.am    2  ILE2       -0.1966
     11  CA        25.8650   -5.5370    1.9290 C.3     2  ILE2        0.1727
     12  C         27.2600   -6.0880    2.1600 C.2     2  ILE2        0.2616
     13  O         27.6500   -6.3990    3.2850 O.2     2  ILE2       -0.2715
     14  CB        25.9940   -4.0380    1.5740 C.3     2  ILE2        0.0290
     15  CG1       26.6770   -3.2680    2.7060 C.3     2  ILE2        0.0022
     16  CG2       24.6320   -3.4380    1.2280 C.3     2  ILE2        0.0023
     17  CD1       26.6540   -1.7600    2.5080 C.3     2  ILE2        0.0001
     18  N         28.0000   -6.2010    1.0670 N.am    3  LEU3       -0.1963
     19  CA        29.3900   -6.6100    1.0880 C.3     3  LEU3        0.1728
     20  C         30.2420   -5.6760    1.9460 C.2     3  LEU3        0.2617
     21  O         30.2570   -4.4640    1.7360 O.2     3  LEU3       -0.2715
     22  CB        29.9230   -6.6180   -0.3470 C.3     3  LEU3        0.0311
     23  CG        31.3650   -7.0330   -0.6300 C.3     3  LEU3        0.0022
     24  CD1       31.5250   -8.5450   -0.5520 C.3     3  LEU3        0.0001
     25  CD2       31.7730   -6.5260   -2.0000 C.3     3  LEU3        0.0001
     26  N         30.9230   -6.2470    2.9340 N.am    4  GLY4       -0.1939
     27  CA        32.0510   -5.5880    3.5690 C.3     4  GLY4        0.2031
     28  C         33.2490   -6.2170    2.8880 C.2     4  GLY4        0.2828
     29  O         33.7970   -7.2050    3.3730 O.2     4  GLY4       -0.2697
     30  N         34.0250   -5.2780    2.3830 N.am    5  GLY5       -0.0862
@<TRIPOS>BOND
     1    25    23    1
     2    23    24    1
     3    23    22    1
     4    22    19    1
     5    18    19    1
     6    18    12   am
     7    19    20    1
     8    16    14    1
     9    14    11    1
    10    14    15    1
    11    21    20    2
    12    11    12    1
    13    11    10    1
    14    20    26   am
    15    12    13    2
    16    30    28   am
    17    17    15    1
    18     4     3    2
    19    28    29    2
    20    28    27    1
    21    26    27    1
    22    10     3   am
    23     3     2    1
    24     1     2    1
    25     2     5    1
    26     5     6    1
    27     6     7    1
    28     7     8    1
    29     8     9    1
