@<TRIPOS>MOLECULE
2x4z_X4Z_A_1.pdb
 35 39 0 0 0
SMALL
GASTEIGER

@<TRIPOS>ATOM
      1  C1        20.0180   20.5030   61.2400 C.2   1593  X4Z1593     0.1224
      2  C2        20.2280   21.6480   61.9660 C.2   1593  X4Z1593     0.1303
      3  C3        19.5360   19.5890   62.2070 C.2   1593  X4Z1593     0.3971
      4  C4        20.2800   20.7060   59.8010 C.2   1593  X4Z1593     0.0782
      5  C5        20.7660   22.8160   61.1660 C.3   1593  X4Z1593     0.1051
      6  N6        19.9080   21.5110   63.2620 N.2   1593  X4Z1593    -0.0366
      7  N7        19.2250   18.1860   61.9120 N.pl3 1593  X4Z1593     0.0269
      8  N8        19.4560   20.1800   63.4180 N.2   1593  X4Z1593     0.0843
      9  N9        20.6240   22.1890   59.7960 N.am  1593  X4Z1593    -0.2384
     10  C10       19.8360   24.0230   61.4140 C.3   1593  X4Z1593     0.0266
     11  C11       22.1990   23.1730   61.6210 C.3   1593  X4Z1593     0.0266
     12  C12       19.7400   17.2830   61.0790 C.2   1593  X4Z1593     0.3181
     13  C13       20.7770   22.9180   58.6540 C.2   1593  X4Z1593     0.3275
     14  C14       19.2580   15.9660   61.1250 C.3   1593  X4Z1593     0.2010
     15  N15       20.7150   17.6560   60.2100 N.2   1593  X4Z1593    -0.3040
     16  N16       20.6030   22.3130   57.4890 N.am  1593  X4Z1593    -0.1840
     17  O17       21.0860   24.1070   58.7010 O.2   1593  X4Z1593    -0.2504
     18  C18       19.8370   15.0270   60.2020 C.2   1593  X4Z1593     0.1422
     19  S19       18.0770   15.2020   62.0800 S.3   1593  X4Z1593    -0.0958
     20  C20       21.2610   16.7660   59.3480 C.1   1593  X4Z1593     0.1178
     21  C21       20.7280   23.0740   56.2130 C.3   1593  X4Z1593     0.1350
     22  N22       20.8390   15.4860   59.3350 N.2   1593  X4Z1593    -0.3464
     23  C23       19.2520   13.7280   60.3480 C.2   1593  X4Z1593     0.0366
     24  C24       18.2590   13.6800   61.3560 C.2   1593  X4Z1593     0.0341
     25  C25       22.3110   17.2210   58.4410 C.3   1593  X4Z1593     0.1430
     26  C26       22.0930   23.5160   55.7990 C.ar  1593  X4Z1593    -0.0012
     27  C27       20.0190   22.3250   55.0290 C.3   1593  X4Z1593     0.0987
     28  C28       22.2180   24.6040   54.8780 C.ar  1593  X4Z1593    -0.0026
     29  C29       23.2630   22.8590   56.3020 C.ar  1593  X4Z1593    -0.0026
     30  N30       18.5410   22.3240   55.0800 N.3   1593  X4Z1593    -0.2686
     31  C31       23.5110   25.0320   54.4540 C.ar  1593  X4Z1593    -0.0003
     32  C32       24.5600   23.2830   55.8850 C.ar  1593  X4Z1593    -0.0003
     33  C33       24.6680   24.3690   54.9600 C.ar  1593  X4Z1593    -0.0000
     34  C34       17.8770   21.8210   56.2950 C.3   1593  X4Z1593     0.0897
     35  C35       18.0550   21.5200   53.9370 C.3   1593  X4Z1593     0.0897
@<TRIPOS>BOND
     1    35    30    1
     2    31    28   ar
     3    31    33   ar
     4    28    26   ar
     5    33    32   ar
     6    27    30    1
     7    27    21    1
     8    30    34    1
     9    26    21    1
    10    26    29   ar
    11    32    29   ar
    12    21    16    1
    13    16    13   am
    14    25    20    1
    15    13    17    2
    16    13     9   am
    17    22    20    2
    18    22    18    2
    19    20    15    2
    20     9     4    1
    21     9     5    1
    22     4     1    2
    23    18    23    1
    24    18    14    1
    25    15    12    2
    26    23    24    2
    27    12    14    1
    28    12     7    1
    29    14    19    1
    30     5    10    1
    31     5    11    1
    32     5     2    1
    33     1     2    1
    34     1     3    1
    35    24    19    1
    36     7     3    1
    37     2     6    2
    38     3     8    2
    39     6     8    1
