@<TRIPOS>MOLECULE
2x50_NDP_A_1.pdb
 48 52 0 0 0
SMALL
GASTEIGER

@<TRIPOS>ATOM
      1  PA        -2.9080   20.1060   -8.1300 P.3   1488  NDP1488     0.2189
      2  O1A       -1.9680   21.2860   -7.5130 O.3   1488  NDP1488    -0.4371
      3  O2A       -4.3000   20.5680   -8.3510 O.2   1488  NDP1488    -0.5170
      4  O5B       -2.2230   19.5880   -9.4760 O.3   1488  NDP1488    -0.3112
      5  C5B       -2.5180   18.2780   -9.9600 C.3   1488  NDP1488     0.1813
      6  C4B       -1.7620   17.9760  -11.2670 C.3   1488  NDP1488     0.1820
      7  O4B       -2.1280   16.6510  -11.7580 O.3   1488  NDP1488    -0.3136
      8  C3B       -2.2110   18.9920  -12.3190 C.3   1488  NDP1488     0.2157
      9  O3B       -1.1020   19.3580  -13.1520 O.3   1488  NDP1488    -0.2175
     10  C2B       -3.2530   18.2370  -13.1210 C.3   1488  NDP1488     0.2314
     11  O2B       -3.1660   18.6810  -14.4600 O.3   1488  NDP1488    -0.2630
     12  C1B       -2.7910   16.7850  -13.0390 C.3   1488  NDP1488     0.3158
     13  N9A       -3.9220   15.8250  -13.0050 N.pl3 1488  NDP1488    -0.1439
     14  C8A       -5.1170   16.0270  -12.4450 C.3   1488  NDP1488     0.3377
     15  N7A       -5.8700   14.9380  -12.6020 N.2   1488  NDP1488    -0.2095
     16  C5A       -5.1530   14.0350  -13.2640 C.2   1488  NDP1488     0.2526
     17  C6A       -5.4040   12.7390  -13.7060 C.2   1488  NDP1488     0.4393
     18  N6A       -6.5820   12.1710  -13.4770 N.pl3 1488  NDP1488     0.2180
     19  N1A       -4.4420   12.0690  -14.3660 N.2   1488  NDP1488     0.0021
     20  C2A       -3.2620   12.6360  -14.5980 C.3   1488  NDP1488     0.5254
     21  N3A       -2.9870   13.8720  -14.1860 N.2   1488  NDP1488    -0.0055
     22  C4A       -3.9100   14.5960  -13.5180 C.2   1488  NDP1488     0.3518
     23  O3        -2.8410   18.8630   -7.0770 O.3   1488  NDP1488    -0.2703
     24  PN        -1.5250   18.5440   -6.1780 P.3   1488  NDP1488     0.2189
     25  O1N       -1.7810   17.0630   -5.5630 O.3   1488  NDP1488    -0.4371
     26  O2N       -0.2170   18.6170   -6.8860 O.2   1488  NDP1488    -0.5170
     27  O5D       -1.5900   19.5560   -4.9180 O.3   1488  NDP1488    -0.3112
     28  C5D       -2.8330   19.7510   -4.2290 C.3   1488  NDP1488     0.1813
     29  C4D       -2.8010   21.0050   -3.3600 C.3   1488  NDP1488     0.1799
     30  O4D       -1.6540   20.9420   -2.5000 O.3   1488  NDP1488    -0.3327
     31  C3D       -2.5370   22.2250   -4.2310 C.3   1488  NDP1488     0.2158
     32  O3D       -3.7740   22.7490   -4.7280 O.3   1488  NDP1488    -0.2175
     33  C2D       -1.9240   23.2000   -3.2370 C.3   1488  NDP1488     0.2309
     34  O2D       -2.9480   24.0190   -2.6650 O.3   1488  NDP1488    -0.2158
     35  C1D       -1.3170   22.3060   -2.1450 C.3   1488  NDP1488     0.2263
     36  N1N        0.1580   22.4700   -2.1590 N.pl3 1488  NDP1488    -0.2787
     37  C2N        0.7260   23.7420   -2.0070 C.3   1488  NDP1488     0.1244
     38  C3N        2.1090   23.8990   -2.0240 C.2   1488  NDP1488     0.0544
     39  C7N        2.7170   25.2960   -1.8620 C.2   1488  NDP1488     0.2818
     40  O7N        3.9380   25.4510   -1.8730 O.2   1488  NDP1488    -0.2670
     41  N7N        1.8420   26.2910   -1.7110 N.am  1488  NDP1488    -0.0839
     42  C4N        3.0490   22.6940   -2.2060 C.2   1488  NDP1488     0.0033
     43  C5N        2.3810   21.4760   -2.3460 C.2   1488  NDP1488     0.0157
     44  C6N        0.9920   21.3540   -2.3240 C.2   1488  NDP1488     0.0633
     45  P2B       -4.4010   19.4040  -15.1850 P.3   1488  NDP1488     0.5328
     46  O1X       -5.5710   19.5900  -14.0670 O.3   1488  NDP1488    -0.1145
     47  O2X       -3.8420   20.9120  -15.4730 O.3   1488  NDP1488    -0.1145
     48  O3X       -4.8270   18.6700  -16.4110 O.2   1488  NDP1488    -0.2224
@<TRIPOS>BOND
     1    48    45    2
     2    47    45    1
     3    45    11    1
     4    45    46    1
     5    20    19    1
     6    20    21    1
     7    11    10    1
     8    19    17    2
     9    21    22    2
    10    17    18    1
    11    17    16    1
    12    22    16    1
    13    22    13    1
    14    16    15    2
    15     9     8    1
    16    10    12    1
    17    10     8    1
    18    12    13    1
    19    12     7    1
    20    13    14    1
    21    15    14    1
    22     8     6    1
    23     7     6    1
    24     6     5    1
    25     5     4    1
    26     4     1    1
    27     3     1    2
    28     1     2    1
    29     1    23    1
    30    23    24    1
    31    26    24    2
    32    24    25    1
    33    24    27    1
    34    27    28    1
    35    32    31    1
    36    31    29    1
    37    31    33    1
    38    28    29    1
    39    29    30    1
    40    33    34    1
    41    33    35    1
    42    30    35    1
    43    43    44    2
    44    43    42    1
    45    44    36    1
    46    42    38    2
    47    36    35    1
    48    36    37    1
    49    38    37    1
    50    38    39    1
    51    40    39    2
    52    39    41   am
