@<TRIPOS>MOLECULE
2x52_GYT_A_1.pdb
 49 50 0 0 0
SMALL
GASTEIGER

@<TRIPOS>ATOM
      1  CBV       32.5940   37.5340    4.8570 C.3   1172  GYT1172     0.0964
      2  CBU       34.1040   37.3560    5.0060 C.2   1172  GYT1172     0.2421
      3  OBW       34.7990   37.0300    4.0510 O.2   1172  GYT1172    -0.2733
      4  NBT       34.5780   37.5800    6.2280 N.am  1172  GYT1172    -0.1979
      5  CBS       36.0030   37.4530    6.5430 C.3   1172  GYT1172     0.1980
      6  CBQ       36.1610   36.3820    7.6170 C.3   1172  GYT1172     0.2107
      7  OBR       35.8300   35.1030    7.0920 O.3   1172  GYT1172    -0.2182
      8  CBO       37.5900   36.3630    8.1470 C.3   1172  GYT1172     0.2137
      9  OBP       37.6610   35.4740    9.2560 O.3   1172  GYT1172    -0.2176
     10  CBL       38.0280   37.7680    8.5660 C.3   1172  GYT1172     0.1845
     11  CBM       39.4780   37.7500    9.0400 C.3   1172  GYT1172     0.2142
     12  OBN       40.3280   37.3160    7.9800 O.3   1172  GYT1172    -0.2176
     13  OBK       37.8950   38.6700    7.4610 O.3   1172  GYT1172    -0.3162
     14  CBJ       36.5240   38.7930    7.0640 C.3   1172  GYT1172     0.3148
     15  OBI       35.7560   39.0500    8.2250 O.3   1172  GYT1172    -0.4073
     16  CAA       35.6240   40.3700    8.4920 C.2   1172  GYT1172     0.4230
     17  OAB       36.1500   41.1950    7.7490 O.2   1172  GYT1172    -0.2245
     18  NAC       34.9150   40.6910    9.5680 N.am  1172  GYT1172    -0.1686
     19  CAD       34.6260   42.0720    9.9530 C.3   1172  GYT1172     0.1212
     20  CAE       34.4090   42.1160   11.4620 C.3   1172  GYT1172     0.0556
     21  CAF       33.0800   41.4630   11.8610 C.3   1172  GYT1172     0.1441
     22  OAG       33.1730   41.0600   13.2340 O.3   1172  GYT1172    -0.3510
     23  CAH       31.8710   40.9180   13.8070 C.3   1172  GYT1172     0.1741
     24  CAI       31.4840   42.1700   14.5640 C.3   1172  GYT1172     0.1742
     25  OAJ       30.1050   42.1000   14.9220 O.3   1172  GYT1172    -0.3484
     26  CAK       29.6900   43.3300   15.5190 C.3   1172  GYT1172     0.1742
     27  CAL       28.8470   44.1460   14.5530 C.3   1172  GYT1172     0.1741
     28  OAM       27.5760   43.5190   14.3230 O.3   1172  GYT1172    -0.3510
     29  CAN       27.3860   43.3310   12.9190 C.3   1172  GYT1172     0.1441
     30  CAO       26.6840   44.5420   12.3030 C.3   1172  GYT1172     0.0556
     31  CAP       25.2520   44.1950   11.8950 C.3   1172  GYT1172     0.1212
     32  NAQ       25.2500   42.9450   11.1240 N.am  1172  GYT1172    -0.1686
     33  CAR       24.4400   42.0560   11.6930 C.2   1172  GYT1172     0.4230
     34  OAS       23.9620   42.1680   12.7990 O.2   1172  GYT1172    -0.2245
     35  O1        24.2550   40.9820   10.7700 O.3   1172  GYT1172    -0.4073
     36  C1        23.3990   39.9810   11.2970 C.3   1172  GYT1172     0.3148
     37  O5        22.0220   40.3270   11.0810 O.3   1172  GYT1172    -0.3162
     38  C5        21.7190   40.5130    9.6950 C.3   1172  GYT1172     0.1845
     39  C6        20.2590   40.9450    9.5450 C.3   1172  GYT1172     0.2142
     40  O6        20.0800   42.2270   10.1440 O.3   1172  GYT1172    -0.2176
     41  C4        22.0070   39.2390    8.8980 C.3   1172  GYT1172     0.2137
     42  O4        21.7430   39.4590    7.5120 O.3   1172  GYT1172    -0.2176
     43  C3        23.4660   38.8340    9.0860 C.3   1172  GYT1172     0.2107
     44  O3        23.7380   37.6040    8.4170 O.3   1172  GYT1172    -0.2182
     45  C2        23.7620   38.6930   10.5690 C.3   1172  GYT1172     0.1980
     46  N2        25.1920   38.4330   10.7440 N.am  1172  GYT1172    -0.1979
     47  CAX       25.3790   37.6480   11.8010 C.2   1172  GYT1172     0.2421
     48  CAZ       26.8740   37.3830   11.9740 C.3   1172  GYT1172     0.0964
     49  OAY       24.4840   37.2190   12.5080 O.2   1172  GYT1172    -0.2733
@<TRIPOS>BOND
     1     3     2    2
     2     1     2    1
     3     2     4   am
     4     4     5    1
     5     5    14    1
     6     5     6    1
     7    14    13    1
     8    14    15    1
     9     7     6    1
    10    13    10    1
    11    42    41    1
    12     6     8    1
    13    17    16    2
    14    12    11    1
    15     8    10    1
    16     8     9    1
    17    15    16    1
    18    44    43    1
    19    16    18   am
    20    10    11    1
    21    41    43    1
    22    41    38    1
    23    43    45    1
    24    39    38    1
    25    39    40    1
    26    18    19    1
    27    38    37    1
    28    19    20    1
    29    45    46    1
    30    45    36    1
    31    46    47   am
    32    35    36    1
    33    35    33    1
    34    37    36    1
    35    32    33   am
    36    32    31    1
    37    20    21    1
    38    33    34    2
    39    47    48    1
    40    47    49    2
    41    21    22    1
    42    31    30    1
    43    30    29    1
    44    29    28    1
    45    22    23    1
    46    23    24    1
    47    28    27    1
    48    27    26    1
    49    24    25    1
    50    25    26    1
