@<TRIPOS>MOLECULE
2x55_C8E_A_14.pdb
 12 11 0 0 0
SMALL
GASTEIGER

@<TRIPOS>ATOM
      1  C1       -23.8750   59.8720   -9.0450 C.3   1310  C8E1310     0.0000
      2  C2       -23.6310   58.3770   -8.8800 C.3   1310  C8E1310     0.0000
      3  C3       -22.5180   57.8890   -9.7980 C.3   1310  C8E1310     0.0000
      4  C4       -21.5060   57.0540   -9.0240 C.3   1310  C8E1310     0.0000
      5  C5       -20.0820   57.5100   -9.3190 C.3   1310  C8E1310     0.0001
      6  C6       -19.0870   56.8570   -8.3680 C.3   1310  C8E1310     0.0026
      7  C7       -17.8840   56.3210   -9.1370 C.3   1310  C8E1310     0.0321
      8  C8       -16.7300   57.3170   -9.1400 C.3   1310  C8E1310     0.1423
      9  O9       -15.5280   56.6250   -8.8750 O.3   1310  C8E1310    -0.3510
     10  C10      -14.4690   56.9760   -9.7380 C.3   1310  C8E1310     0.1776
     11  C11      -13.1880   56.3390   -9.2070 C.3   1310  C8E1310     0.2140
     12  O12      -12.0590   56.9210   -9.8180 O.3   1310  C8E1310    -0.2176
@<TRIPOS>BOND
     1    12    11    1
     2     3     4    1
     3     3     2    1
     4    10    11    1
     5    10     9    1
     6     5     4    1
     7     5     6    1
     8     8     7    1
     9     8     9    1
    10     7     6    1
    11     1     2    1
