@<TRIPOS>MOLECULE
2x56_C8E_A_11.pdb
 13 12 0 0 0
SMALL
GASTEIGER

@<TRIPOS>ATOM
      1  C1       -41.7230   63.1360    7.7320 C.3   1306  C8E1306     0.0000
      2  C2       -40.3230   62.5600    7.9150 C.3   1306  C8E1306     0.0000
      3  C3       -39.4300   63.4830    8.7380 C.3   1306  C8E1306     0.0000
      4  C4       -37.9920   62.9720    8.7870 C.3   1306  C8E1306     0.0000
      5  C5       -36.9930   64.1200    8.6340 C.3   1306  C8E1306     0.0001
      6  C6       -36.0530   63.9450    7.4430 C.3   1306  C8E1306     0.0026
      7  C7       -34.8710   63.0440    7.7920 C.3   1306  C8E1306     0.0321
      8  C8       -33.7800   63.1310    6.7350 C.3   1306  C8E1306     0.1423
      9  O9       -33.7370   64.4510    6.2360 O.3   1306  C8E1306    -0.3511
     10  C10      -32.4220   64.9230    6.0190 C.3   1306  C8E1306     0.1741
     11  C11      -32.4480   66.0670    5.0050 C.3   1306  C8E1306     0.1742
     12  O12      -31.1330   66.4220    4.6350 O.3   1306  C8E1306    -0.3484
     13  C13      -30.8220   66.0020    3.3250 C.3   1306  C8E1306     0.1742
@<TRIPOS>BOND
     1    13    12    1
     2    12    11    1
     3    11    10    1
     4    10     9    1
     5     9     8    1
     6     8     7    1
     7     6     7    1
     8     6     5    1
     9     1     2    1
    10     2     3    1
    11     5     4    1
    12     3     4    1
