@<TRIPOS>MOLECULE
2x5d_LLP_A_1.pdb
 24 24 0 0 0
SMALL
GASTEIGER

@<TRIPOS>ATOM
      1  N1        14.8470   -3.4280   15.7800 N.2   1400  LLP1400    -0.2670
      2  C2        13.9280   -4.0920   14.9630 C.2   1400  LLP1400     0.0929
      3  C2'       14.3460   -5.0930   13.9340 C.3   1400  LLP1400     0.0551
      4  C3        12.5910   -3.8390   15.0930 C.2   1400  LLP1400     0.2055
      5  O3        11.7690   -4.4340   14.3650 O.2   1400  LLP1400    -0.2856
      6  C4        12.1360   -2.9100   16.0260 C.2   1400  LLP1400     0.0317
      7  C4'       10.6640   -2.6620   16.1440 C.3   1400  LLP1400     0.1177
      8  C5        13.0310   -2.2310   16.8380 C.2   1400  LLP1400     0.0103
      9  C6        14.4030   -2.4940   16.7110 C.3   1400  LLP1400     0.1496
     10  C5'       12.5320   -1.2220   17.8370 C.3   1400  LLP1400     0.1777
     11  OP4       13.3230   -1.0360   19.0360 O.3   1400  LLP1400    -0.2656
     12  P         14.1370    0.3090   19.3250 P.3   1400  LLP1400     0.5329
     13  OP1       13.1490    1.1840   19.9790 O.3   1400  LLP1400    -0.1145
     14  OP2       14.6630    0.8390   18.0410 O.2   1400  LLP1400    -0.2224
     15  OP3       15.2200   -0.1850   20.1820 O.3   1400  LLP1400    -0.1145
     16  N          6.5420   -7.0910   14.6500 N.3   1400  LLP1400    -0.1245
     17  CA         6.3500   -7.4880   16.0490 C.3   1400  LLP1400     0.1561
     18  CB         5.8590   -6.2920   16.8730 C.3   1400  LLP1400     0.0271
     19  CG         6.4630   -4.9340   16.5080 C.3   1400  LLP1400     0.0034
     20  CD         7.9630   -4.9210   16.6870 C.3   1400  LLP1400     0.0189
     21  CE         8.5560   -3.5890   16.2860 C.3   1400  LLP1400     0.0891
     22  NZ         9.9870   -3.8100   16.0310 N.3   1400  LLP1400    -0.2132
     23  C          5.3330   -8.6270   16.2020 C.2   1400  LLP1400     0.2260
     24  O          5.5470   -9.6100   16.9260 O.2   1400  LLP1400    -0.2867
@<TRIPOS>BOND
     1     3     2    1
     2     5     4    2
     3    16    17    1
     4     2     4    1
     5     2     1    2
     6     4     6    1
     7     1     9    1
     8     6     7    1
     9     6     8    2
    10    22     7    1
    11    22    21    1
    12    17    23    1
    13    17    18    1
    14    23    24    2
    15    21    20    1
    16    19    20    1
    17    19    18    1
    18     9     8    1
    19     8    10    1
    20    10    11    1
    21    14    12    2
    22    11    12    1
    23    12    13    1
    24    12    15    1
