@<TRIPOS>MOLECULE
2x5d_PLP_D_1.pdb
 16 16 0 0 0
SMALL
GASTEIGER

@<TRIPOS>ATOM
      1  N1        21.6480    0.1980  -12.0970 N.ar  1400  PLP1400    -0.2452
      2  C2        21.3900    0.2120  -13.4560 C.ar  1400  PLP1400     0.0982
      3  C2A       22.2270    1.0670  -14.3610 C.3   1400  PLP1400     0.0555
      4  C3        20.3500   -0.5630  -13.9800 C.ar  1400  PLP1400     0.2120
      5  O3        20.0870   -0.5430  -15.3280 O.3   1400  PLP1400    -0.2852
      6  C4        19.5730   -1.3520  -13.1290 C.ar  1400  PLP1400     0.0822
      7  C4A       18.2950   -1.9600  -13.6330 C.2   1400  PLP1400     0.2372
      8  O4A       17.6290   -1.3590  -14.4670 O.2   1400  PLP1400    -0.2830
      9  C5        19.8450   -1.3600  -11.7610 C.ar  1400  PLP1400     0.0333
     10  C6        20.8880   -0.5840  -11.2520 C.ar  1400  PLP1400     0.0969
     11  C5A       19.0180   -2.2140  -10.8320 C.3   1400  PLP1400     0.1819
     12  O4P       19.1840   -1.7670   -9.5100 O.3   1400  PLP1400    -0.2653
     13  P         18.7610   -2.7290   -8.3250 P.3   1400  PLP1400     0.5329
     14  O1P       20.0140   -3.3020   -7.7190 O.3   1400  PLP1400    -0.1145
     15  O2P       17.9530   -3.8710   -8.8490 O.2   1400  PLP1400    -0.2224
     16  O3P       18.0380   -1.9330   -7.2900 O.3   1400  PLP1400    -0.1145
@<TRIPOS>BOND
     1     5     4    1
     2     8     7    2
     3     3     2    1
     4     4     2   ar
     5     4     6   ar
     6     7     6    1
     7     2     1   ar
     8     6     9   ar
     9     1    10   ar
    10     9    10   ar
    11     9    11    1
    12    11    12    1
    13    12    13    1
    14    15    13    2
    15    13    14    1
    16    13    16    1
