@<TRIPOS>MOLECULE
2x5f_PLP_A_1.pdb
 15 15 0 0 0
SMALL
GASTEIGER

@<TRIPOS>ATOM
      1  N1        11.7600   52.6190  -10.1940 N.2   1429  PLP1429    -0.2505
      2  C2        10.6580   52.8520  -10.9840 C.2   1429  PLP1429     0.0675
      3  C2A        9.3190   53.0750  -10.3470 C.3   1429  PLP1429     0.0499
      4  C3        10.8080   52.9130  -12.3730 C.3   1429  PLP1429     0.1913
      5  O3         9.7500   53.1420  -13.1940 O.3   1429  PLP1429    -0.2167
      6  C4        12.0370   52.6870  -12.9550 C.3   1429  PLP1429     0.0581
      7  C4A       12.0390   52.1220  -14.3550 C.3   1429  PLP1429     0.0075
      8  C5        13.1380   52.4480  -12.1410 C.2   1429  PLP1429     0.0073
      9  C6        12.9990   52.4120  -10.7500 C.2   1429  PLP1429     0.0921
     10  C5A       14.4610   52.2080  -12.8190 C.3   1429  PLP1429     0.1776
     11  O4P       15.5420   52.7240  -12.1250 O.3   1429  PLP1429    -0.2656
     12  P         17.0220   52.5050  -12.6460 P.3   1429  PLP1429     0.5329
     13  O1P       17.8350   53.6790  -12.1810 O.3   1429  PLP1429    -0.1145
     14  O2P       17.6060   51.2170  -12.0740 O.3   1429  PLP1429    -0.1145
     15  O3P       17.1010   52.3750  -14.1560 O.2   1429  PLP1429    -0.2224
@<TRIPOS>BOND
     1     7     6    1
     2    15    12    2
     3     5     4    1
     4     6     4    1
     5     6     8    1
     6    10     8    1
     7    10    11    1
     8    12    13    1
     9    12    11    1
    10    12    14    1
    11     4     2    1
    12     8     9    2
    13     2     3    1
    14     2     1    2
    15     9     1    1
