@<TRIPOS>MOLECULE
2x5l_HEM_A_1.pdb
 43 50 0 0 0
SMALL
GASTEIGER

@<TRIPOS>ATOM
      1  CHA       33.1370   -0.0830   49.8680 C.2   1434  HEM1434     0.0000
      2  CHB       29.4450    3.1410   49.5370 C.2   1434  HEM1434     0.0000
      3  CHC       30.9690    4.3740   44.9890 C.2   1434  HEM1434     0.0000
      4  CHD       34.3260    0.8640   45.2150 C.2   1434  HEM1434     0.0000
      5  C1A       32.0670    0.7310   50.1920 C.2   1434  HEM1434     0.0000
      6  C2A       31.3050    0.7620   51.4280 C.2   1434  HEM1434     0.0000
      7  C3A       30.2780    1.5970   51.3350 C.2   1434  HEM1434     0.0000
      8  C4A       30.3360    2.2130   50.0120 C.2   1434  HEM1434     0.0000
      9  CMA       29.2000    1.9180   52.3920 C.3   1434  HEM1434     0.0000
     10  CAA       31.7080   -0.1350   52.6320 C.3   1434  HEM1434     0.0000
     11  CBA       32.3950    0.8110   53.6200 C.3   1434  HEM1434     0.0000
     12  CGA       32.6420    0.1160   54.9510 C.2   1434  HEM1434     0.0000
     13  O1A       32.3230   -1.0670   55.1890 O.co2 1434  HEM1434     0.0000
     14  O2A       33.1810    0.8720   55.8390 O.co2 1434  HEM1434     0.0000
     15  C1B       29.5590    3.7530   48.2640 C.ar  1434  HEM1434     0.0000
     16  C2B       28.7020    4.8200   47.7790 C.ar  1434  HEM1434     0.0000
     17  C3B       29.0950    5.1500   46.5300 C.ar  1434  HEM1434     0.0000
     18  C4B       30.2140    4.2990   46.1530 C.ar  1434  HEM1434     0.0000
     19  CMB       27.5360    5.3570   48.6310 C.3   1434  HEM1434     0.0000
     20  CAB       28.5210    6.1980   45.5860 C.2   1434  HEM1434     0.0000
     21  CBB       27.9850    7.3410   45.9600 C.2   1434  HEM1434     0.0000
     22  C1C       32.0400    3.5540   44.7170 C.2   1434  HEM1434     0.0000
     23  C2C       32.7230    3.5480   43.4280 C.2   1434  HEM1434     0.0000
     24  C3C       33.6200    2.5340   43.4600 C.2   1434  HEM1434     0.0000
     25  C4C       33.5430    1.9130   44.7810 C.2   1434  HEM1434     0.0000
     26  CMC       32.4250    4.5630   42.3070 C.3   1434  HEM1434     0.0000
     27  CAC       34.6280    2.0880   42.4370 C.2   1434  HEM1434     0.0000
     28  CBC       34.4750    2.2870   41.1280 C.2   1434  HEM1434     0.0000
     29  C1D       34.2700    0.2760   46.4570 C.ar  1434  HEM1434     0.0000
     30  C2D       35.1690   -0.7710   46.8960 C.ar  1434  HEM1434     0.0000
     31  C3D       34.7810   -1.0990   48.3100 C.ar  1434  HEM1434     0.0000
     32  C4D       33.7410   -0.1400   48.6300 C.ar  1434  HEM1434     0.0000
     33  CMD       36.1730   -1.4790   46.0200 C.3   1434  HEM1434     0.0000
     34  CAD       35.4110   -2.1230   49.2630 C.3   1434  HEM1434     0.0000
     35  CBD       36.4930   -1.4460   50.1360 C.3   1434  HEM1434     0.0000
     36  CGD       37.0730   -2.4230   51.1020 C.2   1434  HEM1434     0.0000
     37  O1D       36.3140   -3.4050   51.4800 O.co2 1434  HEM1434     0.0000
     38  O2D       38.2650   -2.2310   51.4960 O.co2 1434  HEM1434     0.0000
     39  NA        31.4510    1.6450   49.3210 N.2   1434  HEM1434     0.0000
     40  NB        30.4730    3.4530   47.2670 N.ar  1434  HEM1434     0.0000
     41  NC        32.5900    2.5220   45.5110 N.2   1434  HEM1434     0.0000
     42  ND        33.4470    0.6480   47.5260 N.ar  1434  HEM1434     0.0000
     43 FE         32.1150    2.2300   47.4820 Fe    1434  HEM1434     0.0000
@<TRIPOS>BOND
     1    28    27    2
     2    26    23    1
     3    27    24    1
     4    23    24    2
     5    23    22    1
     6    24    25    1
     7    22     3    2
     8    22    41    1
     9    25     4    1
    10    25    41    2
    11     3    18    1
    12     4    29    2
    13    41    43    1
    14    20    21    2
    15    20    17    1
    16    33    30    1
    17    18    17   ar
    18    18    40   ar
    19    29    30   ar
    20    29    42   ar
    21    17    16   ar
    22    30    31   ar
    23    40    43    1
    24    40    15   ar
    25    43    42    1
    26    43    39    1
    27    42    32   ar
    28    16    15   ar
    29    16    19    1
    30    15     2    1
    31    31    32   ar
    32    31    34    1
    33    32     1    2
    34    34    35    1
    35    39     8    1
    36    39     5    2
    37     2     8    2
    38     1     5    1
    39     8     7    1
    40    35    36    1
    41     5     6    1
    42    36    37   ar
    43    36    38   ar
    44     7     6    2
    45     7     9    1
    46     6    10    1
    47    10    11    1
    48    11    12    1
    49    12    13   ar
    50    12    14   ar
