@<TRIPOS>MOLECULE
2x5o_VSV_A_1.pdb
 34 36 0 0 0
SMALL
GASTEIGER

@<TRIPOS>ATOM
      1  OE1       -5.2560   32.2760   20.3570 O.co2 500  VSV500     -0.2457
      2  CD        -5.1380   31.4770   21.3430 C.2   500  VSV500      0.3649
      3  OE2       -4.2400   31.5580   22.2100 O.co2 500  VSV500     -0.2457
      4  CG        -6.1220   30.4400   21.6740 C.3   500  VSV500      0.1164
      5  CB        -7.0320   30.2010   20.5310 C.3   500  VSV500      0.0451
      6  C         -7.4690   27.7330   20.9710 C.2   500  VSV500      0.3842
      7  OXT       -7.3780   27.0000   19.9660 O.co2 500  VSV500     -0.2437
      8  O         -7.2160   27.2660   22.1080 O.co2 500  VSV500     -0.2437
      9  N         -9.1420   29.2310   20.0480 N.am  500  VSV500     -0.1918
     10  CAU      -10.3900   28.6220   20.4100 C.2   500  VSV500      0.2652
     11  OBC      -10.4880   27.7830   21.3110 O.2   500  VSV500     -0.2684
     12  CAT      -11.4820   29.0280   19.4990 C.ar  500  VSV500      0.0548
     13  CAQ      -11.4510   30.3290   18.9490 C.ar  500  VSV500      0.0020
     14  CAS      -12.5580   28.1810   19.2840 C.ar  500  VSV500      0.0045
     15  CAR      -13.6150   28.6070   18.5120 C.ar  500  VSV500     -0.0001
     16  CAP      -13.6080   29.8530   17.9540 C.ar  500  VSV500     -0.0026
     17  CAO      -12.5530   30.7260   18.1630 C.ar  500  VSV500     -0.0005
     18  CAN      -12.5560   32.0470   17.4000 C.3   500  VSV500      0.1385
     19  NAY      -13.7920   32.6660   17.3600 N.pl3 500  VSV500     -0.2328
     20  CAA      -14.4480   33.1070   18.4730 C.ar  500  VSV500      0.0657
     21  CAC      -13.9230   32.9450   19.7650 C.ar  500  VSV500      0.0161
     22  CAE      -14.6430   33.2930   20.9030 C.ar  500  VSV500      0.0014
     23  CAB      -15.7120   33.7040   18.3310 C.ar  500  VSV500      0.0161
     24  CAG      -16.4430   34.0720   19.4680 C.ar  500  VSV500      0.0014
     25  CAF      -15.9330   33.8370   20.7430 C.ar  500  VSV500      0.0014
     26  CAH      -16.6900   34.1480   22.0080 C.2   500  VSV500      0.0200
     27  CAI      -18.0230   34.3970   22.2250 C.2   500  VSV500      0.1364
     28  SBG      -19.3050   34.5130   21.0350 S.3   500  VSV500      0.0317
     29  CAL      -20.4640   34.8440   22.2920 C.1   500  VSV500      0.2492
     30  NAX      -20.0110   34.7720   23.6050 N.2   500  VSV500     -0.2516
     31  CAK      -18.6290   34.5130   23.5390 C.1   500  VSV500      0.2223
     32  OBE      -17.9270   34.5010   24.5410 O.2   500  VSV500     -0.2080
     33  CA        -8.0570   29.1470   20.9980 C.3   500  VSV500      0.1986
     34  OBH      -21.6530   35.0060   22.0820 O.2   500  VSV500     -0.2014
@<TRIPOS>BOND
     1    19    18    1
     2    19    20    1
     3    18    17    1
     4    16    17   ar
     5    16    15   ar
     6    17    13   ar
     7    23    20   ar
     8    23    24   ar
     9    20    21   ar
    10    15    14   ar
    11    13    12   ar
    12    14    12   ar
    13    24    25   ar
    14    12    10    1
    15    21    22   ar
    16     7     6   ar
    17     9    10   am
    18     9    33    1
    19     1     2   ar
    20    10    11    2
    21     5    33    1
    22     5     4    1
    23    25    22   ar
    24    25    26    1
    25     6    33    1
    26     6     8   ar
    27    28    27    1
    28    28    29    1
    29     2     4    1
    30     2     3   ar
    31    26    27    2
    32    34    29    2
    33    27    31    1
    34    29    30    2
    35    31    30    2
    36    31    32    2
