@<TRIPOS>MOLECULE
2x5u_MQ7_M_1.pdb
 48 49 0 0 0
SMALL
GASTEIGER

@<TRIPOS>ATOM
      1  C1        22.6010   29.9880   21.5950 C.2   1328  MQ71328     0.1915
      2  O1        23.7560   30.4590   21.6160 O.2   1328  MQ71328    -0.2869
      3  C2        21.9530   29.5250   22.8540 C.2   1328  MQ71328     0.0165
      4  C2M       22.7080   29.6330   24.1560 C.3   1328  MQ71328     0.0342
      5  C3        20.5690   28.9650   22.8070 C.2   1328  MQ71328     0.0202
      6  C4        19.8460   28.8710   21.5030 C.2   1328  MQ71328     0.1918
      7  O4        18.6860   28.3990   21.4560 O.2   1328  MQ71328    -0.2869
      8  C5        20.5050   29.3370   20.2480 C.ar  1328  MQ71328     0.0417
      9  C6        19.8560   29.2620   19.0150 C.ar  1328  MQ71328     0.0033
     10  C7        20.4980   29.7090   17.8560 C.ar  1328  MQ71328     0.0001
     11  C8        21.7930   30.2310   17.9030 C.ar  1328  MQ71328     0.0001
     12  C9        22.4840   30.3270   19.1120 C.ar  1328  MQ71328     0.0033
     13  C10       21.8840   29.8960   20.2950 C.ar  1328  MQ71328     0.0417
     14  C11       19.8790   28.4850   24.0700 C.3   1328  MQ71328     0.0547
     15  C12       19.4320   29.6520   24.9350 C.2   1328  MQ71328    -0.0298
     16  C13       18.1480   30.0180   25.1160 C.2   1328  MQ71328    -0.0475
     17  C14       17.0220   29.2830   24.4430 C.3   1328  MQ71328     0.0260
     18  C15       17.8500   31.2030   26.0100 C.3   1328  MQ71328     0.0264
     19  C16       17.1460   30.7820   27.3030 C.3   1328  MQ71328     0.0297
     20  C17       18.0180   29.8700   28.1460 C.2   1328  MQ71328    -0.0342
     21  C18       18.6640   30.2680   29.2600 C.2   1328  MQ71328    -0.0478
     22  C19       18.5760   31.6870   29.7540 C.3   1328  MQ71328     0.0260
     23  C20       19.5110   29.2710   30.0230 C.3   1328  MQ71328     0.0263
     24  C21       18.7240   28.6330   31.1630 C.3   1328  MQ71328     0.0297
     25  C22       18.1520   27.3110   30.7020 C.2   1328  MQ71328    -0.0342
     26  C23       17.1000   26.7020   31.2880 C.2   1328  MQ71328    -0.0478
     27  C24       16.3920   27.3140   32.4670 C.3   1328  MQ71328     0.0260
     28  C25       16.6160   25.3820   30.7220 C.3   1328  MQ71328     0.0263
     29  C26       16.7930   24.2210   31.6970 C.3   1328  MQ71328     0.0297
     30  C27       16.1470   22.9970   31.0880 C.2   1328  MQ71328    -0.0342
     31  C28       16.6980   21.7710   31.1250 C.2   1328  MQ71328    -0.0478
     32  C29       18.0270   21.5340   31.7890 C.3   1328  MQ71328     0.0260
     33  C30       15.9650   20.6180   30.4690 C.3   1328  MQ71328     0.0263
     34  C31       15.1440   19.8030   31.4710 C.3   1328  MQ71328     0.0297
     35  C32       14.7810   18.4660   30.8520 C.2   1328  MQ71328    -0.0342
     36  C33       15.1900   17.2760   31.3360 C.2   1328  MQ71328    -0.0478
     37  C34       16.0460   17.1760   32.5670 C.3   1328  MQ71328     0.0260
     38  C35       14.7700   16.0000   30.6430 C.3   1328  MQ71328     0.0263
     39  C36       15.6460   15.6730   29.4360 C.3   1328  MQ71328     0.0297
     40  C37       14.8330   14.7730   28.5270 C.2   1328  MQ71328    -0.0342
     41  C38       15.1900   13.5390   28.1050 C.2   1328  MQ71328    -0.0478
     42  C39       16.5010   12.9070   28.4930 C.3   1328  MQ71328     0.0260
     43  C40       14.2410   12.7730   27.2050 C.3   1328  MQ71328     0.0263
     44  C41       13.1410   12.0970   28.0230 C.3   1328  MQ71328     0.0297
     45  C42       11.8650   12.9170   27.9910 C.2   1328  MQ71328    -0.0342
     46  C43       11.0650   13.1070   29.0670 C.2   1328  MQ71328    -0.0478
     47  C44        9.8210   13.9400   28.9200 C.3   1328  MQ71328     0.0260
     48  C45       11.3780   12.5090   30.4140 C.3   1328  MQ71328     0.0260
@<TRIPOS>BOND
     1    10    11   ar
     2    10     9   ar
     3    11    12   ar
     4     9     8   ar
     5    12    13   ar
     6     8    13   ar
     7     8     6    1
     8    13     1    1
     9     7     6    2
    10     6     5    1
    11     1     2    2
    12     1     3    1
    13     5     3    2
    14     5    14    1
    15     3     4    1
    16    14    15    1
    17    17    16    1
    18    15    16    2
    19    16    18    1
    20    18    19    1
    21    43    44    1
    22    43    41    1
    23    19    20    1
    24    45    44    1
    25    45    46    2
    26    41    42    1
    27    41    40    2
    28    20    21    2
    29    40    39    1
    30    47    46    1
    31    46    48    1
    32    21    22    1
    33    21    23    1
    34    39    38    1
    35    23    24    1
    36    33    31    1
    37    33    34    1
    38    38    36    1
    39    25    24    1
    40    25    26    2
    41    28    26    1
    42    28    29    1
    43    35    36    2
    44    35    34    1
    45    30    31    2
    46    30    29    1
    47    31    32    1
    48    26    27    1
    49    36    37    1
