@<TRIPOS>MOLECULE
2x5u_HEM_C_1.pdb
 43 50 0 0 0
SMALL
GASTEIGER

@<TRIPOS>ATOM
      1  CHA       56.7340   46.1750   99.7630 C.2   1333  HEM1333     0.0000
      2  CHB       60.2280   42.8180   99.5560 C.2   1333  HEM1333     0.0000
      3  CHC       60.0360   42.8630   94.7100 C.2   1333  HEM1333     0.0000
      4  CHD       56.7910   46.4780   94.8620 C.2   1333  HEM1333     0.0000
      5  C1A       57.7170   45.2850  100.1460 C.2   1333  HEM1333     0.0000
      6  C2A       58.1750   45.0080  101.4980 C.2   1333  HEM1333     0.0000
      7  C3A       59.1370   44.0810  101.4340 C.2   1333  HEM1333     0.0000
      8  C4A       59.3270   43.7370  100.0420 C.2   1333  HEM1333     0.0000
      9  CMA       59.9210   43.4720  102.6190 C.3   1333  HEM1333     0.0000
     10  CAA       57.6480   45.6740  102.7880 C.3   1333  HEM1333     0.0000
     11  CBA       58.5150   46.8940  103.0860 C.3   1333  HEM1333     0.0000
     12  CGA       57.8370   47.7640  104.1010 C.2   1333  HEM1333     0.0000
     13  O1A       56.7630   48.3270  103.7790 O.co2 1333  HEM1333     0.0000
     14  O2A       58.3730   47.8910  105.2300 O.co2 1333  HEM1333     0.0000
     15  C1B       60.4930   42.5460   98.2330 C.ar  1333  HEM1333     0.0000
     16  C2B       61.4940   41.6220   97.7410 C.ar  1333  HEM1333     0.0000
     17  C3B       61.4410   41.6310   96.4030 C.ar  1333  HEM1333     0.0000
     18  C4B       60.4050   42.5620   96.0020 C.ar  1333  HEM1333     0.0000
     19  CMB       62.4420   40.7850   98.6330 C.3   1333  HEM1333     0.0000
     20  CAB       62.3190   40.8040   95.4350 C.2   1333  HEM1333     0.0000
     21  CBB       62.1840   39.4750   95.3510 C.2   1333  HEM1333     0.0000
     22  C1C       59.1900   43.8790   94.3190 C.2   1333  HEM1333     0.0000
     23  C2C       58.9740   44.3360   92.9600 C.2   1333  HEM1333     0.0000
     24  C3C       58.0790   45.3310   92.9950 C.2   1333  HEM1333     0.0000
     25  C4C       57.6910   45.5450   94.3800 C.2   1333  HEM1333     0.0000
     26  CMC       59.6690   43.7560   91.7070 C.3   1333  HEM1333     0.0000
     27  CAC       57.5510   46.1180   91.7770 C.2   1333  HEM1333     0.0000
     28  CBC       56.8440   45.4840   90.8370 C.2   1333  HEM1333     0.0000
     29  C1D       56.3310   46.5820   96.1660 C.ar  1333  HEM1333     0.0000
     30  C2D       55.0360   47.0900   96.5750 C.ar  1333  HEM1333     0.0000
     31  C3D       55.0230   46.9910   98.1110 C.ar  1333  HEM1333     0.0000
     32  C4D       56.3050   46.4360   98.4780 C.ar  1333  HEM1333     0.0000
     33  CMD       53.9090   47.6190   95.6590 C.3   1333  HEM1333     0.0000
     34  CAD       53.8790   47.3950   99.0630 C.3   1333  HEM1333     0.0000
     35  CBD       52.7540   46.3870   98.8750 C.3   1333  HEM1333     0.0000
     36  CGD       51.4740   46.8520   99.5130 C.2   1333  HEM1333     0.0000
     37  O1D       50.6080   45.9710   99.7450 O.co2 1333  HEM1333     0.0000
     38  O2D       51.3080   48.0700   99.7900 O.co2 1333  HEM1333     0.0000
     39  NA        58.4480   44.4900   99.2880 N.2   1333  HEM1333     0.0000
     40  NB        59.8450   43.1000   97.1440 N.ar  1333  HEM1333     0.0000
     41  NC        58.3950   44.6400   95.1550 N.2   1333  HEM1333     0.0000
     42  ND        57.0340   46.2080   97.3130 N.ar  1333  HEM1333     0.0000
     43 FE         58.3950   44.5810   97.2390 Fe    1333  HEM1333     0.0000
@<TRIPOS>BOND
     1    28    27    2
     2    26    23    1
     3    27    24    1
     4    23    24    2
     5    23    22    1
     6    24    25    1
     7    22     3    2
     8    22    41    1
     9    25     4    1
    10    25    41    2
    11     3    18    1
    12     4    29    2
    13    41    43    1
    14    21    20    2
    15    20    17    1
    16    33    30    1
    17    18    17   ar
    18    18    40   ar
    19    29    30   ar
    20    29    42   ar
    21    17    16   ar
    22    30    31   ar
    23    40    43    1
    24    40    15   ar
    25    43    42    1
    26    43    39    1
    27    42    32   ar
    28    16    15   ar
    29    16    19    1
    30    31    32   ar
    31    31    34    1
    32    15     2    1
    33    32     1    2
    34    35    34    1
    35    35    36    1
    36    39     8    1
    37    39     5    2
    38    36    37   ar
    39    36    38   ar
    40     2     8    2
    41     1     5    1
    42     8     7    1
    43     5     6    1
    44     7     6    2
    45     7     9    1
    46     6    10    1
    47    10    11    1
    48    11    12    1
    49    13    12   ar
    50    12    14   ar
