@<TRIPOS>MOLECULE
2x5v_MQ7_M_1.pdb
 48 49 0 0 0
SMALL
GASTEIGER

@<TRIPOS>ATOM
      1  C1        22.6010   30.3340   21.4940 C.2   1328  MQ71328     0.1915
      2  O1        23.7410   30.8390   21.5300 O.2   1328  MQ71328    -0.2869
      3  C2        21.9780   29.8280   22.7450 C.2   1328  MQ71328     0.0165
      4  C2M       22.7200   29.9220   24.0490 C.3   1328  MQ71328     0.0342
      5  C3        20.6180   29.2340   22.7050 C.2   1328  MQ71328     0.0202
      6  C4        19.8890   29.1470   21.4150 C.2   1328  MQ71328     0.1918
      7  O4        18.7510   28.6440   21.3740 O.2   1328  MQ71328    -0.2869
      8  C5        20.5100   29.6540   20.1650 C.ar  1328  MQ71328     0.0417
      9  C6        19.8410   29.5760   18.9490 C.ar  1328  MQ71328     0.0033
     10  C7        20.4380   30.0560   17.7860 C.ar  1328  MQ71328     0.0001
     11  C8        21.7150   30.6160   17.8170 C.ar  1328  MQ71328     0.0001
     12  C9        22.4240   30.7130   19.0130 C.ar  1328  MQ71328     0.0033
     13  C10       21.8670   30.2490   20.2010 C.ar  1328  MQ71328     0.0417
     14  C11       19.9740   28.7150   23.9740 C.3   1328  MQ71328     0.0547
     15  C12       19.4300   29.8640   24.8050 C.2   1328  MQ71328    -0.0298
     16  C13       18.1260   29.9930   25.1360 C.2   1328  MQ71328    -0.0475
     17  C14       17.1020   28.9910   24.6860 C.3   1328  MQ71328     0.0260
     18  C15       17.6830   31.1810   25.9700 C.3   1328  MQ71328     0.0264
     19  C16       17.0030   30.7480   27.2690 C.3   1328  MQ71328     0.0297
     20  C17       17.9480   29.9260   28.1270 C.2   1328  MQ71328    -0.0342
     21  C18       18.4440   30.3580   29.3020 C.2   1328  MQ71328    -0.0478
     22  C19       18.0980   31.7050   29.8590 C.3   1328  MQ71328     0.0260
     23  C20       19.3800   29.4720   30.0910 C.3   1328  MQ71328     0.0263
     24  C21       18.6260   28.7640   31.2140 C.3   1328  MQ71328     0.0297
     25  C22       18.1020   27.4160   30.7550 C.2   1328  MQ71328    -0.0342
     26  C23       17.1330   26.7510   31.4200 C.2   1328  MQ71328    -0.0478
     27  C24       16.5090   27.3330   32.6590 C.3   1328  MQ71328     0.0260
     28  C25       16.6620   25.4090   30.8900 C.3   1328  MQ71328     0.0263
     29  C26       16.6370   24.3340   31.9780 C.3   1328  MQ71328     0.0297
     30  C27       15.9940   23.0860   31.4090 C.2   1328  MQ71328    -0.0342
     31  C28       16.6910   21.9980   31.0330 C.2   1328  MQ71328    -0.0478
     32  C29       18.1850   21.9370   31.1510 C.3   1328  MQ71328     0.0260
     33  C30       15.9430   20.8110   30.4650 C.3   1328  MQ71328     0.0263
     34  C31       15.5800   19.7950   31.5460 C.3   1328  MQ71328     0.0297
     35  C32       15.0980   18.5140   30.8880 C.2   1328  MQ71328    -0.0342
     36  C33       15.2650   17.2980   31.4400 C.2   1328  MQ71328    -0.0478
     37  C34       15.9490   17.1170   32.7630 C.3   1328  MQ71328     0.0260
     38  C35       14.7570   16.0770   30.7190 C.3   1328  MQ71328     0.0263
     39  C36       15.6610   15.7620   29.5350 C.3   1328  MQ71328     0.0297
     40  C37       14.9190   14.8160   28.6220 C.2   1328  MQ71328    -0.0342
     41  C38       15.3270   13.5600   28.3660 C.2   1328  MQ71328    -0.0478
     42  C39       16.5770   12.9830   28.9760 C.3   1328  MQ71328     0.0260
     43  C40       14.4800   12.7110   27.4450 C.3   1328  MQ71328     0.0263
     44  C41       13.3450   12.0840   28.2560 C.3   1328  MQ71328     0.0297
     45  C42       12.0580   12.8860   28.1590 C.2   1328  MQ71328    -0.0342
     46  C43       11.1170   12.8780   29.1320 C.2   1328  MQ71328    -0.0478
     47  C44        9.8670   13.6980   28.9480 C.3   1328  MQ71328     0.0260
     48  C45       11.2800   12.0770   30.3970 C.3   1328  MQ71328     0.0260
@<TRIPOS>BOND
     1    10    11   ar
     2    10     9   ar
     3    11    12   ar
     4     9     8   ar
     5    12    13   ar
     6     8    13   ar
     7     8     6    1
     8    13     1    1
     9     7     6    2
    10     6     5    1
    11     1     2    2
    12     1     3    1
    13     5     3    2
    14     5    14    1
    15     3     4    1
    16    14    15    1
    17    17    16    1
    18    15    16    2
    19    16    18    1
    20    18    19    1
    21    19    20    1
    22    43    44    1
    23    43    41    1
    24    20    21    2
    25    45    44    1
    26    45    46    2
    27    41    40    2
    28    41    42    1
    29    40    39    1
    30    47    46    1
    31    46    48    1
    32    21    22    1
    33    21    23    1
    34    39    38    1
    35    23    24    1
    36    33    31    1
    37    33    34    1
    38    38    36    1
    39    25    24    1
    40    25    26    2
    41    35    36    2
    42    35    34    1
    43    28    26    1
    44    28    29    1
    45    31    32    1
    46    31    30    2
    47    30    29    1
    48    26    27    1
    49    36    37    1
