@<TRIPOS>MOLECULE
2x5v_HEM_C_1.pdb
 43 50 0 0 0
SMALL
GASTEIGER

@<TRIPOS>ATOM
      1  CHA       56.5910   46.2400   99.8460 C.2   1333  HEM1333     0.0000
      2  CHB       60.1830   42.9890   99.6940 C.2   1333  HEM1333     0.0000
      3  CHC       59.9950   43.0030   94.8410 C.2   1333  HEM1333     0.0000
      4  CHD       56.5800   46.4480   94.9470 C.2   1333  HEM1333     0.0000
      5  C1A       57.6130   45.3950  100.2170 C.2   1333  HEM1333     0.0000
      6  C2A       58.1010   45.1870  101.5680 C.2   1333  HEM1333     0.0000
      7  C3A       59.0880   44.2960  101.5250 C.2   1333  HEM1333     0.0000
      8  C4A       59.2640   43.8990  100.1480 C.2   1333  HEM1333     0.0000
      9  CMA       59.8870   43.7930  102.7430 C.3   1333  HEM1333     0.0000
     10  CAA       57.5920   45.8850  102.8470 C.3   1333  HEM1333     0.0000
     11  CBA       58.4350   47.1380  103.0740 C.3   1333  HEM1333     0.0000
     12  CGA       57.9420   47.8270  104.3140 C.2   1333  HEM1333     0.0000
     13  O1A       56.7410   48.1920  104.3360 O.co2 1333  HEM1333     0.0000
     14  O2A       58.7300   48.0050  105.2810 O.co2 1333  HEM1333     0.0000
     15  C1B       60.4410   42.7020   98.3780 C.ar  1333  HEM1333     0.0000
     16  C2B       61.4340   41.7740   97.8950 C.ar  1333  HEM1333     0.0000
     17  C3B       61.3790   41.7740   96.5620 C.ar  1333  HEM1333     0.0000
     18  C4B       60.3460   42.7050   96.1450 C.ar  1333  HEM1333     0.0000
     19  CMB       62.3700   40.9420   98.7910 C.3   1333  HEM1333     0.0000
     20  CAB       62.2530   40.9340   95.6060 C.2   1333  HEM1333     0.0000
     21  CBB       62.5210   39.6550   95.8920 C.2   1333  HEM1333     0.0000
     22  C1C       59.1200   43.9950   94.4380 C.2   1333  HEM1333     0.0000
     23  C2C       58.9420   44.4920   93.0860 C.2   1333  HEM1333     0.0000
     24  C3C       57.9990   45.4360   93.1140 C.2   1333  HEM1333     0.0000
     25  C4C       57.5420   45.5780   94.4820 C.2   1333  HEM1333     0.0000
     26  CMC       59.7070   44.0100   91.8350 C.3   1333  HEM1333     0.0000
     27  CAC       57.4780   46.2440   91.9100 C.2   1333  HEM1333     0.0000
     28  CBC       57.1270   45.6110   90.7860 C.2   1333  HEM1333     0.0000
     29  C1D       56.1790   46.6020   96.2610 C.ar  1333  HEM1333     0.0000
     30  C2D       54.9560   47.2400   96.6750 C.ar  1333  HEM1333     0.0000
     31  C3D       54.9570   47.1860   98.2060 C.ar  1333  HEM1333     0.0000
     32  C4D       56.1730   46.5060   98.5680 C.ar  1333  HEM1333     0.0000
     33  CMD       53.8790   47.8540   95.7570 C.3   1333  HEM1333     0.0000
     34  CAD       53.8480   47.6960   99.1370 C.3   1333  HEM1333     0.0000
     35  CBD       52.8570   46.5370   99.0940 C.3   1333  HEM1333     0.0000
     36  CGD       51.4720   46.8490   99.5800 C.2   1333  HEM1333     0.0000
     37  O1D       50.7080   45.8650   99.7000 O.co2 1333  HEM1333     0.0000
     38  O2D       51.1110   48.0230   99.8380 O.co2 1333  HEM1333     0.0000
     39  NA        58.3520   44.5930   99.3760 N.2   1333  HEM1333     0.0000
     40  NB        59.7930   43.2530   97.2880 N.ar  1333  HEM1333     0.0000
     41  NC        58.2500   44.6890   95.2610 N.2   1333  HEM1333     0.0000
     42  ND        56.8600   46.1840   97.4060 N.ar  1333  HEM1333     0.0000
     43 FE         58.2340   44.6670   97.3590 Fe    1333  HEM1333     0.0000
@<TRIPOS>BOND
     1    28    27    2
     2    26    23    1
     3    27    24    1
     4    23    24    2
     5    23    22    1
     6    24    25    1
     7    22     3    2
     8    22    41    1
     9    25     4    1
    10    25    41    2
    11     3    18    1
    12     4    29    2
    13    41    43    1
    14    20    21    2
    15    20    17    1
    16    33    30    1
    17    18    17   ar
    18    18    40   ar
    19    29    30   ar
    20    29    42   ar
    21    17    16   ar
    22    30    31   ar
    23    40    43    1
    24    40    15   ar
    25    43    42    1
    26    43    39    1
    27    42    32   ar
    28    16    15   ar
    29    16    19    1
    30    31    32   ar
    31    31    34    1
    32    15     2    1
    33    32     1    2
    34    35    34    1
    35    35    36    1
    36    39     8    1
    37    39     5    2
    38    36    37   ar
    39    36    38   ar
    40     2     8    2
    41     1     5    1
    42     8     7    1
    43     5     6    1
    44     7     6    2
    45     7     9    1
    46     6    10    1
    47    10    11    1
    48    11    12    1
    49    12    13   ar
    50    12    14   ar
