@<TRIPOS>MOLECULE
2x5w_K2B_A_1.pdb
 28 31 0 0 0
SMALL
GASTEIGER

@<TRIPOS>ATOM
      1  C1        58.7750   28.4840   76.5720 C.3   1429  K2B1429     0.0118
      2  C2        59.3270   27.8650   77.8630 C.3   1429  K2B1429     0.0694
      3  C3        60.4960   28.6400   78.4490 C.2   1429  K2B1429     0.1725
      4  C4        60.5890   30.0760   78.2130 C.2   1429  K2B1429     0.0289
      5  C5        59.5840   30.7140   77.5020 C.2   1429  K2B1429    -0.0420
      6  C6        59.6160   32.2460   77.4190 C.3   1429  K2B1429     0.0221
      7  C7        59.4790   32.6060   75.8980 C.3   1429  K2B1429     0.0044
      8  C8        58.1530   32.0990   75.3390 C.3   1429  K2B1429     0.0006
      9  C9        58.2170   30.5500   75.3690 C.3   1429  K2B1429     0.0035
     10  C10       58.4120   29.9910   76.8050 C.3   1429  K2B1429     0.0157
     11  C11       56.9950   29.9060   74.6660 C.3   1429  K2B1429     0.0003
     12  C12       56.7460   30.5020   73.2130 C.3   1429  K2B1429     0.0000
     13  C13       56.6140   32.0650   73.2730 C.3   1429  K2B1429     0.0000
     14  C14       57.9250   32.5940   73.8710 C.3   1429  K2B1429     0.0000
     15  C15       57.8690   34.1270   73.6990 C.3   1429  K2B1429     0.0000
     16  C16       57.1690   34.2810   72.3170 C.3   1429  K2B1429     0.0000
     17  C17       56.6570   32.8440   71.9190 C.3   1429  K2B1429     0.0000
     18  C18       55.3390   32.4820   74.0830 C.3   1429  K2B1429     0.0000
     19  C19       57.1480   30.2160   77.6440 C.3   1429  K2B1429     0.0041
     20  C20       55.3940   32.8810   71.0380 C.3   1429  K2B1429     0.0000
     21  C21       55.0190   31.4580   70.5920 C.3   1429  K2B1429     0.0000
     22  C22       55.6190   33.8550   69.8220 C.3   1429  K2B1429     0.0000
     23  C23       54.2810   34.0800   69.0680 C.3   1429  K2B1429     0.0000
     24  C24       54.3790   35.2990   68.1230 C.3   1429  K2B1429     0.0000
     25  C25       53.1470   35.6320   67.2600 C.3   1429  K2B1429     0.0000
     26  C27       52.7760   34.5060   66.2790 C.3   1429  K2B1429     0.0000
     27  C26       53.4600   36.9490   66.4530 C.3   1429  K2B1429     0.0000
     28  O1        61.3380   28.0520   79.1740 O.2   1429  K2B1429    -0.2914
@<TRIPOS>BOND
     1    26    25    1
     2    27    25    1
     3    25    24    1
     4    24    23    1
     5    23    22    1
     6    22    20    1
     7    21    20    1
     8    20    17    1
     9    17    16    1
    10    17    13    1
    11    16    15    1
    12    12    13    1
    13    12    11    1
    14    13    14    1
    15    13    18    1
    16    15    14    1
    17    14     8    1
    18    11     9    1
    19     8     9    1
    20     8     7    1
    21     9    10    1
    22     7     6    1
    23     1    10    1
    24     1     2    1
    25    10     5    1
    26    10    19    1
    27     6     5    1
    28     5     4    2
    29     2     3    1
    30     4     3    1
    31     3    28    2
