@<TRIPOS>MOLECULE
2x5w_HEM_A_1.pdb
 43 50 0 0 0
SMALL
GASTEIGER

@<TRIPOS>ATOM
      1  CHA       52.8710   35.2360   62.3680 C.2   1431  HEM1431     0.0000
      2  CHB       53.1060   39.9990   63.1060 C.2   1431  HEM1431     0.0000
      3  CHC       48.5050   40.0320   64.8160 C.2   1431  HEM1431     0.0000
      4  CHD       48.4420   35.1800   64.3690 C.2   1431  HEM1431     0.0000
      5  C1A       53.3450   36.5120   62.3460 C.ar  1431  HEM1431     0.0000
      6  C2A       54.6660   36.9850   61.9320 C.ar  1431  HEM1431     0.0000
      7  C3A       54.7200   38.3240   62.1720 C.ar  1431  HEM1431     0.0000
      8  C4A       53.4470   38.7110   62.7310 C.ar  1431  HEM1431     0.0000
      9  CMA       55.9090   39.2810   61.9150 C.3   1431  HEM1431     0.0000
     10  CAA       55.7670   36.1140   61.3440 C.3   1431  HEM1431     0.0000
     11  CBA       55.5060   36.1450   59.8260 C.3   1431  HEM1431     0.0000
     12  CGA       56.6950   35.5360   59.0880 C.2   1431  HEM1431     0.0000
     13  O1A       57.5860   34.8880   59.6900 O.co2 1431  HEM1431     0.0000
     14  O2A       56.6800   35.5130   57.8110 O.co2 1431  HEM1431     0.0000
     15  C1B       51.8950   40.4190   63.6090 C.2   1431  HEM1431     0.0000
     16  C2B       51.5480   41.8190   63.8760 C.2   1431  HEM1431     0.0000
     17  C3B       50.2690   41.8000   64.3170 C.2   1431  HEM1431     0.0000
     18  C4B       49.7730   40.4430   64.4000 C.2   1431  HEM1431     0.0000
     19  CMB       52.5330   43.0260   63.6290 C.3   1431  HEM1431     0.0000
     20  CAB       49.3770   42.9820   64.7230 C.3   1431  HEM1431     0.0000
     21  CBB       49.4490   44.2820   64.2570 C.3   1431  HEM1431     0.0000
     22  C1C       48.0800   38.6860   64.8700 C.ar  1431  HEM1431     0.0000
     23  C2C       46.8190   38.1880   65.4690 C.ar  1431  HEM1431     0.0000
     24  C3C       46.8210   36.8300   65.3640 C.ar  1431  HEM1431     0.0000
     25  C4C       48.0200   36.4670   64.6370 C.ar  1431  HEM1431     0.0000
     26  CMC       45.7870   39.1540   66.0750 C.3   1431  HEM1431     0.0000
     27  CAC       45.7740   35.7370   65.6460 C.2   1431  HEM1431     0.0000
     28  CBC       44.7730   35.9080   66.4370 C.2   1431  HEM1431     0.0000
     29  C1D       49.6590   34.7510   63.8730 C.2   1431  HEM1431     0.0000
     30  C2D       50.0080   33.3620   63.6270 C.2   1431  HEM1431     0.0000
     31  C3D       51.3710   33.3720   63.0380 C.2   1431  HEM1431     0.0000
     32  C4D       51.6980   34.7730   62.8580 C.2   1431  HEM1431     0.0000
     33  CMD       49.2260   32.0760   64.0490 C.3   1431  HEM1431     0.0000
     34  CAD       52.2340   32.1340   62.6230 C.3   1431  HEM1431     0.0000
     35  CBD       51.8740   31.8180   61.1430 C.3   1431  HEM1431     0.0000
     36  CGD       52.8360   30.7230   60.7040 C.2   1431  HEM1431     0.0000
     37  O1D       53.9030   30.4820   61.2970 O.co2 1431  HEM1431     0.0000
     38  O2D       52.5300   30.0470   59.6730 O.co2 1431  HEM1431     0.0000
     39  NA        52.5960   37.6250   62.7630 N.ar  1431  HEM1431     0.0000
     40  NB        50.8130   39.6290   63.9670 N.2   1431  HEM1431     0.0000
     41  NC        48.7980   37.6040   64.3860 N.ar  1431  HEM1431     0.0000
     42  ND        50.6610   35.5200   63.3690 N.2   1431  HEM1431     0.0000
     43 FE         50.6050   37.6490   63.3420 Fe    1431  HEM1431     0.0000
@<TRIPOS>BOND
     1    14    12   ar
     2    12    13   ar
     3    12    11    1
     4    38    36   ar
     5    11    10    1
     6    36    35    1
     7    36    37   ar
     8    35    34    1
     9    10     6    1
    10     9     7    1
    11     6     7   ar
    12     6     5   ar
    13     7     8   ar
    14     5     1    2
    15     5    39   ar
    16     1    32    1
    17    34    31    1
    18     8    39   ar
    19     8     2    2
    20    39    43    1
    21    32    31    1
    22    32    42    2
    23    31    30    2
    24     2    15    1
    25    43    42    1
    26    43    40    1
    27    43    41    1
    28    42    29    1
    29    15    16    1
    30    15    40    2
    31    30    29    1
    32    30    33    1
    33    19    16    1
    34    29     4    2
    35    16    17    2
    36    40    18    1
    37    21    20    1
    38    17    18    1
    39    17    20    1
    40     4    25    1
    41    41    25   ar
    42    41    22   ar
    43    18     3    2
    44    25    24   ar
    45     3    22    1
    46    22    23   ar
    47    24    23   ar
    48    24    27    1
    49    23    26    1
    50    27    28    2
