@<TRIPOS>MOLECULE
2x5z_GDD_A_1.pdb
 39 42 0 0 0
SMALL
GASTEIGER

@<TRIPOS>ATOM
      1  N2        18.1020   12.0440    4.1740 N.pl3 601  GDD601     -0.0226
      2  C2        18.1570   10.8580    4.7910 C.1   601  GDD601      0.2531
      3  N1        17.9370    9.7400    4.0770 N.2   601  GDD601     -0.2485
      4  N3        18.4350   10.8100    6.1190 N.2   601  GDD601     -0.3074
      5  C4        18.4670    9.6080    6.7370 C.2   601  GDD601      0.2300
      6  C5        18.2390    8.4450    6.0080 C.2   601  GDD601      0.2182
      7  C6        17.9750    8.5200    4.6630 C.1   601  GDD601      0.2372
      8  O6        17.7380    7.3950    3.9240 O.2   601  GDD601     -0.2069
      9  N7        18.3720    7.4420    6.8590 N.2   601  GDD601     -0.2322
     10  C8        18.6410    7.9220    8.0900 C.3   601  GDD601      0.2246
     11  N9        18.6950    9.2640    8.0080 N.pl3 601  GDD601     -0.2354
     12  C1'       18.9970   10.2090    9.0890 C.3   601  GDD601      0.2293
     13  C2'       18.0750   10.0480   10.2830 C.3   601  GDD601      0.2310
     14  O2'       16.9410   10.9000   10.1180 O.3   601  GDD601     -0.2158
     15  C3'       18.9380   10.4610   11.4490 C.3   601  GDD601      0.2158
     16  O3'       18.7570   11.8650   11.5580 O.3   601  GDD601     -0.2175
     17  C4'       20.3600   10.1530   11.0050 C.3   601  GDD601      0.1799
     18  O4'       20.3040    9.9310    9.5880 O.3   601  GDD601     -0.3326
     19  C5'       20.9540    8.9000   11.6100 C.3   601  GDD601      0.1813
     20  O5'       20.0310    7.8730   11.2660 O.3   601  GDD601     -0.3112
     21  PA        19.6910    6.7340   12.3560 P.3   601  GDD601      0.2189
     22  O1A       18.9070    5.8340   11.4540 O.2   601  GDD601     -0.5170
     23  O2A       19.2610    7.1940   13.7480 O.3   601  GDD601     -0.4371
     24  O3A       21.1880    6.2620   12.5220 O.3   601  GDD601     -0.2703
     25  PB        21.5670    5.3280   13.7200 P.3   601  GDD601      0.2208
     26  O2B       21.3060    3.9260   13.2910 O.2   601  GDD601     -0.5170
     27  O3B       20.9700    5.9750   14.9360 O.3   601  GDD601     -0.4371
     28  O1B       23.1930    5.3650   13.7240 O.3   601  GDD601     -0.2857
     29  C11       23.9650    6.5750   13.5930 C.3   601  GDD601      0.2742
     30  O51       23.8420    7.4380   14.7060 O.3   601  GDD601     -0.3254
     31  C51       24.2020    6.8300   15.9500 C.3   601  GDD601      0.1835
     32  C61       23.9140    7.7260   17.1500 C.3   601  GDD601      0.2142
     33  O6A       23.0030    8.7940   16.8160 O.3   601  GDD601     -0.2176
     34  C21       25.4370    6.2370   13.4660 C.3   601  GDD601      0.2409
     35  O21       26.1350    7.4340   13.1930 O.3   601  GDD601     -0.2149
     36  C31       25.9940    5.6140   14.7310 C.3   601  GDD601      0.2198
     37  O31       27.4020    5.4550   14.6160 O.3   601  GDD601     -0.2174
     38  C41       25.6760    6.5020   15.9090 C.3   601  GDD601      0.2144
     39  O41       26.0600    5.8280   17.1010 O.3   601  GDD601     -0.2176
@<TRIPOS>BOND
     1     8     7    2
     2     3     7    2
     3     3     2    2
     4     1     2    1
     5     7     6    1
     6     2     4    2
     7     6     5    1
     8     6     9    2
     9     4     5    2
    10     5    11    1
    11     9    10    1
    12    11    10    1
    13    11    12    1
    14    12    18    1
    15    12    13    1
    16    18    17    1
    17    14    13    1
    18    13    15    1
    19    17    15    1
    20    17    19    1
    21    20    19    1
    22    20    21    1
    23    15    16    1
    24    22    21    2
    25    21    24    1
    26    21    23    1
    27    24    25    1
    28    35    34    1
    29    26    25    2
    30    34    29    1
    31    34    36    1
    32    29    28    1
    33    29    30    1
    34    25    28    1
    35    25    27    1
    36    37    36    1
    37    30    31    1
    38    36    38    1
    39    38    31    1
    40    38    39    1
    41    31    32    1
    42    33    32    1
