@<TRIPOS>MOLECULE
2x60_GTP_A_1.pdb
 32 34 0 0 0
SMALL
GASTEIGER

@<TRIPOS>ATOM
      1  PG         9.7450  -18.5140  -18.1440 P.3   601  GTP601      0.5373
      2  O1G       10.7130  -17.8360  -17.2080 O.3   601  GTP601     -0.1143
      3  O2G        9.0530  -19.6590  -17.4140 O.3   601  GTP601     -0.1143
      4  O3G       10.4510  -18.9280  -19.4110 O.2   601  GTP601     -0.2221
      5  O3B        8.6530  -17.4240  -18.5820 O.3   601  GTP601     -0.2258
      6  PB         7.2630  -17.2020  -17.8150 P.3   601  GTP601      0.2277
      7  O1B        6.9840  -15.7210  -17.9100 O.2   601  GTP601     -0.5168
      8  O2B        7.3620  -17.7050  -16.4020 O.3   601  GTP601     -0.4368
      9  O3A        6.1650  -17.9830  -18.7030 O.3   601  GTP601     -0.2700
     10  PA         5.3080  -19.2300  -18.1860 P.3   601  GTP601      0.2189
     11  O1A        5.7370  -19.6950  -16.8150 O.3   601  GTP601     -0.4371
     12  O2A        5.4470  -20.3720  -19.1420 O.2   601  GTP601     -0.5170
     13  O5'        3.7980  -18.7580  -18.1590 O.3   601  GTP601     -0.3112
     14  C5'        3.0860  -18.6160  -16.9610 C.3   601  GTP601      0.1813
     15  C4'        2.1690  -17.4120  -17.1160 C.3   601  GTP601      0.1799
     16  O4'        1.9910  -16.8520  -15.8370 O.3   601  GTP601     -0.3326
     17  C3'        2.7840  -16.3150  -17.9730 C.3   601  GTP601      0.2158
     18  O3'        1.7850  -15.4950  -18.5110 O.3   601  GTP601     -0.2175
     19  C2'        3.6330  -15.5730  -16.9750 C.3   601  GTP601      0.2310
     20  O2'        3.8510  -14.2250  -17.2780 O.3   601  GTP601     -0.2158
     21  C1'        2.8070  -15.6940  -15.7120 C.3   601  GTP601      0.2293
     22  N9         3.7040  -15.7380  -14.5460 N.pl3 601  GTP601     -0.2354
     23  C8         4.7830  -16.5480  -14.3250 C.3   601  GTP601      0.2246
     24  N7         5.3110  -16.2380  -13.1340 N.2   601  GTP601     -0.2322
     25  C5         4.5980  -15.2300  -12.5990 C.2   601  GTP601      0.2182
     26  C6         4.7060  -14.5180  -11.4130 C.1   601  GTP601      0.2372
     27  O6         5.5860  -14.7640  -10.5940 O.2   601  GTP601     -0.2069
     28  N1         3.8060  -13.5180  -11.1440 N.2   601  GTP601     -0.2485
     29  C2         2.8000  -13.2120  -12.0390 C.1   601  GTP601      0.2531
     30  N2         1.9340  -12.2340  -11.7660 N.pl3 601  GTP601     -0.0226
     31  N3         2.7020  -13.9280  -13.2100 N.2   601  GTP601     -0.3074
     32  C4         3.5830  -14.9130  -13.4790 C.2   601  GTP601      0.2300
@<TRIPOS>BOND
     1     4     1    2
     2    12    10    2
     3     9    10    1
     4     9     6    1
     5     5     1    1
     6     5     6    1
     7    18    17    1
     8    10    13    1
     9    10    11    1
    10    13    14    1
    11     1     3    1
    12     1     2    1
    13    17    15    1
    14    17    19    1
    15     7     6    2
    16     6     8    1
    17    20    19    1
    18    15    14    1
    19    15    16    1
    20    19    21    1
    21    16    21    1
    22    21    22    1
    23    22    23    1
    24    22    32    1
    25    23    24    1
    26    32    31    2
    27    32    25    1
    28    31    29    2
    29    24    25    2
    30    25    26    1
    31    29    30    1
    32    29    28    2
    33    26    28    2
    34    26    27    2
