@<TRIPOS>MOLECULE
2x61_SIA_A_1.pdb
 21 21 0 0 0
SMALL
GASTEIGER

@<TRIPOS>ATOM
      1  C1       -19.8440   13.6020   14.9460 C.2   1261  SIA1261     0.4179
      2  C2       -18.7440   14.6920   14.8560 C.3   1261  SIA1261     0.3155
      3  C3       -17.7280   14.4210   13.7090 C.3   1261  SIA1261     0.1056
      4  C4       -18.3650   14.6720   12.3350 C.3   1261  SIA1261     0.1798
      5  C5       -19.0650   16.0420   12.3150 C.3   1261  SIA1261     0.1554
      6  C6       -20.0720   16.1080   13.4710 C.3   1261  SIA1261     0.1734
      7  C7       -20.8070   17.4510   13.3510 C.3   1261  SIA1261     0.2135
      8  C8       -22.0160   17.5740   14.3160 C.3   1261  SIA1261     0.2173
      9  C9       -21.8640   18.6950   15.3180 C.3   1261  SIA1261     0.2175
     10  C10      -19.5320   17.1370   10.1590 C.2   1261  SIA1261     0.2420
     11  C11      -20.3490   16.9940    8.8760 C.3   1261  SIA1261     0.0964
     12  N5       -19.7760   16.1720   11.0400 N.am  1261  SIA1261    -0.2020
     13  O1A      -19.5350   12.4080   14.6970 O.co2 1261  SIA1261    -0.2401
     14  O1B      -20.9950   13.9980   15.2870 O.co2 1261  SIA1261    -0.2401
     15  O2       -17.9620   14.7430   16.0560 O.3   1261  SIA1261    -0.1830
     16  O4       -17.3760   14.5820   11.2860 O.3   1261  SIA1261    -0.2210
     17  O6       -19.3720   15.9670   14.7100 O.3   1261  SIA1261    -0.3220
     18  O7       -19.9000   18.5690   13.4870 O.3   1261  SIA1261    -0.2176
     19  O8       -22.3220   16.3500   15.0030 O.3   1261  SIA1261    -0.2175
     20  O9       -23.1840   19.0580   15.7160 O.3   1261  SIA1261    -0.2175
     21  O10      -18.7350   18.0710   10.3230 O.2   1261  SIA1261    -0.2733
@<TRIPOS>BOND
     1    11    10    1
     2    10    21    2
     3    10    12   am
     4    12     5    1
     5    16     4    1
     6     5     4    1
     7     5     6    1
     8     4     3    1
     9     7     6    1
    10     7    18    1
    11     7     8    1
    12     6    17    1
    13     3     2    1
    14     8    19    1
    15     8     9    1
    16    13     1   ar
    17    17     2    1
    18     2     1    1
    19     2    15    1
    20     1    14   ar
    21     9    20    1
