@<TRIPOS>MOLECULE
2x61_GAL_A_1.pdb
 10 10 0 0 0
SMALL
GASTEIGER

@<TRIPOS>ATOM
      1  C1       -18.7980   16.2710   19.4010 C.3   1260  GAL1260     0.1750
      2  C2       -18.2770   16.1660   17.9520 C.3   1260  GAL1260     0.1840
      3  C3       -18.7230   14.8570   17.2800 C.3   1260  GAL1260     0.0710
      4  C4       -18.4220   13.6650   18.2010 C.3   1260  GAL1260     0.1841
      5  C5       -18.9470   13.9200   19.6330 C.3   1260  GAL1260     0.1784
      6  C6       -18.5300   12.8430   20.6500 C.3   1260  GAL1260     0.2140
      7  O2       -18.7480   17.2710   17.1690 O.3   1260  GAL1260    -0.2204
      8  O4       -17.0060   13.4360   18.2290 O.3   1260  GAL1260    -0.2204
      9  O5       -18.4050   15.1220   20.1660 O.3   1260  GAL1260    -0.3483
     10  O6       -18.7910   11.5500   20.1000 O.3   1260  GAL1260    -0.2176
@<TRIPOS>BOND
     1     7     2    1
     2     3     2    1
     3     3     4    1
     4     2     1    1
     5     4     8    1
     6     4     5    1
     7     1     9    1
     8     5     9    1
     9     5     6    1
    10    10     6    1
