@<TRIPOS>MOLECULE
2x61_CH_A_1.pdb
 21 22 0 0 0
SMALL
GASTEIGER

@<TRIPOS>ATOM
      1  OP3      -26.4690   18.2680   10.9600 O.2   1264  CH1264     -0.2224
      2  P        -28.0390   18.3090   11.3590 P.3   1264  CH1264      0.5327
      3  OP1      -28.3230   19.2030   12.5080 O.3   1264  CH1264     -0.1145
      4  OP2      -28.4920   16.8190   11.7150 O.3   1264  CH1264     -0.1145
      5  O5'      -28.8410   18.7670   10.0040 O.3   1264  CH1264     -0.2675
      6  C5'      -28.4370   18.4180    8.6920 C.3   1264  CH1264      0.1859
      7  C4'      -27.9330   19.6680    7.9350 C.3   1264  CH1264      0.1801
      8  O4'      -29.0560   20.5360    7.7100 O.3   1264  CH1264     -0.3320
      9  C3'      -27.0400   20.4950    8.8590 C.3   1264  CH1264      0.2158
     10  O3'      -25.7150   19.9710    8.8870 O.3   1264  CH1264     -0.2175
     11  C2'      -27.0720   21.8290    8.1250 C.3   1264  CH1264      0.2319
     12  O2'      -26.3770   21.7460    6.8770 O.3   1264  CH1264     -0.2157
     13  C1'      -28.5460   21.9110    7.7910 C.3   1264  CH1264      0.2400
     14  N1       -29.4190   22.6300    8.7540 N.am  1264  CH1264     -0.1778
     15  C2       -29.4740   24.0160    8.6520 C.1   1264  CH1264      0.2756
     16  O2       -28.7780   24.6120    7.8290 O.2   1264  CH1264     -0.1925
     17  N3       -30.3150   24.7180    9.5010 N.2   1264  CH1264     -0.3024
     18  C4       -31.1020   24.0550   10.4470 C.2   1264  CH1264      0.2346
     19  N4       -31.8950   24.7950   11.2360 N.pl3 1264  CH1264     -0.0921
     20  C5       -31.0430   22.6550   10.5600 C.2   1264  CH1264      0.0687
     21  C6       -30.1990   21.9440    9.6890 C.2   1264  CH1264      0.0836
@<TRIPOS>BOND
     1    12    11    1
     2     8    13    1
     3     8     7    1
     4    13    11    1
     5    13    14    1
     6    16    15    2
     7     7     6    1
     8     7     9    1
     9    11     9    1
    10    15    14   am
    11    15    17    2
    12     6     5    1
    13    14    21    1
    14     9    10    1
    15    17    18    2
    16    21    20    2
    17     5     2    1
    18    18    20    1
    19    18    19    1
    20     1     2    2
    21     2     4    1
    22     2     3    1
