@<TRIPOS>MOLECULE
2x62_CH_A_1.pdb
 21 22 0 0 0
SMALL
GASTEIGER

@<TRIPOS>ATOM
      1  OP3       31.6200   40.3870  -11.1670 O.3   1261  CH1261     -0.1145
      2  P         30.1000   40.5660  -11.6390 P.3   1261  CH1261      0.5327
      3  OP1       29.8480   39.7700  -12.8670 O.2   1261  CH1261     -0.2224
      4  OP2       29.8650   42.0850  -11.8450 O.3   1261  CH1261     -0.1145
      5  O5'       29.2430   40.1170  -10.3610 O.3   1261  CH1261     -0.2675
      6  C5'       29.6380   40.5260   -9.0760 C.3   1261  CH1261      0.1859
      7  C4'       30.2160   39.3090   -8.3100 C.3   1261  CH1261      0.1801
      8  O4'       29.1370   38.4440   -7.8330 O.3   1261  CH1261     -0.3320
      9  C3'       31.1000   38.3990   -9.2170 C.3   1261  CH1261      0.2158
     10  O3'       32.4440   38.8840   -9.2790 O.3   1261  CH1261     -0.2175
     11  C2'       31.0430   37.0610   -8.4650 C.3   1261  CH1261      0.2319
     12  O2'       31.8370   37.0380   -7.2820 O.3   1261  CH1261     -0.2157
     13  C1'       29.5710   37.0710   -8.0190 C.3   1261  CH1261      0.2400
     14  N1        28.6810   36.4170   -8.9960 N.am  1261  CH1261     -0.1778
     15  C2        28.5970   35.0470   -8.8650 C.1   1261  CH1261      0.2756
     16  O2        29.2710   34.5370   -7.9770 O.2   1261  CH1261     -0.1925
     17  N3        27.7560   34.3030   -9.7040 N.2   1261  CH1261     -0.3024
     18  C4        27.0150   34.9750  -10.6740 C.2   1261  CH1261      0.2346
     19  N4        26.2320   34.2670  -11.4820 N.pl3 1261  CH1261     -0.0921
     20  C5        27.1260   36.3680  -10.8220 C.2   1261  CH1261      0.0687
     21  C6        27.9470   37.0930   -9.9640 C.2   1261  CH1261      0.0836
@<TRIPOS>BOND
     1     3     2    2
     2     4     2    1
     3     2     1    1
     4     2     5    1
     5    19    18    1
     6    20    18    1
     7    20    21    2
     8    18    17    2
     9     5     6    1
    10    21    14    1
    11    17    15    2
    12    10     9    1
    13     9    11    1
    14     9     7    1
    15     6     7    1
    16    14    15   am
    17    14    13    1
    18    15    16    2
    19    11    13    1
    20    11    12    1
    21     7     8    1
    22    13     8    1
