@<TRIPOS>MOLECULE
2x63_C_A_1.pdb
 21 22 0 0 0
SMALL
GASTEIGER

@<TRIPOS>ATOM
      1  OP3       30.2380   -8.3210  -20.1070 O.3   1261  C1261      -0.1145
      2  P         31.2100   -9.4310  -20.7900 P.3   1261  C1261       0.5327
      3  OP1       31.8130   -8.9130  -22.0550 O.2   1261  C1261      -0.2224
      4  OP2       30.3570  -10.7720  -21.0250 O.3   1261  C1261      -0.1145
      5  O5'       32.3090   -9.9130  -19.6560 O.3   1261  C1261      -0.2675
      6  C5'       31.9620  -10.0130  -18.2630 C.3   1261  C1261       0.1859
      7  C4'       32.7990   -9.0580  -17.3820 C.3   1261  C1261       0.1801
      8  O4'       34.2160   -9.4540  -17.5100 O.3   1261  C1261      -0.3320
      9  C3'       32.7440   -7.5720  -17.8070 C.3   1261  C1261       0.2158
     10  O3'       33.0720   -6.7280  -16.6900 O.3   1261  C1261      -0.2175
     11  C2'       33.9220   -7.4960  -18.7290 C.3   1261  C1261       0.2319
     12  O2'       34.3400   -6.1380  -18.8720 O.3   1261  C1261      -0.2157
     13  C1'       34.9270   -8.2430  -17.8700 C.3   1261  C1261       0.2400
     14  N1        36.0500   -8.5170  -18.7750 N.am  1261  C1261      -0.1778
     15  C2        37.1990   -7.7700  -18.6140 C.1   1261  C1261       0.2756
     16  O2        37.2450   -6.9220  -17.7320 O.2   1261  C1261      -0.1925
     17  N3        38.2900   -7.9770  -19.4410 N.2   1261  C1261      -0.3024
     18  C4        38.2170   -8.9420  -20.4510 C.2   1261  C1261       0.2346
     19  N4        39.2840   -9.1340  -21.2290 N.pl3 1261  C1261      -0.0921
     20  C5        37.0560   -9.6950  -20.6190 C.2   1261  C1261       0.0687
     21  C6        35.9600   -9.4870  -19.7830 C.2   1261  C1261       0.0836
@<TRIPOS>BOND
     1     3     2    2
     2    19    18    1
     3     4     2    1
     4     2     1    1
     5     2     5    1
     6    20    18    1
     7    20    21    2
     8    18    17    2
     9    21    14    1
    10     5     6    1
    11    17    15    2
    12    12    11    1
    13    14    15   am
    14    14    13    1
    15    11    13    1
    16    11     9    1
    17    15    16    2
    18     6     7    1
    19    13     8    1
    20     9     7    1
    21     9    10    1
    22     8     7    1
