@<TRIPOS>MOLECULE
2x64_GSH_A_1.pdb
 20 19 0 0 0
SMALL
GASTEIGER

@<TRIPOS>ATOM
      1  N1         0.4370  -18.3170   44.2830 N.3   1224  GSH1224    -0.1208
      2  CA1        0.0960  -17.0550   44.9920 C.3   1224  GSH1224     0.1948
      3  C1        -0.2500  -15.8610   44.0830 C.2   1224  GSH1224     0.3819
      4  O11       -1.1780  -15.0880   44.3230 O.co2 1224  GSH1224    -0.2441
      5  O12        0.5100  -15.6810   43.0180 O.co2 1224  GSH1224    -0.2441
      6  CB1        1.2670  -16.6580   45.8860 C.3   1224  GSH1224     0.0402
      7  CG1        0.8440  -15.6430   46.9760 C.3   1224  GSH1224     0.0889
      8  CD1        2.0450  -14.9530   47.5790 C.2   1224  GSH1224     0.2418
      9  OE1        3.1640  -15.4450   47.4480 O.2   1224  GSH1224    -0.2733
     10  N2         1.8700  -13.7980   48.2660 N.am  1224  GSH1224    -0.1968
     11  CA2        3.0040  -13.0590   48.8840 C.3   1224  GSH1224     0.1843
     12  C2         2.8520  -12.8010   50.3570 C.2   1224  GSH1224     0.2627
     13  O2         1.7540  -12.5390   50.8390 O.2   1224  GSH1224    -0.2714
     14  CB2        3.2390  -11.6880   48.2560 C.3   1224  GSH1224     0.0997
     15  SG2        4.6290  -11.7350   47.1070 S.3   1224  GSH1224    -0.0797
     16  N3         4.0430  -12.8640   51.0460 N.am  1224  GSH1224    -0.1917
     17  CA3        4.4120  -12.6610   52.4750 C.3   1224  GSH1224     0.2285
     18  C3         3.5820  -13.3790   53.5130 C.2   1224  GSH1224     0.3865
     19  O31        2.8010  -14.3280   53.2370 O.co2 1224  GSH1224    -0.2437
     20  O32        3.7460  -12.8980   54.7970 O.co2 1224  GSH1224    -0.2437
@<TRIPOS>BOND
     1     5     3   ar
     2     3     4   ar
     3     3     2    1
     4     1     2    1
     5     2     6    1
     6     6     7    1
     7     7     8    1
     8    15    14    1
     9     9     8    2
    10     8    10   am
    11    14    11    1
    12    10    11    1
    13    11    12    1
    14    12    13    2
    15    12    16   am
    16    16    17    1
    17    17    18    1
    18    19    18   ar
    19    18    20   ar
