@<TRIPOS>MOLECULE
2x65_M1P_A_1.pdb
 16 16 0 0 0
SMALL
GASTEIGER

@<TRIPOS>ATOM
      1  O6        -4.2010   10.8160   16.4980 O.3   600  M1P600     -0.2176
      2  C6        -3.4660    9.9140   15.7030 C.3   600  M1P600      0.2142
      3  C5        -3.9770   10.0340   14.2760 C.3   600  M1P600      0.1835
      4  O5        -3.9350   11.4630   13.9430 O.3   600  M1P600     -0.3253
      5  C1        -4.2680   11.7910   12.5660 C.3   600  M1P600      0.2781
      6  O1        -5.6320   11.5000   12.3590 O.3   600  M1P600     -0.2416
      7  P         -6.7130   12.7040   12.5170 P.3   600  M1P600      0.5346
      8  O1P       -6.7490   13.1810   13.9300 O.3   600  M1P600     -0.1145
      9  O2P       -8.0370   12.0390   12.1970 O.3   600  M1P600     -0.1145
     10  O3P       -6.3630   13.8780   11.6400 O.2   600  M1P600     -0.2223
     11  C2        -3.4720   10.9670   11.5740 C.3   600  M1P600      0.2410
     12  O2        -2.0870   11.4320   11.5470 O.3   600  M1P600     -0.2149
     13  C3        -3.5270    9.4560   11.9180 C.3   600  M1P600      0.2198
     14  O3        -2.6270    8.7580   11.0800 O.3   600  M1P600     -0.2174
     15  C4        -3.1310    9.1750   13.3580 C.3   600  M1P600      0.2144
     16  O4        -3.3640    7.7780   13.6440 O.3   600  M1P600     -0.2176
@<TRIPOS>BOND
     1    14    13    1
     2    12    11    1
     3    11    13    1
     4    11     5    1
     5    10     7    2
     6    13    15    1
     7     9     7    1
     8     6     7    1
     9     6     5    1
    10     7     8    1
    11     5     4    1
    12    15    16    1
    13    15     3    1
    14     4     3    1
    15     3     2    1
    16     2     1    1
