@<TRIPOS>MOLECULE
2x66_HEM_A_1.pdb
 43 50 0 0 0
SMALL
GASTEIGER

@<TRIPOS>ATOM
      1  CHA       15.9450   16.4120   20.5450 C.2   1359  HEM1359     0.0000
      2  CHB       12.5290   13.0480   19.9640 C.2   1359  HEM1359     0.0000
      3  CHC        9.5530   16.2790   17.9420 C.2   1359  HEM1359     0.0000
      4  CHD       12.7760   19.7380   18.8630 C.2   1359  HEM1359     0.0000
      5  C1A       15.3250   15.1900   20.4830 C.2   1359  HEM1359     0.0000
      6  C2A       15.9130   13.9040   20.7840 C.2   1359  HEM1359     0.0000
      7  C3A       14.9590   12.9750   20.6240 C.2   1359  HEM1359     0.0000
      8  C4A       13.7430   13.6480   20.2210 C.2   1359  HEM1359     0.0000
      9  CMA       15.0760   11.4420   20.8150 C.3   1359  HEM1359     0.0000
     10  CAA       17.3840   13.6850   21.1950 C.3   1359  HEM1359     0.0000
     11  CBA       18.2280   13.5830   19.9220 C.3   1359  HEM1359     0.0000
     12  CGA       17.8620   12.3570   19.1040 C.2   1359  HEM1359     0.0000
     13  O1A       17.3230   12.5140   17.9640 O.co2 1359  HEM1359     0.0000
     14  O2A       18.0920   11.2110   19.5880 O.co2 1359  HEM1359     0.0000
     15  C1B       11.4410   13.6240   19.3700 C.ar  1359  HEM1359     0.0000
     16  C2B       10.2470   12.9250   18.9900 C.ar  1359  HEM1359     0.0000
     17  C3B        9.4100   13.8110   18.4190 C.ar  1359  HEM1359     0.0000
     18  C4B       10.0700   15.1030   18.4310 C.ar  1359  HEM1359     0.0000
     19  CMB       10.0580   11.4120   19.2310 C.3   1359  HEM1359     0.0000
     20  CAB        7.9930   13.6040   17.8180 C.2   1359  HEM1359     0.0000
     21  CBB        7.1770   12.5970   18.1210 C.2   1359  HEM1359     0.0000
     22  C1C       10.1320   17.5190   18.0340 C.2   1359  HEM1359     0.0000
     23  C2C        9.5640   18.7940   17.6370 C.2   1359  HEM1359     0.0000
     24  C3C       10.4620   19.7650   17.9060 C.2   1359  HEM1359     0.0000
     25  C4C       11.6210   19.1110   18.4760 C.2   1359  HEM1359     0.0000
     26  CMC        8.1550   18.9770   17.0370 C.3   1359  HEM1359     0.0000
     27  CAC       10.3550   21.2930   17.6810 C.2   1359  HEM1359     0.0000
     28  CBC        9.5970   21.8480   16.7280 C.2   1359  HEM1359     0.0000
     29  C1D       13.8980   19.1960   19.4430 C.ar  1359  HEM1359     0.0000
     30  C2D       15.0020   19.9630   19.9700 C.ar  1359  HEM1359     0.0000
     31  C3D       16.0000   18.9230   20.4790 C.ar  1359  HEM1359     0.0000
     32  C4D       15.3860   17.6400   20.2400 C.ar  1359  HEM1359     0.0000
     33  CMD       15.1660   21.4990   19.9830 C.3   1359  HEM1359     0.0000
     34  CAD       17.3380   19.1980   21.1830 C.3   1359  HEM1359     0.0000
     35  CBD       17.0630   18.9630   22.6870 C.3   1359  HEM1359     0.0000
     36  CGD       16.4250   20.1490   23.3940 C.2   1359  HEM1359     0.0000
     37  O1D       15.7930   19.9470   24.4640 O.co2 1359  HEM1359     0.0000
     38  O2D       16.5660   21.3170   22.9470 O.co2 1359  HEM1359     0.0000
     39  NA        14.0070   14.9930   20.1560 N.2   1359  HEM1359     0.0000
     40  NB        11.3040   14.9540   19.0240 N.ar  1359  HEM1359     0.0000
     41  NC        11.3900   17.7560   18.5060 N.2   1359  HEM1359     0.0000
     42  ND        14.1560   17.8450   19.6180 N.ar  1359  HEM1359     0.0000
     43 FE         12.7220   16.3810   19.3220 Fe    1359  HEM1359     0.0000
@<TRIPOS>BOND
     1    28    27    2
     2    26    23    1
     3    23    24    2
     4    23    22    1
     5    27    24    1
     6    20    21    2
     7    20    17    1
     8    24    25    1
     9     3    22    2
    10     3    18    1
    11    13    12   ar
    12    22    41    1
    13    17    18   ar
    14    17    16   ar
    15    18    40   ar
    16    25    41    2
    17    25     4    1
    18    41    43    1
    19     4    29    2
    20    16    19    1
    21    16    15   ar
    22    40    43    1
    23    40    15   ar
    24    12    14   ar
    25    12    11    1
    26    43    42    1
    27    43    39    1
    28    15     2    1
    29    29    42   ar
    30    29    30   ar
    31    42    32   ar
    32    11    10    1
    33     2     8    2
    34    30    33    1
    35    30    31   ar
    36    39     8    1
    37    39     5    2
    38     8     7    1
    39    32    31   ar
    40    32     1    2
    41    31    34    1
    42     5     1    1
    43     5     6    1
    44     7     6    2
    45     7     9    1
    46     6    10    1
    47    34    35    1
    48    35    36    1
    49    38    36   ar
    50    36    37   ar
