@<TRIPOS>MOLECULE
2x67_TRP_A_1.pdb
 15 16 0 0 0
SMALL
GASTEIGER

@<TRIPOS>ATOM
      1  N         15.1350   13.5310   16.2520 N.3   1360  TRP1360    -0.1205
      2  CA        13.9280   12.7700   16.7570 C.3   1360  TRP1360     0.1984
      3  CB        12.6470   13.3210   16.1500 C.3   1360  TRP1360     0.0549
      4  CG        12.7430   13.6550   14.6930 C.2   1360  TRP1360    -0.0138
      5  CD1       13.3000   12.8870   13.7000 C.2   1360  TRP1360     0.0907
      6  NE1       13.1790   13.5170   12.4990 N.2   1360  TRP1360    -0.2482
      7  CE2       12.5420   14.7150   12.6830 C.2   1360  TRP1360     0.0665
      8  CZ2       12.1830   15.6930   11.7540 C.2   1360  TRP1360     0.0153
      9  CH2       11.5080   16.7800   12.2180 C.2   1360  TRP1360     0.0009
     10  CZ3       11.2070   16.9270   13.5750 C.2   1360  TRP1360    -0.0038
     11  CE3       11.5600   15.9580   14.5050 C.2   1360  TRP1360    -0.0164
     12  CD2       12.2390   14.8270   14.0550 C.3   1360  TRP1360     0.0819
     13  C         13.9940   11.2730   16.4910 C.2   1360  TRP1360     0.3822
     14  O         14.7760   10.8290   15.6560 O.co2 1360  TRP1360    -0.2440
     15  OXT       13.2610   10.4750   17.1010 O.co2 1360  TRP1360    -0.2440
@<TRIPOS>BOND
     1     8     9    2
     2     8     7    1
     3     9    10    1
     4     6     7    2
     5     6     5    1
     6     7    12    1
     7    10    11    2
     8     5     4    2
     9    12    11    1
    10    12     4    1
    11     4     3    1
    12    14    13   ar
    13     3     2    1
    14     1     2    1
    15    13     2    1
    16    13    15   ar
