@<TRIPOS>MOLECULE
2x67_HEM_A_1.pdb
 43 50 0 0 0
SMALL
GASTEIGER

@<TRIPOS>ATOM
      1  CHA       16.0520   16.5770   20.6570 C.2   1359  HEM1359     0.0000
      2  CHB       12.5450   13.2550   20.0200 C.2   1359  HEM1359     0.0000
      3  CHC        9.7290   16.6140   17.9850 C.2   1359  HEM1359     0.0000
      4  CHD       12.9380   20.0280   19.1640 C.2   1359  HEM1359     0.0000
      5  C1A       15.3950   15.3680   20.5550 C.2   1359  HEM1359     0.0000
      6  C2A       15.9430   14.0490   20.8120 C.2   1359  HEM1359     0.0000
      7  C3A       14.9660   13.1450   20.6470 C.2   1359  HEM1359     0.0000
      8  C4A       13.7720   13.8410   20.2750 C.2   1359  HEM1359     0.0000
      9  CMA       15.0560   11.6000   20.7940 C.3   1359  HEM1359     0.0000
     10  CAA       17.4140   13.7600   21.1930 C.3   1359  HEM1359     0.0000
     11  CBA       18.2350   14.0080   19.9190 C.3   1359  HEM1359     0.0000
     12  CGA       18.1090   12.8790   18.9080 C.2   1359  HEM1359     0.0000
     13  O1A       17.4350   13.0020   17.8330 O.co2 1359  HEM1359     0.0000
     14  O2A       18.7320   11.8130   19.1510 O.co2 1359  HEM1359     0.0000
     15  C1B       11.4850   13.8470   19.3850 C.ar  1359  HEM1359     0.0000
     16  C2B       10.3040   13.2080   18.8690 C.ar  1359  HEM1359     0.0000
     17  C3B        9.5300   14.1530   18.3040 C.ar  1359  HEM1359     0.0000
     18  C4B       10.2100   15.4100   18.4500 C.ar  1359  HEM1359     0.0000
     19  CMB       10.0370   11.6960   18.9920 C.3   1359  HEM1359     0.0000
     20  CAB        8.1480   14.0580   17.6010 C.2   1359  HEM1359     0.0000
     21  CBB        7.3980   12.9580   17.6160 C.2   1359  HEM1359     0.0000
     22  C1C       10.3380   17.8260   18.1450 C.2   1359  HEM1359     0.0000
     23  C2C        9.7810   19.1140   17.7900 C.2   1359  HEM1359     0.0000
     24  C3C       10.6730   20.0630   18.1340 C.2   1359  HEM1359     0.0000
     25  C4C       11.8010   19.3920   18.7210 C.2   1359  HEM1359     0.0000
     26  CMC        8.3930   19.3160   17.1420 C.3   1359  HEM1359     0.0000
     27  CAC       10.5730   21.6010   17.9490 C.2   1359  HEM1359     0.0000
     28  CBC        9.9640   22.1910   16.9170 C.2   1359  HEM1359     0.0000
     29  C1D       14.0620   19.4430   19.6870 C.ar  1359  HEM1359     0.0000
     30  C2D       15.1880   20.1760   20.2020 C.ar  1359  HEM1359     0.0000
     31  C3D       16.1640   19.1070   20.6900 C.ar  1359  HEM1359     0.0000
     32  C4D       15.5290   17.8320   20.4150 C.ar  1359  HEM1359     0.0000
     33  CMD       15.3350   21.7050   20.2570 C.3   1359  HEM1359     0.0000
     34  CAD       17.5220   19.3430   21.3610 C.3   1359  HEM1359     0.0000
     35  CBD       17.2780   19.0730   22.8640 C.3   1359  HEM1359     0.0000
     36  CGD       16.5520   20.2130   23.5670 C.2   1359  HEM1359     0.0000
     37  O1D       15.8850   19.9500   24.6120 O.co2 1359  HEM1359     0.0000
     38  O2D       16.6710   21.3990   23.1330 O.co2 1359  HEM1359     0.0000
     39  NA        14.0640   15.2000   20.2350 N.2   1359  HEM1359     0.0000
     40  NB        11.4040   15.1900   19.1160 N.ar  1359  HEM1359     0.0000
     41  NC        11.5840   18.0280   18.6890 N.2   1359  HEM1359     0.0000
     42  ND        14.3020   18.0860   19.8200 N.ar  1359  HEM1359     0.0000
     43 FE         12.8380   16.5740   19.4770 Fe    1359  HEM1359     0.0000
@<TRIPOS>BOND
     1    28    27    2
     2    26    23    1
     3    20    21    2
     4    20    17    1
     5    23    24    2
     6    23    22    1
     7    13    12   ar
     8    27    24    1
     9     3    22    2
    10     3    18    1
    11    24    25    1
    12    22    41    1
    13    17    18   ar
    14    17    16   ar
    15    18    40   ar
    16    41    25    2
    17    41    43    1
    18    25     4    1
    19    16    19    1
    20    16    15   ar
    21    12    14   ar
    22    12    11    1
    23    40    15   ar
    24    40    43    1
    25     4    29    2
    26    15     2    1
    27    43    42    1
    28    43    39    1
    29    29    42   ar
    30    29    30   ar
    31    42    32   ar
    32    11    10    1
    33     2     8    2
    34    30    33    1
    35    30    31   ar
    36    39     8    1
    37    39     5    2
    38     8     7    1
    39    32     1    2
    40    32    31   ar
    41     5     1    1
    42     5     6    1
    43     7     9    1
    44     7     6    2
    45    31    34    1
    46     6    10    1
    47    34    35    1
    48    35    36    1
    49    38    36   ar
    50    36    37   ar
