@<TRIPOS>MOLECULE
2x68_HEM_A_1.pdb
 43 50 0 0 0
SMALL
GASTEIGER

@<TRIPOS>ATOM
      1  CHA       15.9770   16.5850   20.6280 C.2   1359  HEM1359     0.0000
      2  CHB       12.4660   13.2640   19.9650 C.2   1359  HEM1359     0.0000
      3  CHC        9.7280   16.6860   17.9240 C.2   1359  HEM1359     0.0000
      4  CHD       12.9720   20.0540   19.0610 C.2   1359  HEM1359     0.0000
      5  C1A       15.3060   15.3780   20.5200 C.2   1359  HEM1359     0.0000
      6  C2A       15.8610   14.0620   20.7840 C.2   1359  HEM1359     0.0000
      7  C3A       14.8990   13.1460   20.6110 C.2   1359  HEM1359     0.0000
      8  C4A       13.6920   13.8410   20.2380 C.2   1359  HEM1359     0.0000
      9  CMA       15.0340   11.6050   20.7850 C.3   1359  HEM1359     0.0000
     10  CAA       17.3220   13.7860   21.1850 C.3   1359  HEM1359     0.0000
     11  CBA       18.2440   14.0170   19.9840 C.3   1359  HEM1359     0.0000
     12  CGA       18.0920   12.9270   18.9410 C.2   1359  HEM1359     0.0000
     13  O1A       17.4200   13.1290   17.8880 O.co2 1359  HEM1359     0.0000
     14  O2A       18.6530   11.8190   19.1400 O.co2 1359  HEM1359     0.0000
     15  C1B       11.4200   13.8900   19.3260 C.ar  1359  HEM1359     0.0000
     16  C2B       10.2260   13.2650   18.8090 C.ar  1359  HEM1359     0.0000
     17  C3B        9.4660   14.2180   18.2360 C.ar  1359  HEM1359     0.0000
     18  C4B       10.1740   15.4720   18.3880 C.ar  1359  HEM1359     0.0000
     19  CMB        9.9470   11.7550   18.9460 C.3   1359  HEM1359     0.0000
     20  CAB        8.0810   14.1390   17.5420 C.2   1359  HEM1359     0.0000
     21  CBB        7.4400   12.9830   17.2930 C.2   1359  HEM1359     0.0000
     22  C1C       10.3500   17.8880   18.0870 C.2   1359  HEM1359     0.0000
     23  C2C        9.8030   19.1700   17.7310 C.2   1359  HEM1359     0.0000
     24  C3C       10.7090   20.1100   18.0550 C.2   1359  HEM1359     0.0000
     25  C4C       11.8390   19.4320   18.6250 C.2   1359  HEM1359     0.0000
     26  CMC        8.4110   19.3880   17.0960 C.3   1359  HEM1359     0.0000
     27  CAC       10.6080   21.6510   17.8810 C.2   1359  HEM1359     0.0000
     28  CBC        9.8940   22.1970   16.8940 C.2   1359  HEM1359     0.0000
     29  C1D       14.0690   19.4580   19.6120 C.ar  1359  HEM1359     0.0000
     30  C2D       15.1950   20.1820   20.1540 C.ar  1359  HEM1359     0.0000
     31  C3D       16.1470   19.1140   20.6530 C.ar  1359  HEM1359     0.0000
     32  C4D       15.4890   17.8460   20.3620 C.ar  1359  HEM1359     0.0000
     33  CMD       15.3530   21.7140   20.1750 C.3   1359  HEM1359     0.0000
     34  CAD       17.5030   19.3420   21.3510 C.3   1359  HEM1359     0.0000
     35  CBD       17.2700   19.0310   22.8540 C.3   1359  HEM1359     0.0000
     36  CGD       16.5730   20.1770   23.5670 C.2   1359  HEM1359     0.0000
     37  O1D       15.8510   19.9340   24.5810 O.co2 1359  HEM1359     0.0000
     38  O2D       16.7750   21.3590   23.1660 O.co2 1359  HEM1359     0.0000
     39  NA        13.9760   15.2040   20.1920 N.2   1359  HEM1359     0.0000
     40  NB        11.3610   15.2390   19.0490 N.ar  1359  HEM1359     0.0000
     41  NC        11.6030   18.0880   18.6190 N.2   1359  HEM1359     0.0000
     42  ND        14.2680   18.1020   19.7430 N.ar  1359  HEM1359     0.0000
     43 FE         12.7890   16.6610   19.3830 Fe    1359  HEM1359     0.0000
@<TRIPOS>BOND
     1    28    27    2
     2    26    23    1
     3    21    20    2
     4    20    17    1
     5    23    24    2
     6    23    22    1
     7    27    24    1
     8    13    12   ar
     9     3    22    2
    10     3    18    1
    11    24    25    1
    12    22    41    1
    13    17    18   ar
    14    17    16   ar
    15    18    40   ar
    16    41    25    2
    17    41    43    1
    18    25     4    1
    19    16    19    1
    20    16    15   ar
    21    12    14   ar
    22    12    11    1
    23    40    15   ar
    24    40    43    1
    25     4    29    2
    26    15     2    1
    27    43    42    1
    28    43    39    1
    29    29    42   ar
    30    29    30   ar
    31    42    32   ar
    32     2     8    2
    33    11    10    1
    34    30    33    1
    35    30    31   ar
    36    39     8    1
    37    39     5    2
    38     8     7    1
    39    32     1    2
    40    32    31   ar
    41     5     1    1
    42     5     6    1
    43     7     6    2
    44     7     9    1
    45    31    34    1
    46     6    10    1
    47    34    35    1
    48    35    36    1
    49    38    36   ar
    50    36    37   ar
