@<TRIPOS>MOLECULE
2x68_CTE_A_1.pdb
 16 17 0 0 0
SMALL
GASTEIGER

@<TRIPOS>ATOM
      1  O         13.1640   10.5780   17.0050 O.co2 1360  CTE1360    -0.2440
      2  C         13.9510   11.3550   16.4140 C.2   1360  CTE1360     0.3822
      3  OXT       14.7780   10.9520   15.5920 O.co2 1360  CTE1360    -0.2440
      4  CA        13.9070   12.8320   16.7060 C.3   1360  CTE1360     0.1987
      5  N         15.1490   13.4870   16.2730 N.3   1360  CTE1360    -0.1205
      6  CB        12.6240   13.4320   16.1030 C.3   1360  CTE1360     0.0585
      7  CG        12.6980   13.8130   14.6390 C.2   1360  CTE1360     0.0001
      8  CD1       13.3100   13.1130   13.6120 C.2   1360  CTE1360     0.0943
      9  NE1       13.1240   13.7770   12.4490 N.2   1360  CTE1360    -0.2469
     10  CE2       12.4300   14.9130   12.7070 C.2   1360  CTE1360     0.0777
     11  CD2       12.1320   14.9400   14.0500 C.2   1360  CTE1360     0.0126
     12  CE3       11.3940   15.9860   14.5870 C.2   1360  CTE1360     0.0007
     13  CZ3       10.9370   17.0230   13.7550 C.2   1360  CTE1360    -0.0029
     14  CH2       11.2260   16.9920   12.3890 C.2   1360  CTE1360    -0.0043
     15  CZ2       11.9790   15.9400   11.8810 C.3   1360  CTE1360     0.1416
     16 CL         12.3660   15.8300   10.1400 Cl    1360  CTE1360    -0.1037
@<TRIPOS>BOND
     1    16    15    1
     2    15    14    1
     3    15    10    1
     4    14    13    2
     5     9    10    2
     6     9     8    1
     7    10    11    1
     8     8     7    2
     9    13    12    1
    10    11    12    2
    11    11     7    1
    12     7     6    1
    13     3     2   ar
    14     6     4    1
    15     5     4    1
    16     2     4    1
    17     2     1   ar
