@<TRIPOS>MOLECULE
2x6a_PC_A_1.pdb
 11 10 0 0 0
SMALL
GASTEIGER

@<TRIPOS>ATOM
      1  P1        73.3520    9.5830  -83.1050 P.3   1298  PC1298      0.5325
      2  O1        72.5500   10.2140  -81.9080 O.3   1298  PC1298     -0.1145
      3  O3        74.3770   10.6840  -83.5290 O.2   1298  PC1298     -0.2224
      4  O4        74.0290    8.2850  -82.7130 O.3   1298  PC1298     -0.1145
      5  O2        72.3260    9.3070  -84.2780 O.3   1298  PC1298     -0.2725
      6  C1        71.2100   10.1630  -84.2520 C.3   1298  PC1298      0.1317
      7  C2        70.2290   10.1930  -85.4270 C.3   1298  PC1298     -0.0401
      8  N1        70.7800   10.4590  -86.7660 N.4   1298  PC1298      0.3874
      9  C3        69.8670    9.6700  -87.6000 C.3   1298  PC1298     -0.0959
     10  C4        72.0710   10.0380  -87.2500 C.3   1298  PC1298     -0.0959
     11  C5        70.6790   11.8930  -87.0190 C.3   1298  PC1298     -0.0959
@<TRIPOS>BOND
     1     9     8    1
     2    10     8    1
     3    11     8    1
     4     8     7    1
     5     7     6    1
     6     5     6    1
     7     5     1    1
     8     3     1    2
     9     1     4    1
    10     1     2    1
