@<TRIPOS>MOLECULE
2x6b_PC_A_1.pdb
 11 10 0 0 0
SMALL
GASTEIGER

@<TRIPOS>ATOM
      1  P1       -11.2540   70.6450    7.1630 P.3   1304  PC1304      0.5325
      2  O3        -9.7940   71.3360    6.8460 O.3   1304  PC1304     -0.1145
      3  O4       -11.4140   70.3830    8.7900 O.3   1304  PC1304     -0.1145
      4  O1       -12.3430   71.4960    6.6850 O.2   1304  PC1304     -0.2224
      5  O2       -11.2660   69.2000    6.3660 O.3   1304  PC1304     -0.2725
      6  C1       -10.2170   69.0010    5.4620 C.3   1304  PC1304      0.1317
      7  C2       -10.5980   69.0210    3.9800 C.3   1304  PC1304     -0.0401
      8  N1       -11.4600   67.9170    3.5750 N.4   1304  PC1304      0.3874
      9  C3       -12.8270   68.3530    3.8270 C.3   1304  PC1304     -0.0959
     10  C4       -11.3490   66.5510    4.0800 C.3   1304  PC1304     -0.0959
     11  C5       -11.1610   67.7810    2.1590 C.3   1304  PC1304     -0.0959
@<TRIPOS>BOND
     1    11     8    1
     2     8     9    1
     3     8     7    1
     4     8    10    1
     5     7     6    1
     6     6     5    1
     7     5     1    1
     8     4     1    2
     9     2     1    1
    10     1     3    1
