@<TRIPOS>MOLECULE
2x6c_PC_A_1.pdb
 11 10 0 0 0
SMALL
GASTEIGER

@<TRIPOS>ATOM
      1  P1         9.9220  -72.1820  -81.9140 P.3   1300  PC1300      0.5325
      2  O3         9.0010  -73.3880  -81.5030 O.3   1300  PC1300     -0.1145
      3  O1        10.4470  -71.4130  -80.6620 O.3   1300  PC1300     -0.1145
      4  O4        11.1450  -72.6560  -82.6620 O.2   1300  PC1300     -0.2224
      5  O2         9.0960  -71.2640  -82.8620 O.3   1300  PC1300     -0.2725
      6  C1         9.2070  -71.5300  -84.2230 C.3   1300  PC1300      0.1317
      7  C2         9.2990  -70.3580  -85.1930 C.3   1300  PC1300     -0.0401
      8  N1        10.3360  -69.3750  -85.0040 N.4   1300  PC1300      0.3874
      9  C3        10.0450  -68.6690  -83.7430 C.3   1300  PC1300     -0.0959
     10  C4        11.5700  -70.0200  -85.3610 C.3   1300  PC1300     -0.0959
     11  C5        10.2030  -68.3580  -86.0240 C.3   1300  PC1300     -0.0959
@<TRIPOS>BOND
     1    11     8    1
     2    10     8    1
     3     7     8    1
     4     7     6    1
     5     8     9    1
     6     6     5    1
     7     5     1    1
     8     4     1    2
     9     1     2    1
    10     1     3    1
