@<TRIPOS>MOLECULE
2x6d_X6D_A_1.pdb
 37 42 0 0 0
SMALL
GASTEIGER

@<TRIPOS>ATOM
      1  CAN        0.6340   37.5200   83.6740 C.3   1391  X6D1391     0.1049
      2  CAL        0.0700   38.8790   83.9810 C.3   1391  X6D1391     0.1595
      3  OAY        0.7720   39.3980   85.1580 O.3   1391  X6D1391    -0.3508
      4  CAM        0.5940   38.5710   86.3010 C.3   1391  X6D1391     0.1595
      5  CAO        1.1480   37.1950   85.9770 C.3   1391  X6D1391     0.1049
      6  NBI        0.4230   36.6410   84.8320 N.3   1391  X6D1391    -0.2646
      7  CAT        0.9830   35.3240   84.5400 C.3   1391  X6D1391     0.0993
      8  CBB        0.3440   34.6340   83.3450 C.ar  1391  X6D1391    -0.0061
      9  CAG       -0.5490   33.6410   83.6420 C.ar  1391  X6D1391    -0.0022
     10  CAI       -1.1630   32.9660   82.6130 C.ar  1391  X6D1391     0.0118
     11  CAH        0.6570   34.9420   82.0250 C.ar  1391  X6D1391    -0.0022
     12  CAJ        0.0480   34.2600   80.9960 C.ar  1391  X6D1391     0.0118
     13  CBD       -0.9050   33.3100   81.3010 C.ar  1391  X6D1391     0.0864
     14  CBE       -1.4880   32.5150   80.3210 C.1   1391  X6D1391     0.1486
     15  NAX       -1.4030   32.6240   79.0030 N.2   1391  X6D1391    -0.2841
     16  NAW       -2.1950   31.4210   80.5810 N.2   1391  X6D1391    -0.3307
     17  CBH       -2.5600   30.8250   79.4650 C.2   1391  X6D1391     0.2141
     18  CBG       -2.0680   31.6280   78.4390 C.1   1391  X6D1391     0.1284
     19  NAV       -2.2810   31.3310   77.1490 N.2   1391  X6D1391    -0.1795
     20  CAK       -2.9770   30.2450   76.8410 C.2   1391  X6D1391     0.1147
     21  CBC       -3.5390   29.3990   77.8140 C.2   1391  X6D1391     0.0543
     22 BR         -4.4550   27.8960   77.1200 Br    1391  X6D1391    -0.0502
     23  CBF       -3.3240   29.6820   79.1680 C.3   1391  X6D1391     0.1531
     24  NBK       -3.8650   28.9300   80.2910 N.3   1391  X6D1391    -0.2611
     25  CAR       -5.2050   28.7610   80.4210 C.3   1391  X6D1391     0.0902
     26  CAP       -5.8400   27.6630   81.2610 C.3   1391  X6D1391     0.0899
     27  CAS       -3.5800   29.2630   81.7370 C.3   1391  X6D1391     0.0902
     28  CAQ       -4.8700   29.1780   82.7260 C.3   1391  X6D1391     0.0899
     29  NBJ       -5.3440   27.7840   82.6750 N.3   1391  X6D1391    -0.2665
     30  CAU       -6.3090   26.7680   83.1740 C.3   1391  X6D1391     0.0992
     31  CBA       -6.0590   25.3090   82.7820 C.ar  1391  X6D1391    -0.0061
     32  CAE       -6.8860   24.6310   81.8460 C.ar  1391  X6D1391    -0.0021
     33  CAC       -6.5840   23.3040   81.5670 C.ar  1391  X6D1391     0.0111
     34  CAZ       -5.5340   22.6480   82.2120 C.ar  1391  X6D1391     0.0577
     35 CL         -5.1970   21.0150   81.8100 Cl    1391  X6D1391    -0.0822
     36  CAD       -4.7450   23.3210   83.1420 C.ar  1391  X6D1391     0.0111
     37  CAF       -5.0120   24.6550   83.4380 C.ar  1391  X6D1391    -0.0021
@<TRIPOS>BOND
     1    20    19    1
     2    20    21    2
     3    22    21    1
     4    19    18    2
     5    21    23    1
     6    18    15    2
     7    18    17    1
     8    15    14    2
     9    23    17    1
    10    23    24    1
    11    17    16    2
    12    24    25    1
    13    24    27    1
    14    14    16    2
    15    14    13    1
    16    25    26    1
    17    12    13   ar
    18    12    11   ar
    19    26    29    1
    20    13    10   ar
    21    33    32   ar
    22    33    34   ar
    23    27    28    1
    24    35    34    1
    25    32    31   ar
    26    11     8   ar
    27    34    36   ar
    28    10     9   ar
    29    29    28    1
    30    29    30    1
    31    31    30    1
    32    31    37   ar
    33    36    37   ar
    34     8     9   ar
    35     8     7    1
    36     1     2    1
    37     1     6    1
    38     2     3    1
    39     7     6    1
    40     6     5    1
    41     3     4    1
    42     5     4    1
