@<TRIPOS>MOLECULE
2x6e_YM4_A_1.pdb
 36 41 0 0 0
SMALL
GASTEIGER

@<TRIPOS>ATOM
      1  C01       -6.6370   22.4780   -4.4510 C.3   1389  YM41389     0.0754
      2  C02       -6.4230   23.9110   -3.9240 C.ar  1389  YM41389     0.1546
      3  C03       -7.2110   25.0340   -4.2030 C.ar  1389  YM41389     0.0550
      4  C04       -6.6330   26.1570   -3.4900 C.ar  1389  YM41389     0.1165
      5  C05       -7.1090   27.6100   -3.5110 C.3   1389  YM41389     0.1222
      6  N06       -6.1560   28.3610   -4.3380 N.3   1389  YM41389    -0.2646
      7  C07       -6.8340   28.9010   -5.5480 C.3   1389  YM41389     0.0941
      8  C08       -6.1080   30.1540   -6.0420 C.3   1389  YM41389     0.1082
      9  N09       -4.6740   30.0980   -5.8510 N.pl3 1389  YM41389    -0.3019
     10  C10       -3.9650   31.0160   -6.7640 C.2   1389  YM41389     0.0939
     11  C11       -4.0690   30.8660   -8.1240 C.2   1389  YM41389     0.0541
     12 BR1        -5.0240   29.3360   -8.8510 Br    1389  YM41389    -0.0502
     13  C13       -3.4590   31.7840   -9.0450 C.3   1389  YM41389     0.1717
     14  N14       -2.7400   32.8880   -8.5460 N.2   1389  YM41389    -0.2018
     15  C15       -2.6370   33.0600   -7.1590 C.1   1389  YM41389     0.1282
     16  N16       -1.9880   34.0600   -6.4190 N.2   1389  YM41389    -0.2841
     17  C17       -2.2190   33.7760   -5.1000 C.1   1389  YM41389     0.1489
     18  C18       -1.6860   34.5060   -4.0200 C.ar  1389  YM41389     0.0865
     19  C19       -2.0950   34.1100   -2.6940 C.ar  1389  YM41389     0.0133
     20  C20       -1.5380   34.8390   -1.5550 C.ar  1389  YM41389     0.0153
     21  C21       -0.6150   35.8960   -1.7810 C.ar  1389  YM41389     0.0480
     22  N22       -0.1170   36.6090   -0.5830 N.pl3 1389  YM41389    -0.3046
     23  C23        0.1750   35.7120    0.5820 C.3   1389  YM41389     0.1081
     24  C24        1.2420   36.3850    1.4780 C.3   1389  YM41389     0.0938
     25  N25        1.1320   37.8670    1.5050 N.3   1389  YM41389    -0.2686
     26  C26        0.8570   38.4620    2.8200 C.3   1389  YM41389     0.0897
     27  C27        0.6090   38.7090    0.3970 C.3   1389  YM41389     0.0938
     28  C28       -0.4320   38.0330   -0.4910 C.3   1389  YM41389     0.1081
     29  C29       -0.1930   36.2890   -3.1180 C.ar  1389  YM41389     0.0153
     30  C30       -0.7450   35.5600   -4.2680 C.ar  1389  YM41389     0.0133
     31  N31       -2.9730   32.5720   -4.9880 N.2   1389  YM41389    -0.3266
     32  C32       -3.2340   32.1640   -6.2640 C.2   1389  YM41389     0.2306
     33  C33       -4.0410   29.6140   -4.6300 C.3   1389  YM41389     0.1082
     34  C34       -5.1090   29.1410   -3.6320 C.3   1389  YM41389     0.0941
     35  N35       -5.5180   25.7120   -2.7980 N.ar  1389  YM41389    -0.0803
     36  O36       -5.3720   24.3090   -3.0550 O.2   1389  YM41389    -0.3580
@<TRIPOS>BOND
     1    13    14    1
     2    13    11    1
     3    12    11    1
     4    14    15    2
     5    11    10    2
     6    15    16    2
     7    15    32    1
     8    10    32    1
     9    10     9    1
    10    16    17    2
    11    32    31    2
    12     8     9    1
    13     8     7    1
    14     9    33    1
    15     7     6    1
    16    17    31    2
    17    17    18    1
    18    33    34    1
    19     1     2    1
    20     6    34    1
    21     6     5    1
    22    30    18   ar
    23    30    29   ar
    24     3     2   ar
    25     3     4   ar
    26    18    19   ar
    27     2    36   ar
    28     5     4    1
    29     4    35   ar
    30    29    21   ar
    31    36    35   ar
    32    19    20   ar
    33    21    20   ar
    34    21    22    1
    35    22    28    1
    36    22    23    1
    37    28    27    1
    38    27    25    1
    39    23    24    1
    40    24    25    1
    41    25    26    1
