@<TRIPOS>MOLECULE
2x6f_3MA_A_1.pdb
 11 12 0 0 0
SMALL
GASTEIGER

@<TRIPOS>ATOM
      1  N9        18.6280   36.5340    6.2340 N.2   1949  3MA1949    -0.0346
      2  C4        17.4110   36.9660    6.6110 C.2   1949  3MA1949     0.3494
      3  N3        16.5410   37.8870    6.1510 N.pl3 1949  3MA1949    -0.1388
      4  CN3       16.8800   38.6810    4.9480 C.3   1949  3MA1949     0.2573
      5  C2        15.3610   38.0770    6.7930 C.3   1949  3MA1949     0.4722
      6  N1        14.9670   37.4030    7.8980 N.2   1949  3MA1949    -0.0033
      7  C6        15.7560   36.4480    8.4510 C.2   1949  3MA1949     0.4391
      8  N6        15.4060   35.7420    9.5530 N.pl3 1949  3MA1949     0.2180
      9  C5        17.0550   36.1720    7.8110 C.2   1949  3MA1949     0.2527
     10  N7        18.0750   35.3280    8.0640 N.2   1949  3MA1949    -0.2043
     11  C8        19.0160   35.5530    7.1070 C.3   1949  3MA1949     0.3923
@<TRIPOS>BOND
     1     4     3    1
     2     3     2    1
     3     3     5    1
     4     1     2    2
     5     1    11    1
     6     2     9    1
     7     5     6    1
     8    11    10    1
     9     9    10    2
    10     9     7    1
    11     6     7    2
    12     7     8    1
