@<TRIPOS>MOLECULE
2x6i_090_A_1.pdb
 26 29 0 0 0
SMALL
GASTEIGER

@<TRIPOS>ATOM
      1  OAU       20.2550   34.4150    7.0350 O.2   1949  0901949    -0.2678
      2  CAO       19.9490   34.3170    8.2050 C.2   1949  0901949     0.2738
      3  CAP       20.7390   33.4230    9.1890 C.ar  1949  0901949     0.0746
      4  CAQ       20.2670   33.3120   10.6140 C.ar  1949  0901949     0.1034
      5  NAR       20.8630   32.4680   11.4830 N.ar  1949  0901949    -0.2422
      6  CAX       21.9710   31.7220   11.0780 C.ar  1949  0901949     0.0989
      7  CAW       22.4680   31.8640    9.7280 C.ar  1949  0901949     0.0208
      8  CAV       21.8090   32.6880    8.8020 C.ar  1949  0901949     0.0077
      9  NAN       18.5990   34.6830    8.6100 N.am  1949  0901949    -0.1292
     10  CAM       18.0000   35.8260    8.0030 C.2   1949  0901949     0.2828
     11  NAL       18.7490   36.4340    6.9170 N.2   1949  0901949    -0.3658
     12  CAK       18.1760   37.6000    6.2640 C.2   1949  0901949     0.1736
     13  CAJ       18.7570   38.0850    5.1380 C.2   1949  0901949     0.1980
     14  OAT       19.9930   37.5540    4.7890 O.2   1949  0901949    -0.4661
     15  CAZ       21.1390   38.3470    5.0080 C.3   1949  0901949     0.2527
     16  CAE       16.8620   38.0630    6.6240 C.2   1949  0901949     0.0635
     17  CAF       16.1730   37.4990    7.8430 C.ar  1949  0901949     0.1528
     18  NAG       16.7130   36.3770    8.4870 N.ar  1949  0901949    -0.2499
     19  CAH       16.0510   35.9200    9.6020 C.ar  1949  0901949     0.1057
     20  CAB       14.8420   36.8770    9.7290 C.ar  1949  0901949     0.1196
     21  NAA       14.9710   37.8700    8.5770 N.ar  1949  0901949    -0.2247
     22  CAD       16.2270   39.0410    5.8890 C.2   1949  0901949    -0.0124
     23  CAC       16.8440   39.5650    4.7500 C.3   1949  0901949     0.0934
     24  CAI       18.1350   39.1130    4.3980 C.2   1949  0901949     0.1568
     25  OAS       18.7440   39.6470    3.2490 O.2   1949  0901949    -0.4722
     26  CAY       18.1290   40.6320    2.4480 C.3   1949  0901949     0.2521
@<TRIPOS>BOND
     1    26    25    1
     2    25    24    1
     3    24    23    1
     4    24    13    2
     5    23    22    1
     6    14    15    1
     7    14    13    1
     8    13    12    1
     9    22    16    2
    10    12    16    1
    11    12    11    2
    12    16    17    1
    13    11    10    2
    14     1     2    2
    15    17    18   ar
    16    17    21   ar
    17    10    18    1
    18    10     9    1
    19     2     9   am
    20     2     3    1
    21    18    19   ar
    22    21    20   ar
    23     8     3   ar
    24     8     7   ar
    25     3     4   ar
    26    19    20   ar
    27     7     6   ar
    28     4     5   ar
    29     6     5   ar
