@<TRIPOS>MOLECULE
2x6j_093_A_1.pdb
 24 25 0 0 0
SMALL
GASTEIGER

@<TRIPOS>ATOM
      1  OAM       20.6980   32.0750    6.1230 O.2   1949  0931949    -0.1483
      2  SAN       21.2220   33.3680    6.5630 S.O2  1949  0931949     0.0938
      3  OAO       21.3360   34.2560    5.3920 O.2   1949  0931949    -0.1483
      4  NAU       22.7420   33.2050    7.3710 N.pl3 1949  0931949    -0.0917
      5  CAV       23.4600   34.4800    7.4270 C.2   1949  0931949     0.1529
      6  CAW       24.9010   34.4980    7.9640 C.2   1949  0931949     0.2536
      7  OAX       25.6070   35.7100    7.8990 O.2   1949  0931949    -0.2816
      8  CAF       19.9740   33.9790    7.7240 C.ar  1949  0931949     0.1372
      9  CAB       19.8240   33.4140    8.9550 C.ar  1949  0931949     0.0765
     10 CL         21.0130   32.2130    9.4960 Cl    1949  0931949    -0.0808
     11  CAC       18.8150   33.8830    9.8630 C.ar  1949  0931949     0.0125
     12  CAD       17.8590   34.8910    9.4000 C.ar  1949  0931949    -0.0021
     13  CAG       19.0240   35.0150    7.2610 C.ar  1949  0931949     0.0181
     14  CAH       17.9970   35.4070    8.1020 C.ar  1949  0931949    -0.0044
     15  CAI       17.1280   36.4880    7.5040 C.3   1949  0931949     0.1256
     16  CAJ       15.8990   37.1700    8.2190 C.2   1949  0931949     0.1035
     17  CAE       15.4060   36.8140    9.6170 C.3   1949  0931949     0.0628
     18  NAK       15.2340   38.2630    7.2700 N.2   1949  0931949    -0.3864
     19  SAP       17.3430   37.2140    6.0760 S.3   1949  0931949    -0.0548
     20  CAQ       15.9940   38.3110    5.9620 C.2   1949  0931949     0.2328
     21  NAR       15.8010   39.1800    4.8120 N.am  1949  0931949    -0.1437
     22  CAS       16.9450   39.4540    3.9420 C.2   1949  0931949     0.2486
     23  OAL       18.0140   38.9850    4.1630 O.2   1949  0931949    -0.2729
     24  CAT       16.7860   40.3580    2.7170 C.3   1949  0931949     0.0969
@<TRIPOS>BOND
     1    24    22    1
     2    22    23    2
     3    22    21   am
     4    21    20    1
     5     3     2    2
     6    20    19    1
     7    20    18    2
     8    19    15    1
     9     1     2    2
    10     2     4    1
    11     2     8    1
    12    13     8   ar
    13    13    14   ar
    14    18    16    2
    15     4     5    1
    16     5     6    2
    17    15    14    1
    18    15    16    1
    19     8     9   ar
    20     7     6    1
    21    14    12   ar
    22    16    17    1
    23     9    10    1
    24     9    11   ar
    25    12    11   ar
