@<TRIPOS>MOLECULE
2x6k_X6K_A_1.pdb
 26 30 0 0 0
SMALL
GASTEIGER

@<TRIPOS>ATOM
      1  N01       20.9070   38.1250    3.5490 N.ar  1951  X6K1951    -0.2101
      2  C02       22.1610   38.0530    3.0680 C.ar  1951  X6K1951     0.1021
      3  C03       23.1070   37.1930    3.6680 C.ar  1951  X6K1951     0.0210
      4  C04       22.7340   36.4190    4.7590 C.ar  1951  X6K1951     0.0086
      5  C05       21.4250   36.4920    5.2640 C.ar  1951  X6K1951     0.0835
      6  C06       20.5210   37.3190    4.6860 C.ar  1951  X6K1951     0.2278
      7  O07       19.2710   37.1890    5.4070 O.3   1951  X6K1951    -0.4477
      8  C08       19.4480   36.2280    6.4770 C.3   1951  X6K1951     0.2863
      9  C09       20.7340   35.7910    6.4170 C.2   1951  X6K1951     0.1739
     10  N10       21.1680   34.9040    7.2820 N.2   1951  X6K1951    -0.3400
     11  C11       18.5700   35.7180    7.4710 C.2   1951  X6K1951     0.2202
     12  N12       17.1840   36.1460    7.6180 N.pl3 1951  X6K1951    -0.2779
     13  C13       16.7700   37.0380    6.5150 C.3   1951  X6K1951     0.1250
     14  C14       15.9240   38.2060    7.0130 C.3   1951  X6K1951     0.1636
     15  O15       14.9370   37.8270    7.9890 O.3   1951  X6K1951    -0.3501
     16  C16       15.4280   37.0730    9.1090 C.3   1951  X6K1951     0.1636
     17  C17       16.2170   35.8280    8.6670 C.3   1951  X6K1951     0.1250
     18  N18       19.0270   34.8180    8.3530 N.2   1951  X6K1951    -0.3250
     19  C19       20.2740   34.3910    8.2900 C.1   1951  X6K1951     0.1388
     20  C20       20.8010   33.3910    9.3040 C.ar  1951  X6K1951     0.0888
     21  C21       20.1500   33.2040   10.4930 C.ar  1951  X6K1951     0.0122
     22  C22       20.6570   32.3020   11.4430 C.ar  1951  X6K1951     0.0040
     23  C23       21.9040   31.6110   11.1650 C.ar  1951  X6K1951     0.0421
     24  C24       22.6000   31.8460    9.9510 C.ar  1951  X6K1951     0.1965
     25  O25       23.8160   31.2050    9.6610 O.3   1951  X6K1951    -0.2865
     26  C26       22.0980   32.7070    9.0270 C.ar  1951  X6K1951     0.0540
@<TRIPOS>BOND
     1     2     1   ar
     2     2     3   ar
     3     1     6   ar
     4     3     4   ar
     5     6     5   ar
     6     6     7    1
     7     4     5   ar
     8     5     9    1
     9     7     8    1
    10     9     8    1
    11     9    10    2
    12     8    11    1
    13    13    14    1
    14    13    12    1
    15    14    15    1
    16    10    19    2
    17    11    12    1
    18    11    18    2
    19    12    17    1
    20    15    16    1
    21    19    18    2
    22    19    20    1
    23    17    16    1
    24    26    20   ar
    25    26    24   ar
    26    20    21   ar
    27    25    24    1
    28    24    23   ar
    29    21    22   ar
    30    23    22   ar
