@<TRIPOS>MOLECULE
2x6o_2TC_A_1.pdb
 32 35 0 0 0
SMALL
GASTEIGER

@<TRIPOS>ATOM
      1  C1        20.9690   35.1580   33.9470 C.2   1209  2TC1209     0.2152
      2  O1        20.6100   35.6930   32.8620 O.2   1209  2TC1209    -0.2879
      3  C2        20.0750   34.2950   34.7320 C.2   1209  2TC1209     0.1414
      4  C21       18.9170   33.6270   34.1010 C.1   1209  2TC1209     0.1064
      5  N21       17.9960   33.0860   33.6350 N.1   1209  2TC1209    -0.1906
      6  C3        20.3430   34.0470   36.0670 C.2   1209  2TC1209     0.1999
      7  O3        19.5170   33.2180   36.7330 O.2   1209  2TC1209    -0.2891
      8  C4        21.4810   34.7160   36.8480 C.3   1209  2TC1209     0.1237
      9  N4        22.3150   33.7830   37.6880 N.3   1209  2TC1209    -0.2651
     10  C43       22.9670   34.4570   38.8160 C.3   1209  2TC1209     0.0900
     11  C42       23.3480   32.9970   37.0110 C.3   1209  2TC1209     0.0900
     12  C41       22.3330   35.6990   35.9740 C.3   1209  2TC1209     0.0600
     13  C5        21.8760   37.1670   36.1200 C.3   1209  2TC1209     0.0087
     14  C51       22.8210   38.1350   35.3900 C.3   1209  2TC1209     0.0436
     15  C6        22.5390   39.6340   35.6140 C.3   1209  2TC1209     0.1560
     16  C62       22.7890   40.0320   37.0670 C.3   1209  2TC1209     0.0484
     17  O6        21.1890   40.0350   35.3080 O.3   1209  2TC1209    -0.4484
     18  C61       23.3680   40.5700   34.7730 C.ar  1209  2TC1209     0.0336
     19  C7        24.7630   40.6530   34.6390 C.ar  1209  2TC1209     0.0573
     20  C8        25.2660   41.6490   33.7860 C.ar  1209  2TC1209     0.0145
     21  C9        24.4060   42.5440   33.1040 C.ar  1209  2TC1209     0.0431
     22  C10       23.0270   42.4390   33.2720 C.ar  1209  2TC1209     0.2018
     23  O10       22.1880   43.2470   32.6580 O.3   1209  2TC1209    -0.2864
     24  C1A       22.5400   41.4540   34.1180 C.ar  1209  2TC1209     0.1145
     25  O11       20.1590   41.8150   33.8530 O.2   1209  2TC1209    -0.2448
     26  C1B       22.7990   37.7330   33.9540 C.3   1209  2TC1209     0.0397
     27  C12       23.1670   36.4450   33.7560 C.3   1209  2TC1209     0.1869
     28  O12       24.1890   36.2070   32.9820 O.3   1209  2TC1209    -0.2200
     29  C1C       22.4020   35.3460   34.4870 C.3   1209  2TC1209     0.2110
     30 CL7        25.8840   39.5220   35.4870 Cl    1209  2TC1209    -0.0825
     31  C11       21.1440   41.1750   34.3930 C.2   1209  2TC1209     0.3443
     32  O1C       23.0910   34.0990   34.4150 O.3   1209  2TC1209    -0.2151
@<TRIPOS>BOND
     1    23    22    1
     2     2     1    2
     3    28    27    1
     4    21    22   ar
     5    21    20   ar
     6    22    24   ar
     7     5     4    3
     8    27    26    1
     9    27    29    1
    10    20    19   ar
    11    25    31    2
    12     1    29    1
    13     1     3    1
    14    26    14    1
    15     4     3    1
    16    24    31    1
    17    24    18   ar
    18    31    17    1
    19    32    29    1
    20    29    12    1
    21    19    18   ar
    22    19    30    1
    23     3     6    2
    24    18    15    1
    25    17    15    1
    26    14    15    1
    27    14    13    1
    28    15    16    1
    29    12    13    1
    30    12     8    1
    31     6     7    1
    32     6     8    1
    33     8     9    1
    34    11     9    1
    35     9    10    1
