@<TRIPOS>MOLECULE
2x6t_BMA_A_1.pdb
 11 11 0 0 0
SMALL
GASTEIGER

@<TRIPOS>ATOM
      1  C1        50.8480  -37.2830  -44.0330 C.3   1321  BMA1321     0.1777
      2  C2        49.4950  -37.4150  -44.7090 C.3   1321  BMA1321     0.2141
      3  C3        49.2140  -36.1760  -45.5500 C.3   1321  BMA1321     0.2173
      4  C4        49.2510  -34.9110  -44.7110 C.3   1321  BMA1321     0.2142
      5  C5        50.6100  -34.8770  -44.0400 C.3   1321  BMA1321     0.1810
      6  C6        50.6580  -33.7000  -43.1030 C.3   1321  BMA1321     0.2141
      7  O2        48.4950  -37.5510  -43.7280 O.3   1321  BMA1321    -0.2176
      8  O3        47.9230  -36.2870  -46.0890 O.3   1321  BMA1321    -0.2175
      9  O4        49.0590  -33.7410  -45.5020 O.3   1321  BMA1321    -0.2176
     10  O5        50.8470  -36.0680  -43.2640 O.3   1321  BMA1321    -0.3481
     11  O6        51.9860  -33.2760  -42.9410 O.3   1321  BMA1321    -0.2176
@<TRIPOS>BOND
     1     8     3    1
     2     3     4    1
     3     3     2    1
     4     9     4    1
     5     4     5    1
     6     2     1    1
     7     2     7    1
     8     5    10    1
     9     5     6    1
    10     1    10    1
    11     6    11    1
