@<TRIPOS>MOLECULE
2x6t_NAP_A_1.pdb
 48 52 0 0 0
SMALL
GASTEIGER

@<TRIPOS>ATOM
      1  PA        42.5530  -33.9910  -47.5750 P.3   1308  NAP1308     0.2189
      2  O1A       41.6490  -35.0910  -47.1860 O.3   1308  NAP1308    -0.4371
      3  O2A       43.2460  -34.2550  -48.8490 O.2   1308  NAP1308    -0.5170
      4  O5B       41.7320  -32.6120  -47.6300 O.3   1308  NAP1308    -0.3112
      5  C5B       42.1220  -31.6120  -48.5470 C.3   1308  NAP1308     0.1813
      6  C4B       41.0370  -31.3950  -49.5960 C.3   1308  NAP1308     0.1820
      7  O4B       41.1910  -30.1210  -50.2020 O.3   1308  NAP1308    -0.3136
      8  C3B       41.0730  -32.4080  -50.7300 C.3   1308  NAP1308     0.2157
      9  O3B       39.7470  -32.8260  -50.9850 O.3   1308  NAP1308    -0.2175
     10  C2B       41.7250  -31.6220  -51.8630 C.3   1308  NAP1308     0.2314
     11  O2B       41.5240  -32.0840  -53.1870 O.3   1308  NAP1308    -0.2630
     12  C1B       41.1640  -30.2310  -51.6230 C.3   1308  NAP1308     0.3158
     13  N9A       41.9780  -29.0890  -52.0520 N.pl3 1308  NAP1308    -0.1439
     14  C8A       43.2520  -29.0760  -52.5340 C.3   1308  NAP1308     0.3377
     15  N7A       43.6120  -27.7920  -52.7320 N.2   1308  NAP1308    -0.2095
     16  C5A       42.5950  -26.9870  -52.3730 C.2   1308  NAP1308     0.2526
     17  C6A       42.4360  -25.6070  -52.3670 C.2   1308  NAP1308     0.4393
     18  N6A       43.4050  -24.7910  -52.7700 N.pl3 1308  NAP1308     0.2180
     19  N1A       41.2500  -25.0780  -51.9340 N.2   1308  NAP1308     0.0021
     20  C2A       40.2260  -25.9000  -51.5110 C.3   1308  NAP1308     0.5254
     21  N3A       40.3920  -27.2630  -51.5160 N.2   1308  NAP1308    -0.0055
     22  C4A       41.5620  -27.7950  -51.9400 C.2   1308  NAP1308     0.3518
     23  O3        43.6380  -33.7460  -46.4260 O.3   1308  NAP1308    -0.2703
     24  PN        43.4280  -33.4680  -44.8600 P.3   1308  NAP1308     0.2189
     25  O1N       44.0370  -34.5940  -44.1010 O.3   1308  NAP1308    -0.4371
     26  O2N       42.0280  -33.0580  -44.6490 O.2   1308  NAP1308    -0.5170
     27  O5D       44.3280  -32.1720  -44.6240 O.3   1308  NAP1308    -0.3112
     28  C5D       43.6720  -30.9240  -44.6160 C.3   1308  NAP1308     0.1813
     29  C4D       44.7110  -29.8630  -44.3370 C.3   1308  NAP1308     0.1799
     30  O4D       45.4610  -30.2410  -43.1960 O.3   1308  NAP1308    -0.3327
     31  C3D       45.7030  -29.7860  -45.4810 C.3   1308  NAP1308     0.2158
     32  O3D       46.2650  -28.5040  -45.6160 O.3   1308  NAP1308    -0.2175
     33  C2D       46.8030  -30.7200  -45.0410 C.3   1308  NAP1308     0.2309
     34  O2D       48.0210  -30.3590  -45.6430 O.3   1308  NAP1308    -0.2158
     35  C1D       46.8160  -30.4230  -43.5580 C.3   1308  NAP1308     0.2263
     36  N1N       47.4140  -31.4550  -42.6960 N.pl3 1308  NAP1308    -0.2787
     37  C2N       46.8270  -32.6850  -42.5250 C.3   1308  NAP1308     0.1244
     38  C3N       47.4200  -33.6110  -41.6770 C.2   1308  NAP1308     0.0544
     39  C7N       46.8340  -34.9790  -41.4850 C.2   1308  NAP1308     0.2818
     40  O7N       47.5780  -35.9080  -40.7210 O.2   1308  NAP1308    -0.2670
     41  N7N       45.6450  -35.2810  -42.0270 N.am  1308  NAP1308    -0.0839
     42  C4N       48.5870  -33.2740  -40.9980 C.2   1308  NAP1308     0.0033
     43  C5N       49.1660  -32.0180  -41.1750 C.2   1308  NAP1308     0.0157
     44  C6N       48.5580  -31.1120  -42.0330 C.2   1308  NAP1308     0.0633
     45  P2B       42.7760  -32.2340  -54.2410 P.3   1308  NAP1308     0.5328
     46  O1X       42.5160  -33.5350  -54.9810 O.3   1308  NAP1308    -0.1145
     47  O2X       42.8710  -31.0750  -55.2210 O.2   1308  NAP1308    -0.2224
     48  O3X       44.1050  -32.3350  -53.5470 O.3   1308  NAP1308    -0.1145
@<TRIPOS>BOND
     1    47    45    2
     2    46    45    1
     3    45    48    1
     4    45    11    1
     5    11    10    1
     6    18    17    1
     7    15    14    1
     8    15    16    2
     9    14    13    1
    10    16    17    1
    11    16    22    1
    12    17    19    2
    13    13    22    1
    14    13    12    1
    15    22    21    2
    16    19    20    1
    17    10    12    1
    18    10     8    1
    19    12     7    1
    20    21    20    1
    21     9     8    1
    22     8     6    1
    23     7     6    1
    24     6     5    1
    25     3     1    2
    26     5     4    1
    27     4     1    1
    28     1     2    1
    29     1    23    1
    30    23    24    1
    31    34    33    1
    32    32    31    1
    33    31    33    1
    34    31    29    1
    35    33    35    1
    36    24    26    2
    37    24    27    1
    38    24    25    1
    39    27    28    1
    40    28    29    1
    41    29    30    1
    42    35    30    1
    43    35    36    1
    44    36    37    1
    45    36    44    1
    46    37    38    1
    47    44    43    2
    48    41    39   am
    49    38    39    1
    50    38    42    2
    51    39    40    2
    52    43    42    1
