@<TRIPOS>MOLECULE
2x6t_ADP_A_1.pdb
 27 29 0 0 0
SMALL
GASTEIGER

@<TRIPOS>ATOM
      1  PB        52.6160  -38.6790  -42.8650 P.3   1320  ADP1320     0.5373
      2  O1B       52.7590  -39.9290  -41.9770 O.3   1320  ADP1320    -0.1143
      3  O2B       53.2500  -37.4720  -42.1600 O.3   1320  ADP1320    -0.1143
      4  O3B       51.0490  -38.3980  -43.1680 O.2   1320  ADP1320    -0.2221
      5  PA        54.6550  -39.6160  -44.5570 P.3   1320  ADP1320     0.2231
      6  O1A       55.5240  -39.6990  -43.3690 O.3   1320  ADP1320    -0.4370
      7  O2A       55.3670  -38.7610  -45.7120 O.2   1320  ADP1320    -0.5169
      8  O3A       53.2400  -38.8640  -44.3340 O.3   1320  ADP1320    -0.2261
      9  O5'       54.3850  -41.1140  -45.1070 O.3   1320  ADP1320    -0.3111
     10  C5'       53.3380  -41.1280  -46.0960 C.3   1320  ADP1320     0.1813
     11  C4'       52.3980  -42.3100  -45.8410 C.3   1320  ADP1320     0.1821
     12  O4'       53.1680  -43.5060  -45.6390 O.3   1320  ADP1320    -0.3135
     13  C3'       51.5580  -42.0950  -44.5680 C.3   1320  ADP1320     0.2184
     14  O3'       50.2950  -41.4520  -44.8020 O.3   1320  ADP1320    -0.2174
     15  C2'       51.3280  -43.5400  -44.0740 C.3   1320  ADP1320     0.2570
     16  O2'       50.1230  -44.0850  -44.6120 O.3   1320  ADP1320    -0.2130
     17  C1'       52.5590  -44.3080  -44.5990 C.3   1320  ADP1320     0.3186
     18  N9        53.4740  -44.5690  -43.4850 N.pl3 1320  ADP1320    -0.1439
     19  C8        54.2740  -43.6740  -42.8340 C.3   1320  ADP1320     0.3377
     20  N7        54.9430  -44.2740  -41.8940 N.2   1320  ADP1320    -0.2095
     21  C5        54.6070  -45.5860  -41.8790 C.2   1320  ADP1320     0.2526
     22  C6        54.9910  -46.7070  -41.1200 C.2   1320  ADP1320     0.4393
     23  N6        55.9160  -46.5810  -40.1050 N.pl3 1320  ADP1320     0.2180
     24  N1        54.4490  -47.8860  -41.4020 N.2   1320  ADP1320     0.0021
     25  C2        53.5600  -48.0280  -42.3660 C.3   1320  ADP1320     0.5254
     26  N3        53.1740  -47.0090  -43.0970 N.2   1320  ADP1320    -0.0055
     27  C4        53.6630  -45.7910  -42.8980 C.2   1320  ADP1320     0.3518
@<TRIPOS>BOND
     1    10    11    1
     2    10     9    1
     3    11    12    1
     4    11    13    1
     5     7     5    2
     6    12    17    1
     7     9     5    1
     8    14    13    1
     9    16    15    1
    10    17    15    1
    11    17    18    1
    12    13    15    1
    13     5     8    1
    14     5     6    1
    15     8     1    1
    16    18    27    1
    17    18    19    1
    18     4     1    2
    19    26    27    2
    20    26    25    1
    21    27    21    1
    22     1     3    1
    23     1     2    1
    24    19    20    1
    25    25    24    1
    26    20    21    2
    27    21    22    1
    28    24    22    2
    29    22    23    1
