@<TRIPOS>MOLECULE
2x6w_GLA_A_1.pdb
 11 11 0 0 0
SMALL
GASTEIGER

@<TRIPOS>ATOM
      1  C1         9.4390  -13.7540   36.6340 C.3   722  GLA722      0.1777
      2  C2         9.0040  -14.9370   35.7610 C.3   722  GLA722      0.2141
      3  C3         9.4910  -14.7470   34.3300 C.3   722  GLA722      0.2173
      4  C4         9.0510  -13.3800   33.7940 C.3   722  GLA722      0.2142
      5  C5         9.5820  -12.3040   34.7650 C.3   722  GLA722      0.1810
      6  C6         9.2450  -10.8730   34.3540 C.3   722  GLA722      0.2141
      7  O2         9.3800  -16.1450   36.3570 O.3   722  GLA722     -0.2176
      8  O3         9.0080  -15.7940   33.5290 O.3   722  GLA722     -0.2175
      9  O4         7.7090  -13.2770   33.6860 O.3   722  GLA722     -0.2176
     10  O5         9.0980  -12.5090   36.0820 O.3   722  GLA722     -0.3481
     11  O6         9.8120  -10.6270   33.0880 O.3   722  GLA722     -0.2176
@<TRIPOS>BOND
     1    11     6    1
     2     8     3    1
     3     9     4    1
     4     4     3    1
     5     4     5    1
     6     3     2    1
     7     6     5    1
     8     5    10    1
     9     2     7    1
    10     2     1    1
    11    10     1    1
