@<TRIPOS>MOLECULE
2x6w_GLC_A_1.pdb
 11 11 0 0 0
SMALL
GASTEIGER

@<TRIPOS>ATOM
      1  C1        11.2780  -13.8830   43.2750 C.3   725  GLC725      0.1777
      2  C2        11.2750  -13.0110   44.5260 C.3   725  GLC725      0.2141
      3  C3        12.2460  -13.6530   45.5260 C.3   725  GLC725      0.2173
      4  C4        11.8700  -15.1060   45.7850 C.3   725  GLC725      0.2142
      5  C5        11.6710  -15.8990   44.5030 C.3   725  GLC725      0.1810
      6  C6        11.1210  -17.3010   44.7750 C.3   725  GLC725      0.2141
      7  O2        11.6030  -11.6770   44.2150 O.3   725  GLC725     -0.2176
      8  O3        12.3090  -12.9180   46.7380 O.3   725  GLC725     -0.2175
      9  O4        12.9040  -15.7240   46.5180 O.3   725  GLC725     -0.2176
     10  O5        10.7920  -15.1780   43.6360 O.3   725  GLC725     -0.3481
     11  O6         9.8960  -17.2550   45.4720 O.3   725  GLC725     -0.2176
@<TRIPOS>BOND
     1     1    10    1
     2     1     2    1
     3    10     5    1
     4     7     2    1
     5     5     6    1
     6     5     4    1
     7     2     3    1
     8     6    11    1
     9     3     4    1
    10     3     8    1
    11     4     9    1
