@<TRIPOS>MOLECULE
2x6w_RAM_A_1.pdb
 10 10 0 0 0
SMALL
GASTEIGER

@<TRIPOS>ATOM
      1  C1         6.0240  -16.1530   28.3260 C.3   720  RAM720      0.1776
      2  C2         5.6450  -15.3830   27.0580 C.3   720  RAM720      0.2141
      3  C3         6.7980  -15.2990   26.0610 C.3   720  RAM720      0.2172
      4  C4         7.3760  -16.6780   25.8710 C.3   720  RAM720      0.2116
      5  C5         7.8090  -17.2560   27.2160 C.3   720  RAM720      0.1483
      6  C6         8.3900  -18.6460   27.0350 C.3   720  RAM720      0.0349
      7  O2         4.5280  -16.0260   26.5100 O.3   720  RAM720     -0.2176
      8  O3         6.3610  -14.7610   24.8240 O.3   720  RAM720     -0.2175
      9  O4         8.4940  -16.5410   25.0150 O.3   720  RAM720     -0.2177
     10  O5         6.6790  -17.3830   28.0670 O.3   720  RAM720     -0.3508
@<TRIPOS>BOND
     1     8     3    1
     2     9     4    1
     3     4     3    1
     4     4     5    1
     5     3     2    1
     6     7     2    1
     7     6     5    1
     8     2     1    1
     9     5    10    1
    10    10     1    1
