@<TRIPOS>MOLECULE
2x6x_GLA_A_1.pdb
 12 12 0 0 0
SMALL
GASTEIGER

@<TRIPOS>ATOM
      1  C1         9.1950  -13.5550   36.6610 C.3   722  GLA722      0.3024
      2  C2         8.9070  -14.8590   35.9340 C.3   722  GLA722      0.2434
      3  C3         9.4150  -14.6830   34.4880 C.3   722  GLA722      0.2199
      4  C4         9.0720  -13.2940   33.8960 C.3   722  GLA722      0.2144
      5  C5         9.6340  -12.1490   34.7850 C.3   722  GLA722      0.1836
      6  C6         9.1890  -10.7430   34.3920 C.3   722  GLA722      0.2142
      7  O1        10.6050  -13.7190   36.7890 O.3   722  GLA722     -0.1869
      8  O2         9.5450  -15.9390   36.5640 O.3   722  GLA722     -0.2148
      9  O3         8.9020  -15.7490   33.7330 O.3   722  GLA722     -0.2174
     10  O4         7.7700  -13.1660   33.5930 O.3   722  GLA722     -0.2176
     11  O5         9.3150  -12.2480   36.1720 O.3   722  GLA722     -0.3236
     12  O6        10.1670  -10.1150   33.6210 O.3   722  GLA722     -0.2176
@<TRIPOS>BOND
     1    10     4    1
     2    12     6    1
     3     9     3    1
     4     4     3    1
     5     4     5    1
     6     6     5    1
     7     3     2    1
     8     5    11    1
     9     2     8    1
    10     2     1    1
    11    11     1    1
    12     1     7    1
