@<TRIPOS>MOLECULE
2x6x_RAM_A_1.pdb
 10 10 0 0 0
SMALL
GASTEIGER

@<TRIPOS>ATOM
      1  O2         4.4550  -16.0700   26.6010 O.3   720  RAM720     -0.2176
      2  O3         6.2230  -14.7790   24.8930 O.3   720  RAM720     -0.2175
      3  O4         8.4160  -16.4790   25.0490 O.3   720  RAM720     -0.2177
      4  O5         6.5940  -17.4050   28.1130 O.3   720  RAM720     -0.3508
      5  C1         5.9510  -16.1720   28.4080 C.3   720  RAM720      0.1776
      6  C2         5.5450  -15.3880   27.1560 C.3   720  RAM720      0.2141
      7  C3         6.6750  -15.2910   26.1390 C.3   720  RAM720      0.2172
      8  C4         7.3180  -16.6580   25.9250 C.3   720  RAM720      0.2116
      9  C5         7.7280  -17.2900   27.2700 C.3   720  RAM720      0.1483
     10  C6         8.2640  -18.7110   27.1110 C.3   720  RAM720      0.0349
@<TRIPOS>BOND
     1     2     7    1
     2     3     8    1
     3     8     7    1
     4     8     9    1
     5     7     6    1
     6     1     6    1
     7    10     9    1
     8     6     5    1
     9     9     4    1
    10     4     5    1
