@<TRIPOS>MOLECULE
2x6y_GLC_A_1.pdb
 11 11 0 0 0
SMALL
GASTEIGER

@<TRIPOS>ATOM
      1  C1        10.9120  -14.0730   43.5510 C.3   1717  GLC1717     0.1777
      2  C2        10.9260  -13.2430   44.8230 C.3   1717  GLC1717     0.2141
      3  C3        12.0190  -13.8030   45.7320 C.3   1717  GLC1717     0.2173
      4  C4        11.7350  -15.2800   45.9900 C.3   1717  GLC1717     0.2142
      5  C5        11.4870  -16.0640   44.6930 C.3   1717  GLC1717     0.1810
      6  C6        11.0810  -17.5120   44.9660 C.3   1717  GLC1717     0.2141
      7  O2        11.1890  -11.8880   44.5230 O.3   1717  GLC1717    -0.2176
      8  O3        12.0830  -13.0640   46.9340 O.3   1717  GLC1717    -0.2175
      9  O4        12.8100  -15.8310   46.6970 O.3   1717  GLC1717    -0.2176
     10  O5        10.5310  -15.3790   43.9040 O.3   1717  GLC1717    -0.3481
     11  O6         9.8660  -17.5110   45.6780 O.3   1717  GLC1717    -0.2176
@<TRIPOS>BOND
     1     1    10    1
     2     1     2    1
     3    10     5    1
     4     7     2    1
     5     5     6    1
     6     5     4    1
     7     2     3    1
     8     6    11    1
     9     3     4    1
    10     3     8    1
    11     4     9    1
