@<TRIPOS>MOLECULE
2x6y_RAM_A_1.pdb
 10 10 0 0 0
SMALL
GASTEIGER

@<TRIPOS>ATOM
      1  C1         5.8020  -16.5310   28.4310 C.3   1712  RAM1712     0.1776
      2  C2         5.4300  -15.7620   27.1650 C.3   1712  RAM1712     0.2141
      3  C3         6.5890  -15.6550   26.1830 C.3   1712  RAM1712     0.2172
      4  C4         7.2430  -17.0140   26.0000 C.3   1712  RAM1712     0.2116
      5  C5         7.6400  -17.6050   27.3590 C.3   1712  RAM1712     0.1483
      6  C6         8.2600  -18.9920   27.2410 C.3   1712  RAM1712     0.0349
      7  O2         4.3580  -16.4000   26.5280 O.3   1712  RAM1712    -0.2176
      8  O3         6.1290  -15.1540   24.9390 O.3   1712  RAM1712    -0.2175
      9  O4         8.3600  -16.8500   25.1560 O.3   1712  RAM1712    -0.2177
     10  O5         6.4790  -17.7560   28.1590 O.3   1712  RAM1712    -0.3508
@<TRIPOS>BOND
     1     8     3    1
     2     9     4    1
     3     4     3    1
     4     4     5    1
     5     3     2    1
     6     7     2    1
     7     2     1    1
     8     6     5    1
     9     5    10    1
    10    10     1    1
