@<TRIPOS>MOLECULE
2x6y_GLA_A_1.pdb
 11 11 0 0 0
SMALL
GASTEIGER

@<TRIPOS>ATOM
      1  C1         9.0170  -14.0380   36.7280 C.3   1714  GLA1714     0.1777
      2  C2         8.6640  -15.2590   35.8710 C.3   1714  GLA1714     0.2141
      3  C3         9.1620  -15.0670   34.4350 C.3   1714  GLA1714     0.2173
      4  C4         8.7440  -13.7050   33.8710 C.3   1714  GLA1714     0.2142
      5  C5         9.2430  -12.6020   34.8260 C.3   1714  GLA1714     0.1810
      6  C6         8.8940  -11.1740   34.4150 C.3   1714  GLA1714     0.2141
      7  O2         9.1030  -16.4630   36.4810 O.3   1714  GLA1714    -0.2176
      8  O3         8.6680  -16.1310   33.6400 O.3   1714  GLA1714    -0.2175
      9  O4         7.4260  -13.5370   33.7120 O.3   1714  GLA1714    -0.2176
     10  O5         8.7470  -12.7720   36.1540 O.3   1714  GLA1714    -0.3481
     11  O6         9.4490  -10.8910   33.1570 O.3   1714  GLA1714    -0.2176
@<TRIPOS>BOND
     1    11     6    1
     2     8     3    1
     3     9     4    1
     4     4     3    1
     5     4     5    1
     6     6     5    1
     7     3     2    1
     8     5    10    1
     9     2     7    1
    10     2     1    1
    11    10     1    1
