@<TRIPOS>MOLECULE
2x71_L4C_A_1.pdb
 19 18 0 0 0
SMALL
GASTEIGER

@<TRIPOS>ATOM
      1  O17       24.9900   -9.7710   14.2960 O.co2 1291  L4C1291    -0.2456
      2  C9        24.4970   -8.6220   14.2310 C.2   1291  L4C1291     0.3653
      3  O16       23.6190   -8.2500   15.0400 O.co2 1291  L4C1291    -0.2456
      4  C10       24.9640   -7.6950   13.1190 C.3   1291  L4C1291     0.1207
      5  C11       25.4030   -6.3180   13.6050 C.3   1291  L4C1291     0.0679
      6  C8        24.2230   -5.5770   14.1960 C.2   1291  L4C1291     0.1767
      7  C12       24.0490   -5.4510   15.6320 C.2   1291  L4C1291     0.4042
      8  O19       22.9200   -5.2200   16.0570 O.co2 1291  L4C1291    -0.2391
      9  O18       25.0120   -5.5920   16.4000 O.co2 1291  L4C1291    -0.2391
     10  N1        23.3250   -5.0530   13.4770 N.2   1291  L4C1291    -0.0807
     11  O13       23.3490   -5.0820   12.1200 O.2   1291  L4C1291    -0.3750
     12  C5        22.3870   -4.3130   11.4010 C.3   1291  L4C1291     0.2679
     13  C3        22.6880   -2.8110   11.5300 C.3   1291  L4C1291     0.2058
     14  N2        24.0300   -2.5810   10.9860 N.am  1291  L4C1291    -0.1951
     15  C6        24.2890   -2.5530    9.6400 C.2   1291  L4C1291     0.2423
     16  C7        25.7180   -2.2840    9.2490 C.3   1291  L4C1291     0.0964
     17  O15       23.4110   -2.7410    8.8060 O.2   1291  L4C1291    -0.2733
     18  C4        22.6160   -2.3280   12.9790 C.2   1291  L4C1291     0.2327
     19  O14       23.6560   -2.0460   13.5820 O.2   1291  L4C1291    -0.2863
@<TRIPOS>BOND
     1    17    15    2
     2    16    15    1
     3    15    14   am
     4    14    13    1
     5    12    13    1
     6    12    11    1
     7    13    18    1
     8    11    10    1
     9    18    19    2
    10     4     5    1
    11     4     2    1
    12    10     6    2
    13     5     6    1
    14     6     7    1
    15     2     1   ar
    16     2     3   ar
    17     7     8   ar
    18     7     9   ar
