@<TRIPOS>MOLECULE
2x72_RET_A_1.pdb
 21 21 0 0 0
SMALL
GASTEIGER

@<TRIPOS>ATOM
      1  C1        39.0030  -30.9720   33.3780 C.3   1338  RET1338     0.0183
      2  C2        39.6870  -29.6020   33.3210 C.3   1338  RET1338     0.0044
      3  C3        39.0370  -28.5980   34.2620 C.3   1338  RET1338     0.0047
      4  C4        37.6040  -28.3960   33.8290 C.3   1338  RET1338     0.0217
      5  C5        36.9150  -29.6990   33.9060 C.2   1338  RET1338    -0.0479
      6  C6        37.5670  -30.8770   33.7650 C.2   1338  RET1338    -0.0307
      7  C7        37.0450  -32.2290   33.9550 C.2   1338  RET1338    -0.0052
      8  C8        35.9580  -32.5490   34.6790 C.2   1338  RET1338    -0.0046
      9  C9        35.4650  -33.8910   34.7750 C.2   1338  RET1338    -0.0219
     10  C10       34.2870  -34.1360   35.3790 C.2   1338  RET1338    -0.0043
     11  C11       33.6750  -35.4200   35.3170 C.2   1338  RET1338    -0.0006
     12  C12       32.5580  -35.7340   36.0000 C.2   1338  RET1338    -0.0042
     13  C13       31.9430  -37.0190   35.8140 C.2   1338  RET1338    -0.0186
     14  C14       31.1150  -37.5730   36.7270 C.2   1338  RET1338     0.0411
     15  C15       30.5510  -38.8940   36.5690 C.2   1338  RET1338     0.2339
     16  O1        29.9100  -39.4310   37.4730 O.2   1338  RET1338    -0.2832
     17  C16       39.6240  -31.9370   34.3890 C.3   1338  RET1338     0.0043
     18  C17       39.1530  -31.6300   32.0020 C.3   1338  RET1338     0.0043
     19  C18       35.4500  -29.5150   34.1290 C.3   1338  RET1338     0.0260
     20  C19       36.2470  -34.9870   34.1260 C.3   1338  RET1338     0.0310
     21  C20       32.3030  -37.7200   34.5510 C.3   1338  RET1338     0.0311
@<TRIPOS>BOND
     1    18     1    1
     2     2     1    1
     3     2     3    1
     4     1     6    1
     5     1    17    1
     6     6     5    2
     7     6     7    1
     8     4     5    1
     9     4     3    1
    10     5    19    1
    11     7     8    2
    12    20     9    1
    13    21    13    1
    14     8     9    1
    15     9    10    2
    16    11    10    1
    17    11    12    2
    18    13    12    1
    19    13    14    2
    20    15    14    1
    21    15    16    2
