@<TRIPOS>MOLECULE
2x75_AMP_A_1.pdb
 23 25 0 0 0
SMALL
GASTEIGER

@<TRIPOS>ATOM
      1  P         -2.0390  -15.1560   17.3900 P.3   1433  AMP1433     0.5327
      2  O1P       -1.4460  -15.6070   16.0660 O.2   1433  AMP1433    -0.2224
      3  O2P       -3.4010  -14.5050   17.2950 O.3   1433  AMP1433    -0.1145
      4  O3P       -1.0520  -14.3930   18.2390 O.3   1433  AMP1433    -0.1145
      5  O5'       -2.3030  -16.5170   18.2280 O.3   1433  AMP1433    -0.2675
      6  C5'       -3.4620  -17.3370   18.0340 C.3   1433  AMP1433     0.1860
      7  C4'       -3.9600  -17.9610   19.3410 C.3   1433  AMP1433     0.1823
      8  O4'       -5.0380  -18.8790   19.0720 O.3   1433  AMP1433    -0.3135
      9  C3'       -2.8800  -18.7870   20.0310 C.3   1433  AMP1433     0.2184
     10  O3'       -3.1000  -18.8030   21.4530 O.3   1433  AMP1433    -0.2174
     11  C2'       -3.0680  -20.1520   19.3970 C.3   1433  AMP1433     0.2570
     12  O2'       -2.5370  -21.2580   20.1370 O.3   1433  AMP1433    -0.2130
     13  C1'       -4.5830  -20.2320   19.2940 C.3   1433  AMP1433     0.3186
     14  N9        -5.0020  -21.2040   18.2450 N.pl3 1433  AMP1433    -0.1439
     15  C8        -4.2520  -22.1950   17.7130 C.3   1433  AMP1433     0.3377
     16  N7        -4.9680  -22.8950   16.7960 N.2   1433  AMP1433    -0.2095
     17  C5        -6.2020  -22.3610   16.7350 C.2   1433  AMP1433     0.2526
     18  C6        -7.4530  -22.6250   15.9700 C.2   1433  AMP1433     0.4393
     19  N6        -7.5240  -23.6350   15.0590 N.pl3 1433  AMP1433     0.2180
     20  N1        -8.5190  -21.8210   16.2250 N.2   1433  AMP1433     0.0021
     21  C2        -8.4600  -20.8110   17.1290 C.3   1433  AMP1433     0.5254
     22  N3        -7.3540  -20.5200   17.8490 N.2   1433  AMP1433    -0.0055
     23  C4        -6.2180  -21.2480   17.7000 C.2   1433  AMP1433     0.3518
@<TRIPOS>BOND
     1    19    18    1
     2    18    20    2
     3    18    17    1
     4     2     1    2
     5    20    21    1
     6    17    16    2
     7    17    23    1
     8    16    15    1
     9    21    22    1
    10     3     1    1
    11     1     5    1
    12     1     4    1
    13    23    22    2
    14    23    14    1
    15    15    14    1
    16     6     5    1
    17     6     7    1
    18    14    13    1
    19     8    13    1
    20     8     7    1
    21    13    11    1
    22     7     9    1
    23    11     9    1
    24    11    12    1
    25     9    10    1
