@<TRIPOS>MOLECULE
2x77_GDP_A_1.pdb
 28 30 0 0 0
SMALL
GASTEIGER

@<TRIPOS>ATOM
      1  PB        31.6950    1.6100   38.7210 P.3   188  GDP188      0.5373
      2  O1B       31.9920    3.1000   38.5210 O.3   188  GDP188     -0.1143
      3  O2B       30.1570    1.3980   38.1550 O.2   188  GDP188     -0.2221
      4  O3B       31.7170    1.1770   40.1460 O.3   188  GDP188     -0.1143
      5  O3A       32.6460    0.6090   37.9130 O.3   188  GDP188     -0.2261
      6  PA        34.1230    0.8240   37.3890 P.3   188  GDP188      0.2231
      7  O1A       34.9310    1.4110   38.6320 O.3   188  GDP188     -0.4370
      8  O2A       34.1830    1.6410   36.1560 O.2   188  GDP188     -0.5169
      9  O5'       34.5890   -0.6940   37.1260 O.3   188  GDP188     -0.3111
     10  C5'       34.9600   -1.4140   38.2450 C.3   188  GDP188      0.1813
     11  C4'       35.8980   -2.6320   37.8520 C.3   188  GDP188      0.1799
     12  O4'       35.5430   -3.2680   36.6030 O.3   188  GDP188     -0.3326
     13  C3'       37.3420   -2.1160   37.6790 C.3   188  GDP188      0.2158
     14  O3'       38.2180   -3.2560   37.8960 O.3   188  GDP188     -0.2175
     15  C2'       37.2790   -1.6820   36.2000 C.3   188  GDP188      0.2310
     16  O2'       38.5700   -1.4730   35.6120 O.3   188  GDP188     -0.2158
     17  C1'       36.5730   -2.9120   35.6010 C.3   188  GDP188      0.2293
     18  N9        35.7880   -2.7970   34.3320 N.pl3 188  GDP188     -0.2354
     19  C8        34.9780   -1.7930   33.9850 C.3   188  GDP188      0.2246
     20  N7        34.4430   -2.0570   32.7920 N.2   188  GDP188     -0.2322
     21  C5        34.9030   -3.2430   32.3780 C.2   188  GDP188      0.2182
     22  C6        34.7100   -4.0060   31.2280 C.1   188  GDP188      0.2372
     23  O6        33.9620   -3.6270   30.3360 O.2   188  GDP188     -0.2069
     24  N1        35.3680   -5.2590   31.1000 N.2   188  GDP188     -0.2485
     25  C2        36.2240   -5.6480   32.1220 C.1   188  GDP188      0.2531
     26  N2        36.8630   -6.7860   32.0040 N.pl3 188  GDP188     -0.0226
     27  N3        36.3880   -4.8890   33.2220 N.2   188  GDP188     -0.3074
     28  C4        35.7500   -3.7170   33.3720 C.2   188  GDP188      0.2300
@<TRIPOS>BOND
     1    23    22    2
     2    24    22    2
     3    24    25    2
     4    22    21    1
     5    26    25    1
     6    25    27    2
     7    21    20    2
     8    21    28    1
     9    20    19    1
    10    27    28    2
    11    28    18    1
    12    19    18    1
    13    18    17    1
    14    17    15    1
    15    17    12    1
    16    16    15    1
    17     8     6    2
    18    15    13    1
    19    12    11    1
    20     9     6    1
    21     9    10    1
    22     6     5    1
    23     6     7    1
    24    13    11    1
    25    13    14    1
    26    11    10    1
    27     5     1    1
    28     3     1    2
    29     2     1    1
    30     1     4    1
