@<TRIPOS>MOLECULE
2x7b_COA_A_1.pdb
 48 50 0 0 0
SMALL
GASTEIGER

@<TRIPOS>ATOM
      1  N1A       27.7690   48.4630    3.8640 N.2   201  COA201      0.0021
      2  C2A       26.7130   47.7370    3.3600 C.3   201  COA201      0.5254
      3  N3A       26.8380   46.3710    3.1990 N.2   201  COA201     -0.0055
      4  C4A       27.9860   45.7340    3.5380 C.2   201  COA201      0.3518
      5  C5A       29.0560   46.4430    4.0500 C.2   201  COA201      0.2526
      6  C6A       28.9480   47.8270    4.2060 C.2   201  COA201      0.4393
      7  N6A       30.0160   48.5600    4.5140 N.pl3 201  COA201      0.2180
      8  N7A       30.0620   45.5570    4.2930 N.2   201  COA201     -0.2095
      9  C8A       29.6460   44.3160    3.9400 C.3   201  COA201      0.3377
     10  N9A       28.3600   44.4100    3.4740 N.pl3 201  COA201     -0.1439
     11  C1B       27.5050   43.2950    3.0410 C.3   201  COA201      0.3185
     12  C2B       27.1740   43.3960    1.5630 C.3   201  COA201      0.2543
     13  O2B       25.8460   42.9330    1.4040 O.3   201  COA201     -0.2131
     14  C3B       28.1490   42.4010    0.9560 C.3   201  COA201      0.1928
     15  O3B       27.7080   41.8520   -0.2490 O.3   201  COA201     -0.2673
     16  P3B       27.9990   42.6210   -1.6370 P.3   201  COA201      0.5327
     17  O7A       29.1590   43.5840   -1.5170 O.3   201  COA201     -0.1145
     18  O8A       26.7260   43.3720   -1.9390 O.3   201  COA201     -0.1145
     19  O9A       28.2270   41.5510   -2.6810 O.2   201  COA201     -0.2224
     20  C4B       28.2540   41.3200    2.0100 C.3   201  COA201      0.1795
     21  O4B       28.1920   42.0670    3.2040 O.3   201  COA201     -0.3136
     22  C5B       29.5470   40.5040    1.9120 C.3   201  COA201      0.1812
     23  O5B       30.6390   41.3710    2.0970 O.3   201  COA201     -0.3112
     24  P1A       32.1260   40.8500    2.3810 P.3   201  COA201      0.2189
     25  O1A       33.1100   41.6950    1.5950 O.2   201  COA201     -0.5170
     26  O2A       32.2530   39.3640    2.2210 O.3   201  COA201     -0.4371
     27  O3A       32.2840   41.3170    3.9260 O.3   201  COA201     -0.2703
     28  P2A       33.5650   41.9440    4.6320 P.3   201  COA201      0.2188
     29  O4A       34.7290   41.0510    4.2920 O.2   201  COA201     -0.5170
     30  O5A       33.7750   43.4160    4.3730 O.3   201  COA201     -0.4371
     31  O6A       33.2630   41.8380    6.2140 O.3   201  COA201     -0.3138
     32  CBP       32.1490   42.3820    8.2760 C.3   201  COA201      0.0645
     33  CCP       32.0190   42.2210    6.7560 C.3   201  COA201      0.1519
     34  CDP       32.7900   41.1120    8.8730 C.3   201  COA201      0.0056
     35  CEP       30.7700   42.6010    8.8740 C.3   201  COA201      0.0056
     36  CAP       33.0010   43.6290    8.5190 C.3   201  COA201      0.2312
     37  OAP       32.4370   44.8290    8.0140 O.3   201  COA201     -0.2131
     38  C9P       33.5560   43.8060    9.8980 C.2   201  COA201      0.2719
     39  O9P       34.8100   43.2450   10.1460 O.2   201  COA201     -0.2706
     40  N8P       32.8740   44.5140   10.8110 N.am  201  COA201     -0.2028
     41  C7P       33.3380   44.6350   12.1900 C.3   201  COA201      0.1248
     42  C6P       33.1920   43.3350   13.0020 C.3   201  COA201      0.1102
     43  C5P       31.7520   42.8650   12.9960 C.2   201  COA201      0.2432
     44  O5P       30.8230   43.6870   13.0600 O.2   201  COA201     -0.2733
     45  N4P       31.5300   41.5460   12.9200 N.am  201  COA201     -0.2044
     46  C3P       30.2030   40.9770   13.1040 C.3   201  COA201      0.1276
     47  C2P       29.7100   40.9130   14.5480 C.3   201  COA201      0.0920
     48  S1P       28.2010   39.9170   14.7350 S.3   201  COA201     -0.0802
@<TRIPOS>BOND
     1    19    16    2
     2    18    16    1
     3    16    17    1
     4    16    15    1
     5    15    14    1
     6    14    12    1
     7    14    20    1
     8    13    12    1
     9    12    11    1
    10    25    24    2
    11    22    20    1
    12    22    23    1
    13    20    21    1
    14    23    24    1
    15    26    24    1
    16    24    27    1
    17    11    21    1
    18    11    10    1
    19     3     2    1
    20     3     4    2
    21     2     1    1
    22    10     4    1
    23    10     9    1
    24     4     5    1
    25     1     6    2
    26    27    28    1
    27     9     8    1
    28     5     6    1
    29     5     8    2
    30     6     7    1
    31    29    28    2
    32    30    28    1
    33    28    31    1
    34    31    33    1
    35    33    32    1
    36    37    36    1
    37    32    36    1
    38    32    34    1
    39    32    35    1
    40    36    38    1
    41    38    39    2
    42    38    40   am
    43    40    41    1
    44    41    42    1
    45    45    43   am
    46    45    46    1
    47    43    42    1
    48    43    44    2
    49    46    47    1
    50    47    48    1
