@<TRIPOS>MOLECULE
2x7c_ADP_A_1.pdb
 27 29 0 0 0
SMALL
GASTEIGER

@<TRIPOS>ATOM
      1  PB        -9.9210    7.1960   19.3830 P.3   601  ADP601      0.5373
      2  O1B       -8.8620    8.1370   19.8800 O.3   601  ADP601     -0.1143
      3  O2B       -9.4130    5.8240   19.0540 O.3   601  ADP601     -0.1143
      4  O3B      -10.7500    7.7690   18.2210 O.2   601  ADP601     -0.2221
      5  PA       -11.3900    7.8570   21.7690 P.3   601  ADP601      0.2231
      6  O1A      -11.7730    9.1900   21.2050 O.2   601  ADP601     -0.5169
      7  O2A      -10.3200    7.8160   22.8120 O.3   601  ADP601     -0.4370
      8  O3A      -11.0160    6.9360   20.5230 O.3   601  ADP601     -0.2261
      9  O5'      -12.6250    6.9620   22.2500 O.3   601  ADP601     -0.3111
     10  C5'      -13.8840    7.0540   21.5810 C.3   601  ADP601      0.1813
     11  C4'      -15.0160    7.1290   22.5930 C.3   601  ADP601      0.1821
     12  O4'      -15.1300    5.8890   23.3290 O.3   601  ADP601     -0.3135
     13  C3'      -14.8080    8.2540   23.5950 C.3   601  ADP601      0.2184
     14  O3'      -16.1410    8.7630   23.8060 O.3   601  ADP601     -0.2174
     15  C2'      -14.3090    7.5480   24.8420 C.3   601  ADP601      0.2570
     16  O2'      -14.7300    8.2420   26.0480 O.3   601  ADP601     -0.2130
     17  C1'      -14.9380    6.1550   24.7280 C.3   601  ADP601      0.3186
     18  N9       -14.0560    5.0850   25.2230 N.pl3 601  ADP601     -0.1439
     19  C8       -13.0990    4.4760   24.4940 C.3   601  ADP601      0.3377
     20  N7       -12.4510    3.5570   25.2420 N.2   601  ADP601     -0.2095
     21  C5       -13.0320    3.5430   26.4520 C.2   601  ADP601      0.2526
     22  C6       -12.8590    2.7790   27.7080 C.2   601  ADP601      0.4393
     23  N6       -11.9070    1.8270   27.7660 N.pl3 601  ADP601      0.2180
     24  N1       -13.6480    3.0880   28.7640 N.2   601  ADP601      0.0021
     25  C2       -14.6020    4.0200   28.6810 C.3   601  ADP601      0.5254
     26  N3       -14.8380    4.7260   27.5580 N.2   601  ADP601     -0.0055
     27  C4       -14.0780    4.5570   26.4460 C.2   601  ADP601      0.3518
@<TRIPOS>BOND
     1     4     1    2
     2     3     1    1
     3     1     2    1
     4     1     8    1
     5     8     5    1
     6     6     5    2
     7    10     9    1
     8    10    11    1
     9     5     9    1
    10     5     7    1
    11    11    12    1
    12    11    13    1
    13    12    17    1
    14    13    14    1
    15    13    15    1
    16    19    18    1
    17    19    20    1
    18    17    15    1
    19    17    18    1
    20    15    16    1
    21    18    27    1
    22    20    21    2
    23    27    21    1
    24    27    26    2
    25    21    22    1
    26    26    25    1
    27    22    23    1
    28    22    24    2
    29    25    24    1
