@<TRIPOS>MOLECULE
2x7c_KZ9_A_1.pdb
 19 21 0 0 0
SMALL
GASTEIGER

@<TRIPOS>ATOM
      1  OAB       -8.3520   12.1700   34.2410 O.3   1365  KZ91365    -0.2866
      2  CAQ       -7.3740   12.9590   33.6690 C.ar  1365  KZ91365     0.1958
      3  CAG       -7.4190   13.1760   32.2840 C.ar  1365  KZ91365     0.0443
      4  CAE       -6.3600   13.5450   34.4360 C.ar  1365  KZ91365     0.0420
      5  CAD       -5.3640   14.3420   33.8580 C.ar  1365  KZ91365     0.0034
      6  CAF       -5.4170   14.5470   32.4590 C.ar  1365  KZ91365     0.0025
      7  CAR       -6.4420   13.9610   31.6810 C.ar  1365  KZ91365     0.0304
      8  CAS       -6.5040   14.1000   30.1470 C.2   1365  KZ91365     0.1349
      9  CAP       -6.8190   15.5570   29.7580 C.3   1365  KZ91365     0.1593
     10  CAM       -8.0410   16.1280   30.1230 C.2   1365  KZ91365     0.1633
     11  OAA       -8.9340   15.3830   30.5310 O.2   1365  KZ91365    -0.2952
     12  CAI       -8.4090   17.5990   29.8640 C.3   1365  KZ91365     0.0658
     13  CAH       -7.1400   18.4700   29.8780 C.3   1365  KZ91365     0.0149
     14  CAJ       -6.0490   17.8720   28.9460 C.3   1365  KZ91365     0.0567
     15  CAO       -5.8640   16.3620   29.1630 C.2   1365  KZ91365     0.1129
     16  NAK       -4.6130   15.8200   28.8480 N.2   1365  KZ91365    -0.3423
     17  CAN       -4.3080   14.4730   29.0090 C.1   1365  KZ91365     0.1785
     18  SAC       -2.7750   13.9450   28.4270 S.2   1365  KZ91365     0.0574
     19  NAL       -5.2230   13.6110   29.6090 N.2   1365  KZ91365    -0.3379
@<TRIPOS>BOND
     1    18    17    2
     2    16    17    2
     3    16    15    2
     4    14    15    1
     5    14    13    1
     6    17    19    2
     7    15     9    1
     8    19     8    2
     9     9    10    1
    10     9     8    1
    11    12    13    1
    12    12    10    1
    13    10    11    2
    14     8     7    1
    15     7     3   ar
    16     7     6   ar
    17     3     2   ar
    18     6     5   ar
    19     2     1    1
    20     2     4   ar
    21     5     4   ar
