@<TRIPOS>MOLECULE
2x7d_EGB_A_1.pdb
 21 23 0 0 0
SMALL
GASTEIGER

@<TRIPOS>ATOM
      1  OAD       -8.3160   12.2300   34.3450 O.3   1369  EGB1369    -0.2866
      2  CAR       -7.3830   13.0190   33.7290 C.ar  1369  EGB1369     0.1955
      3  CAI       -7.4140   13.1510   32.3250 C.ar  1369  EGB1369     0.0391
      4  CAG       -6.4240   13.6850   34.4880 C.ar  1369  EGB1369     0.0420
      5  CAF       -5.4880   14.4790   33.8150 C.ar  1369  EGB1369     0.0030
      6  CAH       -5.5150   14.5990   32.4090 C.ar  1369  EGB1369    -0.0027
      7  CAS       -6.4620   13.9050   31.6310 C.ar  1369  EGB1369    -0.0024
      8  CAT       -6.5500   14.0070   30.0820 C.3   1369  EGB1369     0.1100
      9  CAQ       -6.9250   15.4310   29.6360 C.3   1369  EGB1369     0.1133
     10  CAN       -8.1950   15.9250   29.9200 C.2   1369  EGB1369     0.1572
     11  OAC       -8.9970   15.1350   30.4080 O.2   1369  EGB1369    -0.2956
     12  CAJ       -8.6820   17.3460   29.5590 C.3   1369  EGB1369     0.0653
     13  CAU       -7.4820   18.3370   29.5540 C.3   1369  EGB1369     0.0122
     14  CAA       -6.8650   18.4810   30.9520 C.3   1369  EGB1369     0.0008
     15  CAB       -7.9560   19.7280   29.0970 C.3   1369  EGB1369     0.0008
     16  CAK       -6.4070   17.7490   28.6130 C.3   1369  EGB1369     0.0418
     17  CAP       -6.0230   16.2830   29.0230 C.2   1369  EGB1369     0.0423
     18  NAL       -4.7990   15.8390   28.6810 N.2   1369  EGB1369    -0.2515
     19  CAO       -4.3290   14.6130   29.3070 C.3   1369  EGB1369     0.2352
     20  SAE       -2.8540   14.0330   28.4520 S.3   1369  EGB1369    -0.0373
     21  NAM       -5.3260   13.5580   29.3740 N.3   1369  EGB1369    -0.1824
@<TRIPOS>BOND
     1    20    19    1
     2    16    17    1
     3    16    13    1
     4    18    17    2
     5    18    19    1
     6    17     9    1
     7    15    13    1
     8    19    21    1
     9    21     8    1
    10    13    12    1
    11    13    14    1
    12    12    10    1
    13     9    10    1
    14     9     8    1
    15    10    11    2
    16     8     7    1
    17     7     3   ar
    18     7     6   ar
    19     3     2   ar
    20     6     5   ar
    21     2     1    1
    22     2     4   ar
    23     5     4   ar
