@<TRIPOS>MOLECULE
2x7d_ADP_A_1.pdb
 27 29 0 0 0
SMALL
GASTEIGER

@<TRIPOS>ATOM
      1  PB        -9.8760    7.3230   19.3160 P.3   601  ADP601      0.5373
      2  O1B       -8.7790    8.1810   19.8900 O.3   601  ADP601     -0.1143
      3  O2B       -9.3220    5.9370   19.0330 O.3   601  ADP601     -0.1143
      4  O3B      -10.6820    7.9700   18.2060 O.2   601  ADP601     -0.2221
      5  PA       -11.3780    7.8950   21.7000 P.3   601  ADP601      0.2231
      6  O1A      -11.6660    9.2580   21.1490 O.2   601  ADP601     -0.5169
      7  O2A      -10.3720    7.7940   22.8340 O.3   601  ADP601     -0.4370
      8  O3A      -10.9430    6.9860   20.4610 O.3   601  ADP601     -0.2261
      9  O5'      -12.6850    7.1000   22.1270 O.3   601  ADP601     -0.3111
     10  C5'      -13.9330    7.3020   21.4760 C.3   601  ADP601      0.1813
     11  C4'      -15.0420    7.2370   22.5170 C.3   601  ADP601      0.1821
     12  O4'      -14.9920    5.9910   23.2210 O.3   601  ADP601     -0.3135
     13  C3'      -14.8750    8.3400   23.5690 C.3   601  ADP601      0.2184
     14  O3'      -16.1970    8.7640   23.9460 O.3   601  ADP601     -0.2174
     15  C2'      -14.2580    7.6310   24.7530 C.3   601  ADP601      0.2570
     16  O2'      -14.6820    8.1850   25.9990 O.3   601  ADP601     -0.2130
     17  C1'      -14.8610    6.2500   24.6360 C.3   601  ADP601      0.3186
     18  N9       -13.9980    5.2030   25.2200 N.pl3 601  ADP601     -0.1439
     19  C8       -13.0300    4.5880   24.5440 C.3   601  ADP601      0.3377
     20  N7       -12.4630    3.6350   25.2880 N.2   601  ADP601     -0.2095
     21  C5       -13.0930    3.6380   26.4690 C.2   601  ADP601      0.2526
     22  C6       -12.9880    2.8410   27.7080 C.2   601  ADP601      0.4393
     23  N6       -12.0650    1.8580   27.7730 N.pl3 601  ADP601      0.2180
     24  N1       -13.8190    3.1500   28.7220 N.2   601  ADP601      0.0021
     25  C2       -14.7810    4.0960   28.6100 C.3   601  ADP601      0.5254
     26  N3       -14.9340    4.8480   27.4980 N.2   601  ADP601     -0.0055
     27  C4       -14.1230    4.6690   26.4180 C.2   601  ADP601      0.3518
@<TRIPOS>BOND
     1     4     1    2
     2     3     1    1
     3     1     2    1
     4     1     8    1
     5     8     5    1
     6     6     5    2
     7    10     9    1
     8    10    11    1
     9     5     9    1
    10     5     7    1
    11    11    12    1
    12    11    13    1
    13    12    17    1
    14    13    14    1
    15    13    15    1
    16    19    18    1
    17    19    20    1
    18    17    15    1
    19    17    18    1
    20    15    16    1
    21    18    27    1
    22    20    21    2
    23    27    21    1
    24    27    26    2
    25    21    22    1
    26    26    25    1
    27    22    23    1
    28    22    24    2
    29    25    24    1
