@<TRIPOS>MOLECULE
2x7e_ADP_A_1.pdb
 27 29 0 0 0
SMALL
GASTEIGER

@<TRIPOS>ATOM
      1  PB       -44.7020   -7.3920  -19.4860 P.3   600  ADP600      0.5373
      2  O1B      -43.6570   -8.3200  -20.0360 O.2   600  ADP600     -0.2221
      3  O2B      -44.1500   -6.0230  -19.2080 O.3   600  ADP600     -0.1143
      4  O3B      -45.4780   -7.8810  -18.2880 O.3   600  ADP600     -0.1143
      5  PA       -46.2330   -7.8390  -21.8620 P.3   600  ADP600      0.2231
      6  O1A      -46.6730   -9.1540  -21.3180 O.3   600  ADP600     -0.4370
      7  O2A      -45.1480   -7.8560  -22.8820 O.2   600  ADP600     -0.5169
      8  O3A      -45.6950   -6.9430  -20.6600 O.3   600  ADP600     -0.2261
      9  O5'      -47.5000   -6.9380  -22.2470 O.3   600  ADP600     -0.3111
     10  C5'      -48.7370   -7.0970  -21.5430 C.3   600  ADP600      0.1813
     11  C4'      -49.8740   -7.0830  -22.5530 C.3   600  ADP600      0.1821
     12  O4'      -49.8440   -5.8480  -23.2650 O.3   600  ADP600     -0.3135
     13  C3'      -49.6910   -8.1910  -23.5890 C.3   600  ADP600      0.2184
     14  O3'      -50.9890   -8.7520  -23.8470 O.3   600  ADP600     -0.2174
     15  C2'      -49.2040   -7.4730  -24.8300 C.3   600  ADP600      0.2570
     16  O2'      -49.7700   -8.0760  -25.9850 O.3   600  ADP600     -0.2130
     17  C1'      -49.7900   -6.0910  -24.6860 C.3   600  ADP600      0.3186
     18  N9       -48.8570   -5.0770  -25.2050 N.pl3 600  ADP600     -0.1439
     19  C8       -47.8810   -4.5680  -24.4420 C.3   600  ADP600      0.3377
     20  N7       -47.1940   -3.6050  -25.0750 N.2   600  ADP600     -0.2095
     21  C5       -47.7520   -3.5130  -26.2900 C.2   600  ADP600      0.2526
     22  C6       -47.4760   -2.6580  -27.4670 C.2   600  ADP600      0.4393
     23  N6       -46.4260   -1.7890  -27.3850 N.pl3 600  ADP600      0.2180
     24  N1       -48.2790   -2.8100  -28.5430 N.2   600  ADP600      0.0021
     25  C2       -49.2970   -3.7080  -28.5740 C.3   600  ADP600      0.5254
     26  N3       -49.6260   -4.5030  -27.5310 N.2   600  ADP600     -0.0055
     27  C4       -48.8870   -4.4460  -26.3750 C.2   600  ADP600      0.3518
@<TRIPOS>BOND
     1    25    24    1
     2    25    26    1
     3    24    22    2
     4    26    27    2
     5    22    23    1
     6    22    21    1
     7    27    21    1
     8    27    18    1
     9    21    20    2
    10    16    15    1
    11    18    17    1
    12    18    19    1
    13    20    19    1
    14    15    17    1
    15    15    13    1
    16    17    12    1
    17    14    13    1
    18    13    11    1
    19    12    11    1
    20     7     5    2
    21    11    10    1
    22     9     5    1
    23     9    10    1
    24     5     6    1
    25     5     8    1
    26     8     1    1
    27     2     1    2
    28     1     3    1
    29     1     4    1
