@<TRIPOS>MOLECULE
2x7e_X7E_A_1.pdb
 26 28 0 0 0
SMALL
GASTEIGER

@<TRIPOS>ATOM
      1  CAN      -37.2820  -15.9090  -27.7240 C.ar  1365  X7E1365     0.0301
      2  CAW      -36.9400  -16.5620  -26.5520 C.ar  1365  X7E1365     0.1671
      3  FAG      -35.6610  -16.7230  -26.1870 F     1365  X7E1365    -0.2018
      4  CAV      -37.9100  -17.0760  -25.7090 C.ar  1365  X7E1365     0.1674
      5  FAF      -37.4660  -17.7110  -24.6170 F     1365  X7E1365    -0.2018
      6  CAL      -39.2590  -16.9570  -25.9830 C.ar  1365  X7E1365     0.0317
      7  CAJ      -39.6000  -16.2760  -27.1460 C.ar  1365  X7E1365     0.0006
      8  CAU      -38.6400  -15.7720  -28.0210 C.ar  1365  X7E1365     0.0102
      9  CAQ      -39.0580  -15.1200  -29.3330 C.3   1365  X7E1365     0.1781
     10  OAC      -38.6870  -13.7830  -29.2920 O.3   1365  X7E1365    -0.2182
     11  CAS      -40.5600  -15.2530  -29.4420 C.3   1365  X7E1365     0.0809
     12  CAP      -41.1440  -16.4770  -29.7410 C.3   1365  X7E1365     0.0868
     13  CAA      -40.3680  -17.8210  -29.9050 C.3   1365  X7E1365     0.0223
     14  NAZ      -42.5180  -16.4820  -29.8550 N.am  1365  X7E1365    -0.2618
     15  CAB      -43.2390  -17.7710  -30.1260 C.3   1365  X7E1365     0.1224
     16  CAR      -43.2440  -15.3420  -29.6840 C.1   1365  X7E1365     0.0388
     17  SAE      -44.8720  -15.5670  -29.5740 S.2   1365  X7E1365     0.0264
     18  NAO      -42.7210  -14.1000  -29.4360 N.2   1365  X7E1365    -0.2149
     19  CAY      -41.3130  -13.9950  -29.7250 C.3   1365  X7E1365     0.1402
     20  CAX      -41.2380  -13.9260  -31.3260 C.ar  1365  X7E1365     0.0039
     21  CAM      -42.1920  -13.2900  -32.1120 C.ar  1365  X7E1365     0.0396
     22  CAK      -40.2240  -14.5410  -32.0630 C.ar  1365  X7E1365    -0.0022
     23  CAH      -40.1210  -14.4920  -33.4650 C.ar  1365  X7E1365     0.0030
     24  CAI      -41.0640  -13.8020  -34.2280 C.ar  1365  X7E1365     0.0420
     25  CAT      -42.0940  -13.2030  -33.5060 C.ar  1365  X7E1365     0.1955
     26  OAD      -43.0700  -12.5330  -34.1810 O.3   1365  X7E1365    -0.2866
@<TRIPOS>BOND
     1    24    25   ar
     2    24    23   ar
     3    26    25    1
     4    25    21   ar
     5    23    22   ar
     6    21    20   ar
     7    22    20   ar
     8    20    19    1
     9    15    14    1
    10    13    12    1
    11    14    12    1
    12    14    16    1
    13    12    11    1
    14    19    11    1
    15    19    18    1
    16    16    17    2
    17    16    18    2
    18    11     9    1
    19     9    10    1
    20     9     8    1
    21     8     1   ar
    22     8     7   ar
    23     1     2   ar
    24     7     6   ar
    25     2     3    1
    26     2     4   ar
    27     6     4   ar
    28     4     5    1
