@<TRIPOS>MOLECULE
2x7f_824_A_1.pdb
 25 29 0 0 0
SMALL
GASTEIGER

@<TRIPOS>ATOM
      1  O3        24.7300  -10.9860   55.7400 O.2   500  824500     -0.2869
      2  C19       25.5720   -9.8960   55.4840 C.2   500  824500      0.1920
      3  C20       26.2730   -9.9280   54.3090 C.2   500  824500      0.0233
      4  C18       27.1620   -8.8970   53.9240 C.3   500  824500      0.0882
      5  C16       27.3700   -7.7120   54.7820 C.2   500  824500      0.1132
      6  C15       26.5740   -7.6510   56.1010 C.2   500  824500      0.0318
      7  C17       25.6370   -8.7610   56.5180 C.2   500  824500      0.0440
      8  C13       26.9490   -6.4190   56.6960 C.2   500  824500      0.0406
      9  C14       27.8790   -5.8480   55.7500 C.2   500  824500      0.1137
     10  N2        28.1150   -6.6070   54.6940 N.2   500  824500     -0.4099
     11  C4        26.5420   -5.8140   57.8730 C.2   500  824500      0.1092
     12  C5        25.6890   -6.1000   58.8630 C.1   500  824500      0.2158
     13  O1        25.0960   -7.0150   58.9890 O.2   500  824500     -0.2086
     14  C3        27.0850   -4.5070   58.1880 C.2   500  824500      0.1038
     15  C6        26.4710   -4.2020   59.3570 C.1   500  824500      0.2155
     16  O2        26.5660   -3.2430   59.9590 O.2   500  824500     -0.2086
     17  N1        25.5940   -5.1350   59.7950 N.2   500  824500     -0.2576
     18  C2        28.0510   -3.9380   57.2540 C.2   500  824500     -0.0024
     19  C1        28.4180   -4.6340   56.0270 C.3   500  824500      0.0860
     20  C7        28.7530   -2.7310   57.4050 C.ar  500  824500     -0.0028
     21  C8        29.0090   -1.7000   56.5610 C.ar  500  824500     -0.0003
     22  C9        29.7310   -0.5860   57.0020 C.ar  500  824500     -0.0000
     23  C10       30.2360   -0.4360   58.2660 C.ar  500  824500     -0.0000
     24  C11       30.0490   -1.4490   59.2340 C.ar  500  824500     -0.0000
     25  C12       29.3140   -2.6300   58.7940 C.ar  500  824500     -0.0003
@<TRIPOS>BOND
     1     4     3    1
     2     4     5    1
     3     3     2    2
     4    10     5    2
     5    10     9    2
     6     5     6    1
     7     2     1    1
     8     2     7    1
     9     9    19    1
    10     9     8    1
    11    19    18    1
    12     6     7    2
    13     6     8    1
    14    21    22   ar
    15    21    20   ar
    16     8    11    2
    17    22    23   ar
    18    18    20    1
    19    18    14    2
    20    20    25   ar
    21    11    14    1
    22    11    12    1
    23    14    15    1
    24    23    24   ar
    25    25    24   ar
    26    12    13    2
    27    12    17    2
    28    15    17    2
    29    15    16    2
