@<TRIPOS>MOLECULE
2x7h_NAP_A_1.pdb
 48 52 0 0 0
SMALL
GASTEIGER

@<TRIPOS>ATOM
      1  PA       -18.2100   -9.3430   -0.5570 P.3   1373  NAP1373     0.2189
      2  O1A      -16.8860   -9.4490   -1.2250 O.2   1373  NAP1373    -0.5170
      3  O2A      -18.4700  -10.1120    0.6740 O.3   1373  NAP1373    -0.4371
      4  O5B      -19.2680   -9.7200   -1.6950 O.3   1373  NAP1373    -0.3112
      5  C5B      -20.6210  -10.0280   -1.3270 C.3   1373  NAP1373     0.1813
      6  C4B      -20.8020  -11.5390   -1.1940 C.3   1373  NAP1373     0.1820
      7  O4B      -22.1250  -11.5710   -0.5250 O.3   1373  NAP1373    -0.3136
      8  C3B      -20.9910  -12.3040   -2.4720 C.3   1373  NAP1373     0.2157
      9  O3B      -19.7130  -12.8440   -2.9010 O.3   1373  NAP1373    -0.2175
     10  C2B      -21.9000  -13.4500   -2.0110 C.3   1373  NAP1373     0.2314
     11  O2B      -21.1440  -14.4280   -1.3580 O.3   1373  NAP1373    -0.2630
     12  C1B      -22.9000  -12.7110   -1.0680 C.3   1373  NAP1373     0.3158
     13  N9A      -24.1550  -12.1050   -1.8020 N.pl3 1373  NAP1373    -0.1439
     14  C8A      -24.1630  -11.3050   -2.8890 C.3   1373  NAP1373     0.3377
     15  N7A      -25.3900  -10.9480   -3.2620 N.2   1373  NAP1373    -0.2095
     16  C5A      -26.2140  -11.5510   -2.3930 C.2   1373  NAP1373     0.2526
     17  C6A      -27.5880  -11.5720   -2.2440 C.2   1373  NAP1373     0.4393
     18  N6A      -28.3850  -10.9110   -3.0740 N.pl3 1373  NAP1373     0.2180
     19  N1A      -28.1070  -12.2700   -1.2380 N.2   1373  NAP1373     0.0021
     20  C2A      -27.3460  -12.9400   -0.3750 C.3   1373  NAP1373     0.5254
     21  N3A      -26.0220  -12.9660   -0.4670 N.2   1373  NAP1373    -0.0055
     22  C4A      -25.4320  -12.2680   -1.4680 C.2   1373  NAP1373     0.3518
     23  O3       -18.6270   -7.8330   -0.3770 O.3   1373  NAP1373    -0.2703
     24  PN       -18.1190   -6.7590    0.7090 P.3   1373  NAP1373     0.2189
     25  O1N      -18.0110   -5.4820    0.0140 O.2   1373  NAP1373    -0.5170
     26  O2N      -16.9710   -7.3250    1.4720 O.3   1373  NAP1373    -0.4371
     27  O5D      -19.4470   -6.5460    1.6760 O.3   1373  NAP1373    -0.3112
     28  C5D      -19.7850   -7.6750    2.4550 C.3   1373  NAP1373     0.1813
     29  C4D      -20.7120   -7.0900    3.5510 C.3   1373  NAP1373     0.1799
     30  O4D      -19.9500   -6.3040    4.5330 O.3   1373  NAP1373    -0.3327
     31  C3D      -21.8830   -6.2100    3.0520 C.3   1373  NAP1373     0.2158
     32  O3D      -23.0830   -6.4120    3.8390 O.3   1373  NAP1373    -0.2175
     33  C2D      -21.3590   -4.8340    3.3820 C.3   1373  NAP1373     0.2309
     34  O2D      -22.3570   -3.8030    3.5510 O.3   1373  NAP1373    -0.2158
     35  C1D      -20.6470   -5.0940    4.7090 C.3   1373  NAP1373     0.2263
     36  N1N      -19.7210   -4.0430    5.1660 N.pl3 1373  NAP1373    -0.2787
     37  C2N      -19.9920   -3.3330    6.3050 C.3   1373  NAP1373     0.1244
     38  C3N      -19.1680   -2.3340    6.7570 C.2   1373  NAP1373     0.0544
     39  C7N      -19.5070   -1.6090    8.0170 C.2   1373  NAP1373     0.2818
     40  O7N      -18.8180   -0.5370    8.3820 O.2   1373  NAP1373    -0.2670
     41  N7N      -20.5390   -2.0650    8.7350 N.am  1373  NAP1373    -0.0839
     42  C4N      -17.9920   -2.0450    6.0460 C.2   1373  NAP1373     0.0033
     43  C5N      -17.7280   -2.7690    4.8880 C.2   1373  NAP1373     0.0157
     44  C6N      -18.5780   -3.7560    4.4280 C.2   1373  NAP1373     0.0633
     45  P2B      -21.7150  -15.9600   -1.0000 P.3   1373  NAP1373     0.5328
     46  O1X      -23.2340  -15.8330   -1.4290 O.3   1373  NAP1373    -0.1145
     47  O2X      -20.9250  -16.9390   -1.8880 O.2   1373  NAP1373    -0.2224
     48  O3X      -21.4440  -16.1460    0.4550 O.3   1373  NAP1373    -0.1145
@<TRIPOS>BOND
     1    15    14    1
     2    15    16    2
     3    18    17    1
     4     9     8    1
     5    14    13    1
     6     8    10    1
     7     8     6    1
     8    16    17    1
     9    16    22    1
    10    17    19    2
    11    10    11    1
    12    10    12    1
    13    47    45    2
    14    13    22    1
    15    13    12    1
    16     4     5    1
    17     4     1    1
    18    22    21    2
    19    46    45    1
    20    11    45    1
    21     5     6    1
    22    19    20    1
    23     2     1    2
    24     6     7    1
    25    12     7    1
    26    45    48    1
    27     1    23    1
    28     1     3    1
    29    21    20    1
    30    23    24    1
    31    25    24    2
    32    24    26    1
    33    24    27    1
    34    27    28    1
    35    28    29    1
    36    31    33    1
    37    31    29    1
    38    31    32    1
    39    33    34    1
    40    33    35    1
    41    29    30    1
    42    44    43    2
    43    44    36    1
    44    30    35    1
    45    35    36    1
    46    43    42    1
    47    36    37    1
    48    42    38    2
    49    37    38    1
    50    38    39    1
    51    39    40    2
    52    39    41   am
