@<TRIPOS>MOLECULE
2x7h_PFN_A_1.pdb
 18 19 0 0 0
SMALL
GASTEIGER

@<TRIPOS>ATOM
      1  CAL       -7.8390  -10.8910   16.1850 C.ar  1372  PFN1372     0.0375
      2  CAJ       -9.1690  -11.0530   16.5140 C.ar  1372  PFN1372     0.0031
      3  CAP      -10.0570  -10.0000   16.4190 C.ar  1372  PFN1372     0.0002
      4  CAI       -9.6620   -8.7420   15.9870 C.ar  1372  PFN1372     0.0031
      5  CAK       -8.3260   -8.5500   15.6670 C.ar  1372  PFN1372     0.0375
      6  CAR       -7.4320   -9.6270   15.7590 C.ar  1372  PFN1372     0.1453
      7  OAN       -6.1480   -9.4450   15.3710 O.3   1372  PFN1372    -0.4535
      8  CAO       -4.8730  -10.0100   20.1060 C.2   1372  PFN1372     0.3683
      9  OAB       -5.5720  -11.0120   20.3790 O.co2 1372  PFN1372    -0.2453
     10  OAA       -5.2030   -8.7960   20.3000 O.co2 1372  PFN1372    -0.2453
     11  CAM       -2.5520   -9.1750   19.6340 C.3   1372  PFN1372     0.0166
     12  CAH       -4.2860  -10.9450   15.1940 C.ar  1372  PFN1372     0.0375
     13  CAF       -3.1910  -11.5730   15.7910 C.ar  1372  PFN1372     0.0028
     14  C2        -5.1220  -10.1260   15.9510 C.ar  1372  PFN1372     0.1450
     15  CAD       -2.9410  -11.3860   17.1450 C.ar  1372  PFN1372    -0.0035
     16  C13       -3.5190  -10.3320   19.4120 C.3   1372  PFN1372     0.1257
     17  CAE       -3.7790  -10.5590   17.9080 C.ar  1372  PFN1372    -0.0088
     18  CAG       -4.8680   -9.9240   17.3070 C.ar  1372  PFN1372     0.0338
@<TRIPOS>BOND
     1    12    13   ar
     2    12    14   ar
     3     7     6    1
     4     7    14    1
     5     5     6   ar
     6     5     4   ar
     7     6     1   ar
     8    13    15   ar
     9    14    18   ar
    10     4     3   ar
    11     1     2   ar
    12     3     2   ar
    13    15    17   ar
    14    18    17   ar
    15    17    16    1
    16    16    11    1
    17    16     8    1
    18     8    10   ar
    19     8     9   ar
