@<TRIPOS>MOLECULE
2x7j_TPP_A_1.pdb
 26 27 0 0 0
SMALL
GASTEIGER

@<TRIPOS>ATOM
      1  N1'       33.3960  -13.5560  -34.0560 N.2   601  TPP601     -0.1861
      2  C2'       33.6230  -14.7030  -33.3810 C.1   601  TPP601      0.0663
      3  CM2       33.7150  -16.0390  -34.1100 C.3   601  TPP601      0.1291
      4  N3'       33.7610  -14.6820  -32.0580 N.2   601  TPP601     -0.3368
      5  C4'       33.6790  -13.5100  -31.4060 C.2   601  TPP601      0.2292
      6  N4'       33.8240  -13.4820  -30.0850 N.pl3 601  TPP601     -0.0925
      7  C5'       33.4500  -12.3150  -32.0880 C.2   601  TPP601      0.0654
      8  C6'       33.3090  -12.3770  -33.4620 C.2   601  TPP601      0.1115
      9  C7'       33.3380  -10.9470  -31.3920 C.3   601  TPP601      0.1237
     10  N3        32.0970  -10.8800  -30.5670 N.pl3 601  TPP601     -0.2970
     11  C2        32.1430  -11.0140  -29.2290 C.3   601  TPP601      0.1543
     12  S1        30.5110  -10.8550  -28.6390 S.3   601  TPP601     -0.0951
     13  C5        29.8310  -10.5700  -30.1480 C.2   601  TPP601      0.0164
     14  C4        30.8670  -10.6450  -31.0870 C.2   601  TPP601      0.0279
     15  CM4       30.6070  -10.4130  -32.5760 C.3   601  TPP601      0.0473
     16  C6        28.3240  -10.3630  -30.3350 C.3   601  TPP601      0.0661
     17  C7        27.5440  -11.6830  -30.1080 C.3   601  TPP601      0.1544
     18  O7        26.1380  -11.3810  -29.9740 O.3   601  TPP601     -0.3134
     19  PA        25.0830  -12.3810  -29.2910 P.3   601  TPP601      0.2230
     20  O1A       23.6490  -12.0140  -29.9260 O.2   601  TPP601     -0.5169
     21  O2A       25.3780  -13.8280  -29.5370 O.3   601  TPP601     -0.4370
     22  O3A       25.0750  -12.0620  -27.7040 O.3   601  TPP601     -0.2261
     23  PB        24.8180  -10.5850  -27.1650 P.3   601  TPP601      0.5373
     24  O1B       24.9450  -10.6170  -25.6090 O.3   601  TPP601     -0.1143
     25  O2B       26.0990   -9.7400  -27.5270 O.3   601  TPP601     -0.1143
     26  O3B       23.5230   -9.9900  -27.6520 O.2   601  TPP601     -0.2221
@<TRIPOS>BOND
     1     3     2    1
     2     1     8    1
     3     1     2    2
     4     8     7    2
     5     2     4    2
     6    15    14    1
     7     7     5    1
     8     7     9    1
     9     4     5    2
    10     5     6    1
    11     9    10    1
    12    14    10    1
    13    14    13    2
    14    10    11    1
    15    16    13    1
    16    16    17    1
    17    13    12    1
    18    17    18    1
    19    18    19    1
    20    20    19    2
    21    21    19    1
    22    19    22    1
    23    11    12    1
    24    22    23    1
    25    26    23    2
    26    25    23    1
    27    23    24    1
