@<TRIPOS>MOLECULE
2x7o_ZOP_A_1.pdb
 37 41 0 0 0
SMALL
GASTEIGER

@<TRIPOS>ATOM
      1  CAJ       92.3130   50.3580   48.3520 C.3   600  ZOP600      0.0724
      2  CAL       91.4290   50.5400   47.1010 C.3   600  ZOP600      0.0174
      3  CAW       90.5540   49.2900   46.8640 C.3   600  ZOP600      0.0029
      4  CAV       89.7580   48.9180   48.1330 C.3   600  ZOP600      0.0174
      5  CAK       90.6940   48.7960   49.3520 C.3   600  ZOP600      0.0724
      6  NAI       91.4760   50.0410   49.5280 N.3   600  ZOP600     -0.2690
      7  CAH       92.2620   50.0300   50.7760 C.3   600  ZOP600      0.0991
      8  CAG       91.5000   50.7740   51.8470 C.ar  600  ZOP600     -0.0060
      9  CAS       91.2090   52.1380   51.6770 C.ar  600  ZOP600     -0.0014
     10  CAR       90.4950   52.8320   52.6630 C.ar  600  ZOP600      0.0188
     11  CAF       91.0740   50.1060   53.0100 C.ar  600  ZOP600     -0.0014
     12  CAE       90.3600   50.8030   54.0000 C.ar  600  ZOP600      0.0188
     13  CAQ       90.0790   52.1820   53.8500 C.ar  600  ZOP600      0.0813
     14  NAP       89.3350   52.8070   54.8770 N.2   600  ZOP600     -0.2446
     15  CAO       89.2850   54.1250   55.3260 C.2   600  ZOP600      0.0932
     16  CAN       89.8770   55.2570   54.5750 C.ar  600  ZOP600      0.0184
     17  CAM       89.1560   55.8210   53.4890 C.ar  600  ZOP600      0.0015
     18  CAC       89.6870   56.8960   52.7660 C.ar  600  ZOP600      0.0000
     19  CAA       90.9380   57.4250   53.1170 C.ar  600  ZOP600      0.0000
     20  CAB       91.6560   56.8780   54.1950 C.ar  600  ZOP600      0.0000
     21  CAD       91.1390   55.8000   54.9280 C.ar  600  ZOP600      0.0015
     22  CBD       88.6100   54.3810   56.5460 C.2   600  ZOP600      0.1147
     23  CBC       88.3990   55.6850   57.2440 C.ar  600  ZOP600      0.0439
     24  CBB       88.7600   57.0400   56.9920 C.ar  600  ZOP600      0.0035
     25  CBJ       87.9640   53.4130   57.3890 C.1   600  ZOP600      0.2062
     26  OBK       87.8920   52.2160   57.1780 O.2   600  ZOP600     -0.2092
     27  NBI       87.4100   54.0160   58.4420 N.2   600  ZOP600     -0.3328
     28  CBH       87.6490   55.3750   58.4150 C.ar  600  ZOP600      0.1453
     29  CBG       87.2690   56.4010   59.2870 C.ar  600  ZOP600      0.0376
     30  CBF       87.6550   57.7390   59.0280 C.ar  600  ZOP600      0.0562
     31  CBA       88.3980   58.0510   57.8660 C.ar  600  ZOP600      0.0047
     32  OBE       86.4700   59.6500   59.5290 O.2   600  ZOP600     -0.2699
     33  CAX       86.2990   59.3850   63.1620 C.3   600  ZOP600      0.0233
     34  CAT       87.3000   59.9470   62.1500 C.3   600  ZOP600      0.0938
     35  C21       87.2530   58.8130   59.9600 C.2   600  ZOP600      0.2491
     36  N25       87.7240   58.8750   61.2500 N.am  600  ZOP600     -0.2743
     37  C29       88.6650   57.8920   61.8100 C.3   600  ZOP600      0.1152
@<TRIPOS>BOND
     1     3     2    1
     2     3     4    1
     3     2     1    1
     4     4     5    1
     5     1     6    1
     6     5     6    1
     7     6     7    1
     8     7     8    1
     9     9     8   ar
    10     9    10   ar
    11     8    11   ar
    12    10    13   ar
    13    18    19   ar
    14    18    17   ar
    15    11    12   ar
    16    19    20   ar
    17    17    16   ar
    18    13    12   ar
    19    13    14    1
    20    20    21   ar
    21    16    21   ar
    22    16    15    1
    23    14    15    2
    24    15    22    1
    25    22    23    2
    26    22    25    1
    27    24    23   ar
    28    24    31   ar
    29    26    25    2
    30    23    28   ar
    31    25    27    2
    32    31    30   ar
    33    28    27    2
    34    28    29   ar
    35    30    29   ar
    36    30    35    1
    37    32    35    2
    38    35    36   am
    39    36    37    1
    40    36    34    1
    41    34    33    1
