@<TRIPOS>MOLECULE
2x7s_WZC_A_1.pdb
 26 29 0 0 0
SMALL
GASTEIGER

@<TRIPOS>ATOM
      1  OAD       17.8960   25.5750   19.6270 O.3   1263  WZC1263    -0.0529
      2  SAZ       19.2940   25.9400   19.3530 S.3   1263  WZC1263     0.0827
      3  OAE       20.0610   25.5190   20.5250 O.3   1263  WZC1263    -0.0529
      4  NAC       19.8540   25.1190   18.1880 N.3   1263  WZC1263     0.0391
      5  OAP       19.3420   27.4390   19.0180 O.3   1263  WZC1263    -0.2300
      6  CAV       20.5550   28.0960   18.6680 C.3   1263  WZC1263     0.1445
      7  CAK       20.7340   28.1940   17.1430 C.3   1263  WZC1263     0.0320
      8  CAM       21.3300   29.5740   16.8590 C.3   1263  WZC1263     0.0027
      9  CAX       21.7200   30.0270   18.2590 C.3   1263  WZC1263     0.0027
     10  CAJ       23.0110   32.0740   17.4870 C.3   1263  WZC1263     0.0050
     11  CAI       23.1990   33.5600   17.7770 C.3   1263  WZC1263     0.0262
     12  CAR       23.3530   33.8570   19.2580 C.ar  1263  WZC1263    -0.0228
     13  CAG       23.7670   35.1420   19.6090 C.ar  1263  WZC1263     0.0406
     14  CAQ       23.9390   35.5020   20.9400 C.ar  1263  WZC1263     0.2289
     15  OAF       24.3440   36.7730   21.2380 O.3   1263  WZC1263    -0.2833
     16  CAS       23.6940   34.5790   21.9430 C.ar  1263  WZC1263     0.1770
     17  OAO       23.8720   34.9500   23.2600 O.3   1263  WZC1263    -0.4682
     18  CAA       24.4200   34.0470   24.2250 C.3   1263  WZC1263     0.2526
     19  CAH       23.2730   33.2860   21.6030 C.ar  1263  WZC1263     0.0356
     20  CAT       23.1050   32.9170   20.2620 C.ar  1263  WZC1263    -0.0232
     21  CAU       22.6520   31.5380   19.9260 C.3   1263  WZC1263     0.0221
     22  CAL       21.6610   31.0210   20.9790 C.3   1263  WZC1263     0.0044
     23  CAN       21.0700   29.6430   20.6500 C.3   1263  WZC1263     0.0027
     24  CAB       19.2810   30.2340   18.9960 C.3   1263  WZC1263     0.0025
     25  CAY       20.6290   29.5240   19.1880 C.3   1263  WZC1263     0.0274
     26  CAW       22.0500   31.4930   18.5130 C.3   1263  WZC1263     0.0044
@<TRIPOS>BOND
     1     8     7    1
     2     8     9    1
     3     7     6    1
     4    10    11    1
     5    10    26    1
     6    11    12    1
     7     4     2    1
     8     9    26    1
     9     9    25    1
    10    26    21    1
    11     6     5    1
    12     6    25    1
    13    24    25    1
    14     5     2    1
    15    25    23    1
    16    12    13   ar
    17    12    20   ar
    18     2     1    1
    19     2     3    1
    20    13    14   ar
    21    21    20    1
    22    21    22    1
    23    20    19   ar
    24    23    22    1
    25    14    15    1
    26    14    16   ar
    27    19    16   ar
    28    16    17    1
    29    17    18    1
