@<TRIPOS>MOLECULE
2x7t_WZB_A_1.pdb
 30 33 0 0 0
SMALL
GASTEIGER

@<TRIPOS>ATOM
      1  OAH       -7.2590    1.0810   17.1950 O.3   1261  WZB1261    -0.0529
      2  SBD       -5.8440    1.1230   16.8590 S.3   1261  WZB1261     0.0827
      3  OAG       -5.0640    1.7200   17.8900 O.3   1261  WZB1261    -0.0529
      4  NAD       -5.2570   -0.2570   16.5960 N.3   1261  WZB1261     0.0391
      5  OAS       -5.7450    1.9740   15.4580 O.3   1261  WZB1261    -0.2300
      6  CAX       -4.4780    2.1930   14.8150 C.3   1261  WZB1261     0.1445
      7  CAM       -4.3360    1.3680   13.5120 C.3   1261  WZB1261     0.0320
      8  CAO       -3.3380    2.1590   12.6430 C.3   1261  WZB1261     0.0027
      9  CBB       -4.2720    3.6400   14.3690 C.3   1261  WZB1261     0.0274
     10  CBA       -2.9700    3.3090   13.5950 C.3   1261  WZB1261     0.0027
     11  CAB       -5.5180    4.0930   13.5180 C.3   1261  WZB1261     0.0025
     12  CAQ       -4.0290    4.7390   15.4340 C.3   1261  WZB1261     0.0027
     13  CAP       -3.2790    5.9790   14.8850 C.3   1261  WZB1261     0.0044
     14  CAY       -1.9960    5.5750   14.1090 C.3   1261  WZB1261     0.0220
     15  CAZ       -2.3100    4.5640   12.9310 C.3   1261  WZB1261     0.0044
     16  CAN       -1.0130    4.1990   12.1530 C.3   1261  WZB1261     0.0050
     17  CAL       -0.4090    5.4620   11.4650 C.3   1261  WZB1261     0.0261
     18  CAU       -0.4900    6.7330   12.3220 C.ar  1261  WZB1261    -0.0231
     19  CAI        0.2120    7.9250   11.8830 C.ar  1261  WZB1261     0.0349
     20  CAW       -1.2440    6.7840   13.5670 C.ar  1261  WZB1261    -0.0266
     21  CAJ       -1.0960    7.9940   14.0470 C.ar  1261  WZB1261    -0.0058
     22  CAT       -0.5640    9.1860   13.8900 C.ar  1261  WZB1261     0.0143
     23  CAK       -0.6830   10.3940   14.8140 C.3   1261  WZB1261     0.0295
     24  CAA       -1.8820   11.2210   14.3680 C.3   1261  WZB1261     0.0051
     25  CAV        0.1890    9.1500   12.6430 C.ar  1261  WZB1261     0.1685
     26  OAR        0.8930   10.2470   12.1610 O.3   1261  WZB1261    -0.3472
     27  SBC        2.5430   10.2540   12.2570 S.3   1261  WZB1261     0.1232
     28  OAF        3.0080   11.6470   12.0590 O.3   1261  WZB1261    -0.0428
     29  OAE        3.1160    9.4060   11.1880 O.3   1261  WZB1261    -0.0428
     30  NAC        3.0410    9.7330   13.6050 N.3   1261  WZB1261     0.0501
@<TRIPOS>BOND
     1    29    27    1
     2    17    16    1
     3    17    18    1
     4    19    18   ar
     5    19    25   ar
     6    28    27    1
     7    16    15    1
     8    26    27    1
     9    26    25    1
    10    27    30    1
    11    18    20   ar
    12    25    22   ar
    13     8     7    1
    14     8    10    1
    15    15    10    1
    16    15    14    1
    17     7     6    1
    18    11     9    1
    19    20    21   ar
    20    20    14    1
    21    10     9    1
    22    22    21   ar
    23    22    23    1
    24    14    13    1
    25    24    23    1
    26     9     6    1
    27     9    12    1
    28     6     5    1
    29    13    12    1
    30     5     2    1
    31     4     2    1
    32     2     1    1
    33     2     3    1
