@<TRIPOS>MOLECULE
2x7u_WZA_A_1.pdb
 26 29 0 0 0
SMALL
GASTEIGER

@<TRIPOS>ATOM
      1  C1         2.0780    4.8580  -17.8680 C.ar  1263  WZA1263     0.2061
      2  O1         1.6100    7.6880  -19.3780 O.3   1263  WZA1263    -0.0428
      3  O2        -0.4850    7.1710  -18.4600 O.3   1263  WZA1263    -0.0428
      4  C2         1.2370    3.7880  -18.4550 C.ar  1263  WZA1263     0.1749
      5  C3         1.7790    2.5940  -18.8920 C.ar  1263  WZA1263     0.0356
      6  C4         3.1370    2.3610  -18.7950 C.ar  1263  WZA1263    -0.0232
      7  S1         0.9190    7.3540  -18.1810 S.3   1263  WZA1263     0.1233
      8  N1         1.1080    8.5450  -17.1320 N.3   1263  WZA1263     0.0501
      9  O3         1.5310    6.0330  -17.3960 O.3   1263  WZA1263    -0.3437
     10  C5         4.0130    3.4010  -18.1940 C.ar  1263  WZA1263    -0.0228
     11  C6         3.4510    4.6110  -17.7520 C.ar  1263  WZA1263     0.0384
     12  O4        -0.0980    3.9070  -18.5740 O.3   1263  WZA1263    -0.4683
     13  C7        -0.8100    2.8730  -17.8960 C.3   1263  WZA1263     0.2526
     14  C8         3.6520    1.0560  -19.2750 C.3   1263  WZA1263     0.0221
     15  C10        5.8200    1.6400  -18.0950 C.3   1263  WZA1263     0.0050
     16  C11        5.5060    3.1400  -18.0830 C.3   1263  WZA1263     0.0261
     17  C12        3.0630    0.6460  -20.6320 C.3   1263  WZA1263     0.0044
     18  C13        3.4200   -0.8190  -20.9370 C.3   1263  WZA1263     0.0028
     19  C14        4.9140   -1.0980  -20.7630 C.3   1263  WZA1263     0.0282
     20  C15        5.2380   -2.5660  -20.5550 C.3   1263  WZA1263     0.1519
     21  C16        5.6410   -0.4890  -21.9720 C.3   1263  WZA1263     0.0025
     22  C17        5.3860   -0.5510  -19.4160 C.3   1263  WZA1263     0.0028
     23  C18        6.7480   -1.1950  -19.1610 C.3   1263  WZA1263     0.0027
     24  C19        6.6160   -2.5720  -19.8730 C.3   1263  WZA1263     0.0329
     25  CAW        5.1760    0.9620  -19.3030 C.3   1263  WZA1263     0.0044
     26  OAF        5.2270   -3.2950  -21.7860 O.3   1263  WZA1263    -0.2232
@<TRIPOS>BOND
     1    21    19    1
     2    26    20    1
     3    18    19    1
     4    18    17    1
     5    19    20    1
     6    19    22    1
     7    17    14    1
     8    20    24    1
     9    24    23    1
    10    22    25    1
    11    22    23    1
    12     2     7    1
    13    25    14    1
    14    25    15    1
    15    14     6    1
    16     5     6   ar
    17     5     4   ar
    18     6    10   ar
    19    12     4    1
    20    12    13    1
    21     3     7    1
    22     4     1   ar
    23    10    16    1
    24    10    11   ar
    25     7     9    1
    26     7     8    1
    27    15    16    1
    28     1    11   ar
    29     1     9    1
