@<TRIPOS>MOLECULE
2x7x_FRU_A_1.pdb
 12 12 0 0 0
SMALL
GASTEIGER

@<TRIPOS>ATOM
      1  C1        25.8010   40.7190   54.2890 C.3   1335  FRU1335     0.2434
      2  C2        26.8970   41.7160   54.6190 C.3   1335  FRU1335     0.2807
      3  C3        28.2900   41.1400   54.3800 C.3   1335  FRU1335     0.2409
      4  C4        29.0760   41.7130   55.5430 C.3   1335  FRU1335     0.2168
      5  C5        28.0460   41.6270   56.6610 C.3   1335  FRU1335     0.1836
      6  C6        28.2760   42.5780   57.8340 C.3   1335  FRU1335     0.2142
      7  O1        24.5520   41.3970   54.1820 O.3   1335  FRU1335    -0.2148
      8  O2        26.6650   42.9110   53.8650 O.3   1335  FRU1335    -0.1896
      9  O3        28.8230   41.4780   53.0910 O.3   1335  FRU1335    -0.2149
     10  O4        30.2760   40.9820   55.8180 O.3   1335  FRU1335    -0.2175
     11  O5        26.8320   42.0100   56.0090 O.3   1335  FRU1335    -0.3253
     12  O6        27.3100   42.3060   58.8690 O.3   1335  FRU1335    -0.2176
@<TRIPOS>BOND
     1     9     3    1
     2     8     2    1
     3     7     1    1
     4     1     2    1
     5     3     2    1
     6     3     4    1
     7     2    11    1
     8     4    10    1
     9     4     5    1
    10    11     5    1
    11     5     6    1
    12     6    12    1
