@<TRIPOS>MOLECULE
2x7y_HEM_A_1.pdb
 43 50 0 0 0
SMALL
GASTEIGER

@<TRIPOS>ATOM
      1  CHA       14.1050    5.4370    8.2060 C.2   1456  HEM1456     0.0000
      2  CHB       10.1960    8.2660    8.0770 C.2   1456  HEM1456     0.0000
      3  CHC       11.3600    9.6920    3.5800 C.2   1456  HEM1456     0.0000
      4  CHD       14.7990    6.2890    3.4220 C.2   1456  HEM1456     0.0000
      5  C1A       12.9580    6.0900    8.5930 C.2   1456  HEM1456     0.0000
      6  C2A       12.2840    5.9520    9.8720 C.2   1456  HEM1456     0.0000
      7  C3A       11.1760    6.7050    9.8380 C.2   1456  HEM1456     0.0000
      8  C4A       11.1400    7.3790    8.5390 C.2   1456  HEM1456     0.0000
      9  CMA       10.1590    6.8540   10.9870 C.3   1456  HEM1456     0.0000
     10  CAA       12.7590    5.0580   11.0370 C.3   1456  HEM1456     0.0000
     11  CBA       12.0780    3.6960   10.9390 C.3   1456  HEM1456     0.0000
     12  CGA       12.3440    2.8530   12.1690 C.2   1456  HEM1456     0.0000
     13  O1A       12.7630    3.3980   13.2280 O.co2 1456  HEM1456     0.0000
     14  O2A       12.1370    1.6030   12.0900 O.co2 1456  HEM1456     0.0000
     15  C1B       10.1690    8.9220    6.8610 C.ar  1456  HEM1456     0.0000
     16  C2B        9.1730    9.8980    6.4400 C.ar  1456  HEM1456     0.0000
     17  C3B        9.5130   10.3190    5.1960 C.ar  1456  HEM1456     0.0000
     18  C4B       10.6940    9.5760    4.7840 C.ar  1456  HEM1456     0.0000
     19  CMB        8.0040   10.3650    7.3400 C.3   1456  HEM1456     0.0000
     20  CAB        8.8270   11.3400    4.2690 C.2   1456  HEM1456     0.0000
     21  CBB        8.1610   12.4390    4.6510 C.2   1456  HEM1456     0.0000
     22  C1C       12.4300    8.9220    3.1460 C.2   1456  HEM1456     0.0000
     23  C2C       13.1530    9.0790    1.8810 C.2   1456  HEM1456     0.0000
     24  C3C       14.1180    8.1360    1.8400 C.2   1456  HEM1456     0.0000
     25  C4C       14.0060    7.3600    3.0770 C.2   1456  HEM1456     0.0000
     26  CMC       12.8290   10.1590    0.8150 C.3   1456  HEM1456     0.0000
     27  CAC       15.1740    7.8700    0.7320 C.2   1456  HEM1456     0.0000
     28  CBC       15.6730    8.8210   -0.0950 C.2   1456  HEM1456     0.0000
     29  C1D       14.9260    5.7440    4.6750 C.ar  1456  HEM1456     0.0000
     30  C2D       15.8730    4.7150    5.0180 C.ar  1456  HEM1456     0.0000
     31  C3D       15.6600    4.4450    6.5070 C.ar  1456  HEM1456     0.0000
     32  C4D       14.5930    5.3270    6.9160 C.ar  1456  HEM1456     0.0000
     33  CMD       16.8560    4.0410    4.0630 C.3   1456  HEM1456     0.0000
     34  CAD       16.4240    3.4530    7.3960 C.3   1456  HEM1456     0.0000
     35  CBD       17.6380    4.2640    7.8620 C.3   1456  HEM1456     0.0000
     36  CGD       18.4630    3.4020    8.7840 C.2   1456  HEM1456     0.0000
     37  O1D       19.6890    3.3240    8.5750 O.co2 1456  HEM1456     0.0000
     38  O2D       17.8860    2.7850    9.7150 O.co2 1456  HEM1456     0.0000
     39  NA        12.2400    6.9760    7.8100 N.2   1456  HEM1456     0.0000
     40  NB        11.0650    8.7520    5.8220 N.ar  1456  HEM1456     0.0000
     41  NC        12.9730    7.8550    3.8360 N.2   1456  HEM1456     0.0000
     42  ND        14.1970    6.0810    5.8090 N.ar  1456  HEM1456     0.0000
     43 FE         12.7640    7.5660    5.8920 Fe    1456  HEM1456     0.0000
@<TRIPOS>BOND
     1    28    27    2
     2    27    24    1
     3    26    23    1
     4    24    23    2
     5    24    25    1
     6    23    22    1
     7    25     4    1
     8    25    41    2
     9    22     3    2
    10    22    41    1
    11     4    29    2
    12     3    18    1
    13    41    43    1
    14    33    30    1
    15    20    21    2
    16    20    17    1
    17    29    30   ar
    18    29    42   ar
    19    18    17   ar
    20    18    40   ar
    21    30    31   ar
    22    17    16   ar
    23    42    43    1
    24    42    32   ar
    25    40    43    1
    26    40    15   ar
    27    43    39    1
    28    16    15   ar
    29    16    19    1
    30    31    32   ar
    31    31    34    1
    32    15     2    1
    33    32     1    2
    34    34    35    1
    35    39     8    1
    36    39     5    2
    37    35    36    1
    38     2     8    2
    39     1     5    1
    40     8     7    1
    41    37    36   ar
    42     5     6    1
    43    36    38   ar
    44     7     6    2
    45     7     9    1
    46     6    10    1
    47    11    10    1
    48    11    12    1
    49    14    12   ar
    50    12    13   ar
