@<TRIPOS>MOLECULE
2x80_HEM_A_1.pdb
 43 50 0 0 0
SMALL
GASTEIGER

@<TRIPOS>ATOM
      1  CHA       12.9470   11.6420   49.8220 C.2   1456  HEM1456     0.0000
      2  CHB        8.4560    9.9750   49.2680 C.2   1456  HEM1456     0.0000
      3  CHC        7.9060   12.6630   45.2070 C.2   1456  HEM1456     0.0000
      4  CHD       12.6040   13.7120   45.3640 C.2   1456  HEM1456     0.0000
      5  C1A       11.7820   10.9670   50.0600 C.2   1456  HEM1456     0.0000
      6  C2A       11.4960   10.1260   51.2080 C.2   1456  HEM1456     0.0000
      7  C3A       10.2440    9.6510   51.0580 C.2   1456  HEM1456     0.0000
      8  C4A        9.6990   10.1990   49.8210 C.2   1456  HEM1456     0.0000
      9  CMA        9.5110    8.6950   52.0140 C.3   1456  HEM1456     0.0000
     10  CAA       12.5010    9.8330   52.3510 C.3   1456  HEM1456     0.0000
     11  CBA       13.2250    8.5000   52.0530 C.3   1456  HEM1456     0.0000
     12  CGA       14.1830    8.0860   53.1580 C.2   1456  HEM1456     0.0000
     13  O1A       14.0740    8.6160   54.3030 O.co2 1456  HEM1456     0.0000
     14  O2A       15.0590    7.2180   52.8850 O.co2 1456  HEM1456     0.0000
     15  C1B        7.9250   10.5500   48.1150 C.ar  1456  HEM1456     0.0000
     16  C2B        6.5810   10.3330   47.6040 C.ar  1456  HEM1456     0.0000
     17  C3B        6.4350   11.0860   46.4860 C.ar  1456  HEM1456     0.0000
     18  C4B        7.6820   11.7890   46.2520 C.ar  1456  HEM1456     0.0000
     19  CMB        5.5410    9.4100   48.2770 C.3   1456  HEM1456     0.0000
     20  CAB        5.2200   11.2370   45.5410 C.2   1456  HEM1456     0.0000
     21  CBB        3.9680   11.2980   45.9960 C.2   1456  HEM1456     0.0000
     22  C1C        9.1170   13.1990   44.8540 C.2   1456  HEM1456     0.0000
     23  C2C        9.4180   14.0060   43.6860 C.2   1456  HEM1456     0.0000
     24  C3C       10.7170   14.2870   43.7490 C.2   1456  HEM1456     0.0000
     25  C4C       11.2890   13.6890   44.9430 C.2   1456  HEM1456     0.0000
     26  CMC        8.4190   14.4660   42.5820 C.3   1456  HEM1456     0.0000
     27  CAC       11.4750   15.1420   42.7360 C.3   1456  HEM1456     0.0000
     28  CBC       12.0300   16.2420   43.2480 C.3   1456  HEM1456     0.0000
     29  C1D       13.1200   13.2870   46.5850 C.ar  1456  HEM1456     0.0000
     30  C2D       14.4600   13.6050   47.0730 C.ar  1456  HEM1456     0.0000
     31  C3D       14.5490   12.9670   48.4510 C.ar  1456  HEM1456     0.0000
     32  C4D       13.2630   12.3290   48.6760 C.ar  1456  HEM1456     0.0000
     33  CMD       15.5940   14.4060   46.3920 C.3   1456  HEM1456     0.0000
     34  CAD       15.7610   13.0120   49.4070 C.3   1456  HEM1456     0.0000
     35  CBD       15.5850   14.2710   50.2540 C.3   1456  HEM1456     0.0000
     36  CGD       16.7530   14.4710   51.1690 C.2   1456  HEM1456     0.0000
     37  O1D       17.2800   15.6150   51.2290 O.co2 1456  HEM1456     0.0000
     38  O2D       17.1400   13.4900   51.8480 O.co2 1456  HEM1456     0.0000
     39  NA        10.6660   11.0030   49.2630 N.2   1456  HEM1456     0.0000
     40  NB         8.5610   11.4640   47.2750 N.ar  1456  HEM1456     0.0000
     41  NC        10.2690   13.0290   45.5790 N.2   1456  HEM1456     0.0000
     42  ND        12.4430   12.5350   47.5670 N.ar  1456  HEM1456     0.0000
     43 FE         10.3880   12.1020   47.4930 Fe    1456  HEM1456     0.0000
@<TRIPOS>BOND
     1    26    23    1
     2    27    28    1
     3    27    24    1
     4    23    24    2
     5    23    22    1
     6    24    25    1
     7    22     3    2
     8    22    41    1
     9    25     4    1
    10    25    41    2
    11     3    18    1
    12     4    29    2
    13    20    21    2
    14    20    17    1
    15    41    43    1
    16    18    17   ar
    17    18    40   ar
    18    33    30    1
    19    17    16   ar
    20    29    30   ar
    21    29    42   ar
    22    30    31   ar
    23    40    43    1
    24    40    15   ar
    25    43    42    1
    26    43    39    1
    27    42    32   ar
    28    16    15   ar
    29    16    19    1
    30    15     2    1
    31    31    32   ar
    32    31    34    1
    33    32     1    2
    34    39     8    1
    35    39     5    2
    36     2     8    2
    37    34    35    1
    38     8     7    1
    39     1     5    1
    40     5     6    1
    41    35    36    1
    42     7     6    2
    43     7     9    1
    44    36    37   ar
    45    36    38   ar
    46     6    10    1
    47    11    10    1
    48    11    12    1
    49    14    12   ar
    50    12    13   ar
