@<TRIPOS>MOLECULE
2x81_ZZL_A_1.pdb
 34 38 0 0 0
SMALL
GASTEIGER

@<TRIPOS>ATOM
      1  C13        4.6920  -28.6780   -9.0680 C.3   1389  ZZL1389     0.1560
      2  C15        6.5130  -28.2690   -7.3510 C.2   1389  ZZL1389     0.0808
      3  C17        8.5990  -29.0370   -6.3780 C.ar  1389  ZZL1389     0.1437
      4  C20       10.6650  -27.8530   -6.7940 C.ar  1389  ZZL1389     0.0046
      5  C21        9.9760  -26.9400   -7.5900 C.ar  1389  ZZL1389     0.0298
      6  C22        8.6010  -27.0700   -7.7800 C.ar  1389  ZZL1389     0.1437
      7  C24        5.6650  -28.2580   -6.2310 C.ar  1389  ZZL1389     0.0207
      8  C26        5.2700  -27.2390   -4.0920 C.ar  1389  ZZL1389     0.0577
      9  C28        4.1490  -28.0390   -3.8920 C.ar  1389  ZZL1389     0.0115
     10  O01       -0.5150  -34.6770   -1.3120 O.co2 1389  ZZL1389    -0.8440
     11  C02        0.6910  -34.3820   -1.4410 C.2   1389  ZZL1389     0.1198
     12  O03        1.5030  -34.3410   -0.4950 O.co2 1389  ZZL1389    -0.3036
     13  C04        1.1870  -34.0380   -2.8490 C.ar  1389  ZZL1389     0.0239
     14  C05        2.2200  -33.1200   -3.0390 C.ar  1389  ZZL1389     0.0033
     15  C06        2.6530  -32.8120   -4.3280 C.ar  1389  ZZL1389     0.0174
     16  C07        2.0470  -33.4100   -5.4370 C.ar  1389  ZZL1389     0.0826
     17  N08        2.4290  -33.1690   -6.7010 N.pl3 1389  ZZL1389    -0.1358
     18  C09        2.9880  -32.0550   -7.1910 C.1   1389  ZZL1389     0.1696
     19  N10        3.0360  -31.9220   -8.5340 N.2   1389  ZZL1389    -0.1686
     20  C11        3.5720  -30.8570   -9.1120 C.2   1389  ZZL1389     0.1120
     21  C12        4.0930  -29.8590   -8.3020 C.2   1389  ZZL1389     0.0525
     22  N14        6.0790  -28.4640   -8.6030 N.2   1389  ZZL1389    -0.2653
     23  C16        7.8970  -28.1220   -7.1720 C.ar  1389  ZZL1389     0.0721
     24  F18        7.9540  -30.0570   -5.7800 F     1389  ZZL1389    -0.2040
     25  C19        9.9740  -28.8990   -6.1890 C.ar  1389  ZZL1389     0.0298
     26  F23        7.9700  -26.1630   -8.5550 F     1389  ZZL1389    -0.2040
     27  C25        6.0350  -27.3380   -5.2530 C.ar  1389  ZZL1389     0.0130
     28 CL1         5.7160  -26.0990   -2.8800 Cl    1389  ZZL1389    -0.0822
     29  C29        3.7750  -28.9560   -4.8670 C.ar  1389  ZZL1389     0.0035
     30  C30        4.5440  -29.0670   -6.0260 C.ar  1389  ZZL1389     0.0318
     31  C31        4.0540  -30.0060   -6.9280 C.2   1389  ZZL1389     0.1435
     32  N32        3.4990  -31.1010   -6.3880 N.2   1389  ZZL1389    -0.3364
     33  C33        1.0160  -34.3260   -5.2350 C.ar  1389  ZZL1389     0.0174
     34  C34        0.5850  -34.6390   -3.9500 C.ar  1389  ZZL1389     0.0033
@<TRIPOS>UNITY_ATOM_ATTR
10 1
charge -1
@<TRIPOS>BOND
     1    20    19    1
     2    20    21    2
     3     1    22    1
     4     1    21    1
     5    22     2    2
     6    26     6    1
     7    19    18    2
     8    21    31    1
     9     6     5   ar
    10     6    23   ar
    11     5     4   ar
    12     2    23    1
    13     2     7    1
    14    18    17    1
    15    18    32    2
    16    23     3   ar
    17    31    32    2
    18    31    30    1
    19     4    25   ar
    20    17    16    1
    21     3    25   ar
    22     3    24    1
    23     7    30   ar
    24     7    27   ar
    25    30    29   ar
    26    16    33   ar
    27    16    15   ar
    28    27     8   ar
    29    33    34   ar
    30    29     9   ar
    31    15    14   ar
    32     8     9   ar
    33     8    28    1
    34    34    13   ar
    35    14    13   ar
    36    13    11    1
    37    11    10   ar
    38    11    12   ar
