@<TRIPOS>MOLECULE
2x85_GLC_A_1.pdb
 11 11 0 0 0
SMALL
GASTEIGER

@<TRIPOS>ATOM
      1  C1        -6.7180  -16.5200   43.3440 C.3   1720  GLC1720     0.1777
      2  C2        -5.9840  -16.1060   44.5990 C.3   1720  GLC1720     0.2141
      3  C3        -5.9770  -17.2980   45.5570 C.3   1720  GLC1720     0.2173
      4  C4        -7.4100  -17.7620   45.8270 C.3   1720  GLC1720     0.2142
      5  C5        -8.1770  -17.9940   44.5300 C.3   1720  GLC1720     0.1810
      6  C6        -9.6540  -18.3030   44.7540 C.3   1720  GLC1720     0.2141
      7  O2        -4.6740  -15.6890   44.2520 O.3   1720  GLC1720    -0.2176
      8  O3        -5.3050  -16.9040   46.7420 O.3   1720  GLC1720    -0.2175
      9  O4        -7.3590  -18.9690   46.5500 O.3   1720  GLC1720    -0.2176
     10  O5        -8.0270  -16.8470   43.6950 O.3   1720  GLC1720    -0.3481
     11  O6       -10.2590  -17.3150   45.5320 O.3   1720  GLC1720    -0.2176
@<TRIPOS>BOND
     1     1    10    1
     2     1     2    1
     3    10     5    1
     4     7     2    1
     5     5     6    1
     6     5     4    1
     7     2     3    1
     8     6    11    1
     9     3     4    1
    10     3     8    1
    11     4     9    1
