@<TRIPOS>MOLECULE
2x85_RAM_A_1.pdb
 10 10 0 0 0
SMALL
GASTEIGER

@<TRIPOS>ATOM
      1  C1       -11.5190  -13.3140   28.3840 C.3   1715  RAM1715     0.1776
      2  C2       -11.0950  -12.6110   27.1000 C.3   1715  RAM1715     0.2141
      3  C3       -10.4050  -13.5750   26.1460 C.3   1715  RAM1715     0.2172
      4  C4       -11.2160  -14.8530   25.9780 C.3   1715  RAM1715     0.2116
      5  C5       -11.5610  -15.4550   27.3480 C.3   1715  RAM1715     0.1483
      6  C6       -12.4120  -16.7120   27.2280 C.3   1715  RAM1715     0.0349
      7  O2       -12.2710  -12.1340   26.4980 O.3   1715  RAM1715    -0.2176
      8  O3       -10.2710  -12.9490   24.8870 O.3   1715  RAM1715    -0.2175
      9  O4       -10.5020  -15.7490   25.1400 O.3   1715  RAM1715    -0.2177
     10  O5       -12.2740  -14.4870   28.1220 O.3   1715  RAM1715    -0.3508
@<TRIPOS>BOND
     1     8     3    1
     2     9     4    1
     3     4     3    1
     4     4     5    1
     5     3     2    1
     6     7     2    1
     7     2     1    1
     8     6     5    1
     9     5    10    1
    10    10     1    1
