@<TRIPOS>MOLECULE
2x85_GLA_A_1.pdb
 11 11 0 0 0
SMALL
GASTEIGER

@<TRIPOS>ATOM
      1  C1        -7.5990  -14.8740   36.6170 C.3   1717  GLA1717     0.1777
      2  C2        -8.8370  -15.0710   35.7650 C.3   1717  GLA1717     0.2141
      3  C3        -8.4390  -15.5020   34.3530 C.3   1717  GLA1717     0.2173
      4  C4        -7.3800  -14.6180   33.7050 C.3   1717  GLA1717     0.2142
      5  C5        -6.3930  -14.3050   34.7240 C.3   1717  GLA1717     0.1810
      6  C6        -5.1970  -13.3890   34.3780 C.3   1717  GLA1717     0.2141
      7  O2        -9.6120  -16.0920   36.3410 O.3   1717  GLA1717    -0.2176
      8  O3        -9.6210  -15.5960   33.5830 O.3   1717  GLA1717    -0.2175
      9  O4        -7.7090  -13.3010   33.6670 O.3   1717  GLA1717    -0.2176
     10  O5        -6.7140  -13.9340   36.0780 O.3   1717  GLA1717    -0.3481
     11  O6        -4.8280  -13.7080   33.0690 O.3   1717  GLA1717    -0.2176
@<TRIPOS>BOND
     1    11     6    1
     2     8     3    1
     3     9     4    1
     4     4     3    1
     5     4     5    1
     6     3     2    1
     7     6     5    1
     8     5    10    1
     9     2     7    1
    10     2     1    1
    11    10     1    1
