@<TRIPOS>MOLECULE
2x86_BMA_A_1.pdb
 11 11 0 0 0
SMALL
GASTEIGER

@<TRIPOS>ATOM
      1  C3        28.9340  -27.8290   79.2100 C.3   402  BMA402      0.2173
      2  C4        28.5940  -28.9170   80.2180 C.3   402  BMA402      0.2142
      3  C5        29.8870  -29.4400   80.8470 C.3   402  BMA402      0.1810
      4  C6        29.5620  -30.5500   81.8490 C.3   402  BMA402      0.2141
      5  O2        29.3230  -29.3650   77.4050 O.3   402  BMA402     -0.2176
      6  O3        27.7450  -27.4280   78.5690 O.3   402  BMA402     -0.2175
      7  O4        27.7310  -28.3820   81.2000 O.3   402  BMA402     -0.2176
      8  O5        30.8200  -29.9020   79.8280 O.3   402  BMA402     -0.3481
      9  O6        30.3900  -31.6770   81.6630 O.3   402  BMA402     -0.2176
     10  C1        31.1810  -28.8820   78.8610 C.3   402  BMA402      0.1777
     11  C2        29.9270  -28.3370   78.1680 C.3   402  BMA402      0.2141
@<TRIPOS>BOND
     1     5    11    1
     2    11    10    1
     3    11     1    1
     4     6     1    1
     5    10     8    1
     6     1     2    1
     7     8     3    1
     8     2     3    1
     9     2     7    1
    10     3     4    1
    11     9     4    1
