@<TRIPOS>MOLECULE
2x86_NAP_A_1.pdb
 48 52 0 0 0
SMALL
GASTEIGER

@<TRIPOS>ATOM
      1  PA        22.2610  -25.3460   77.9060 P.3   400  NAP400      0.2189
      2  O1A       22.2190  -25.5810   76.4350 O.2   400  NAP400     -0.5170
      3  O2A       22.8900  -24.0360   78.1930 O.3   400  NAP400     -0.4371
      4  O5B       20.7770  -25.4280   78.5150 O.3   400  NAP400     -0.3112
      5  C5B       20.4620  -24.7760   79.7300 C.3   400  NAP400      0.1813
      6  C4B       19.5510  -23.5620   79.5470 C.3   400  NAP400      0.1820
      7  O4B       18.9880  -23.2470   80.8070 O.3   400  NAP400     -0.3136
      8  C3B       20.2100  -22.2720   79.0870 C.3   400  NAP400      0.2157
      9  O3B       19.2530  -21.6880   78.2210 O.3   400  NAP400     -0.2175
     10  C2B       20.4860  -21.4800   80.3820 C.3   400  NAP400      0.2314
     11  O2B       20.7100  -20.0540   80.2540 O.3   400  NAP400     -0.2630
     12  C1B       19.2080  -21.8910   81.1220 C.3   400  NAP400      0.3158
     13  N9A       19.2040  -21.8090   82.5850 N.pl3 400  NAP400     -0.1439
     14  C8A       20.2360  -21.4840   83.4060 C.3   400  NAP400      0.3377
     15  N7A       19.7960  -21.5300   84.6810 N.2   400  NAP400     -0.2095
     16  C5A       18.4940  -21.8650   84.6960 C.2   400  NAP400      0.2526
     17  C6A       17.5770  -22.0460   85.7380 C.2   400  NAP400      0.4393
     18  N6A       17.9250  -21.8790   87.0130 N.pl3 400  NAP400      0.2180
     19  N1A       16.2810  -22.4080   85.4310 N.2   400  NAP400      0.0021
     20  C2A       15.9170  -22.5810   84.1050 C.3   400  NAP400      0.5254
     21  N3A       16.8410  -22.3980   83.0880 N.2   400  NAP400     -0.0055
     22  C4A       18.1100  -22.0450   83.3750 C.2   400  NAP400      0.3518
     23  O3        22.9750  -26.5660   78.6450 O.3   400  NAP400     -0.2703
     24  PN        22.7940  -28.1270   78.3270 P.3   400  NAP400      0.2189
     25  O1N       23.9540  -28.5720   77.4950 O.2   400  NAP400     -0.5170
     26  O2N       21.3980  -28.2740   77.8360 O.3   400  NAP400     -0.4371
     27  O5D       22.8480  -28.8280   79.7690 O.3   400  NAP400     -0.3112
     28  C5D       21.6530  -29.0450   80.4800 C.3   400  NAP400      0.1813
     29  C4D       21.9920  -29.3380   81.9240 C.3   400  NAP400      0.1799
     30  O4D       22.7810  -30.5020   81.9510 O.3   400  NAP400     -0.3327
     31  C3D       22.8280  -28.2380   82.5480 C.3   400  NAP400      0.2158
     32  O3D       22.5760  -28.2160   83.9330 O.3   400  NAP400     -0.2175
     33  C2D       24.2460  -28.6850   82.2650 C.3   400  NAP400      0.2309
     34  O2D       25.1860  -28.2500   83.2150 O.3   400  NAP400     -0.2158
     35  C1D       24.0840  -30.1790   82.3880 C.3   400  NAP400      0.2263
     36  N1N       25.1110  -30.9260   81.6340 N.pl3 400  NAP400     -0.2787
     37  C2N       25.2010  -30.8730   80.2780 C.3   400  NAP400      0.1244
     38  C3N       26.1690  -31.6010   79.6090 C.2   400  NAP400      0.0544
     39  C7N       26.5670  -31.3630   78.1800 C.2   400  NAP400      0.2818
     40  O7N       27.4570  -32.0160   77.6100 O.2   400  NAP400     -0.2670
     41  N7N       25.8370  -30.3000   77.5070 N.am  400  NAP400     -0.0839
     42  C4N       27.0130  -32.3580   80.3310 C.2   400  NAP400      0.0033
     43  C5N       26.9930  -32.4980   81.7050 C.2   400  NAP400      0.0157
     44  C6N       25.9460  -31.6780   82.3480 C.2   400  NAP400      0.0633
     45  P2B       21.6050  -19.0220   81.2100 P.3   400  NAP400      0.5328
     46  O1X       22.3310  -18.0220   80.3160 O.2   400  NAP400     -0.2224
     47  O2X       20.7130  -18.2790   82.1990 O.3   400  NAP400     -0.1145
     48  O3X       22.7160  -19.6700   82.0080 O.3   400  NAP400     -0.1145
@<TRIPOS>BOND
     1     2     1    2
     2    25    24    2
     3    41    39   am
     4    40    39    2
     5    26    24    1
     6     1     3    1
     7     1     4    1
     8     1    23    1
     9    39    38    1
    10     9     8    1
    11    24    23    1
    12    24    27    1
    13     4     5    1
    14     8     6    1
    15     8    10    1
    16     6     5    1
    17     6     7    1
    18    38    37    1
    19    38    42    2
    20    27    28    1
    21    11    10    1
    22    11    45    1
    23    37    36    1
    24    46    45    2
    25    42    43    1
    26    10    12    1
    27    28    29    1
    28     7    12    1
    29    12    13    1
    30    45    48    1
    31    45    47    1
    32    36    44    1
    33    36    35    1
    34    43    44    2
    35    29    30    1
    36    29    31    1
    37    30    35    1
    38    33    35    1
    39    33    31    1
    40    33    34    1
    41    31    32    1
    42    13    22    1
    43    13    14    1
    44    21    22    2
    45    21    20    1
    46    22    16    1
    47    14    15    1
    48    20    19    1
    49    15    16    2
    50    16    17    1
    51    19    17    2
    52    17    18    1
