@<TRIPOS>MOLECULE
2x86_ADP_A_1.pdb
 27 29 0 0 0
SMALL
GASTEIGER

@<TRIPOS>ATOM
      1  PB        33.3880  -29.9910   78.3560 P.3   401  ADP401      0.5373
      2  O1B       32.0030  -29.3890   77.8170 O.3   401  ADP401     -0.1143
      3  O2B       33.0780  -31.0940   79.3930 O.3   401  ADP401     -0.1143
      4  O3B       34.1830  -30.6120   77.1830 O.2   401  ADP401     -0.2221
      5  PA        35.7220  -28.7170   78.7600 P.3   401  ADP401      0.2231
      6  O1A       36.3250  -30.0570   78.9010 O.2   401  ADP401     -0.5169
      7  O2A       36.4260  -27.7290   79.8070 O.3   401  ADP401     -0.4370
      8  O3A       34.1290  -28.7200   79.0320 O.3   401  ADP401     -0.2261
      9  O5'       36.0770  -28.1480   77.3040 O.3   401  ADP401     -0.3111
     10  C5'       35.5250  -26.8340   77.1710 C.3   401  ADP401      0.1813
     11  C4'       35.0000  -26.5950   75.7480 C.3   401  ADP401      0.1821
     12  O4'       36.1020  -26.5290   74.8180 O.3   401  ADP401     -0.3135
     13  C3'       34.0270  -27.7110   75.3020 C.3   401  ADP401      0.2184
     14  O3'       32.6450  -27.3550   75.4490 O.3   401  ADP401     -0.2174
     15  C2'       34.4080  -27.9520   73.8180 C.3   401  ADP401      0.2570
     16  O2'       33.5490  -27.2520   72.9200 O.3   401  ADP401     -0.2130
     17  C1'       35.8670  -27.4300   73.7120 C.3   401  ADP401      0.3186
     18  N9        36.8300  -28.5050   73.8450 N.pl3 401  ADP401     -0.1439
     19  C8        37.0330  -29.2340   74.9720 C.3   401  ADP401      0.3377
     20  N7        37.9570  -30.1080   74.7680 N.2   401  ADP401     -0.2095
     21  C5        38.4160  -29.9880   73.4930 C.2   401  ADP401      0.2526
     22  C6        39.3990  -30.6450   72.7230 C.2   401  ADP401      0.4393
     23  N6        40.1480  -31.6740   73.2700 N.pl3 401  ADP401      0.2180
     24  N1        39.5860  -30.2580   71.4610 N.2   401  ADP401      0.0021
     25  C2        38.8730  -29.2760   70.9290 C.3   401  ADP401      0.5254
     26  N3        37.9480  -28.6310   71.6180 N.2   401  ADP401     -0.0055
     27  C4        37.6890  -28.9490   72.8850 C.2   401  ADP401      0.3518
@<TRIPOS>BOND
     1    25    24    1
     2    25    26    1
     3    24    22    2
     4    26    27    2
     5    22    23    1
     6    22    21    1
     7    27    21    1
     8    27    18    1
     9    16    15    1
    10    21    20    2
    11    17    15    1
    12    17    18    1
    13    17    12    1
    14    15    13    1
    15    18    19    1
    16    20    19    1
    17    12    11    1
    18    13    14    1
    19    13    11    1
    20    11    10    1
    21    10     9    1
    22     4     1    2
    23     9     5    1
    24     2     1    1
    25     1     8    1
    26     1     3    1
    27     5     6    2
    28     5     8    1
    29     5     7    1
