@<TRIPOS>MOLECULE
2x8d_X8D_A_1.pdb
 15 17 0 0 0
SMALL
GASTEIGER

@<TRIPOS>ATOM
      1  C13        3.4390   -7.0760   17.0400 C.ar  1282  X8D1282     0.0002
      2  C14        4.7560   -6.6960   17.0540 C.ar  1282  X8D1282     0.0035
      3  C12        2.4910   -6.3010   17.6790 C.ar  1282  X8D1282     0.0031
      4  C15        5.1290   -5.5390   17.7070 C.ar  1282  X8D1282     0.0415
      5  C11        2.8500   -5.1390   18.3400 C.ar  1282  X8D1282     0.0345
      6  C10        4.1770   -4.7760   18.3490 C.ar  1282  X8D1282     0.1551
      7  C3         2.2300   -3.1990   19.6790 C.2   1282  X8D1282     0.0893
      8  C2         1.8550   -4.3050   19.0270 C.2   1282  X8D1282    -0.0110
      9  C4         3.6690   -2.8450   19.6220 C.2   1282  X8D1282     0.3700
     10  C7         5.8700   -2.8530   19.1750 C.1   1282  X8D1282     0.3527
     11  C1         0.4360   -4.7280   19.0070 C.3   1282  X8D1282     0.0314
     12  N5         4.1850   -1.7690   20.1450 N.2   1282  X8D1282     0.0952
     13  N6         5.5300   -1.7480   19.8820 N.2   1282  X8D1282     0.0795
     14  N9         4.5290   -3.5840   19.0180 N.am  1282  X8D1282    -0.0684
     15  O8         6.9340   -3.2650   18.7330 O.2   1282  X8D1282    -0.1767
@<TRIPOS>BOND
     1     1     2   ar
     2     1     3   ar
     3     2     4   ar
     4     3     5   ar
     5     4     6   ar
     6     5     6   ar
     7     5     8    1
     8     6    14    1
     9    15    10    2
    10    11     8    1
    11    14    10   am
    12    14     9    1
    13     8     7    2
    14    10    13    2
    15     9     7    1
    16     9    12    2
    17    13    12    1
