@<TRIPOS>MOLECULE
2x8e_X8E_A_1.pdb
 21 24 0 0 0
SMALL
GASTEIGER

@<TRIPOS>ATOM
      1  C13        1.5480   -5.1810   18.6410 C.ar  1271  X8E1271     0.0002
      2  C12        2.6590   -5.5920   17.9370 C.ar  1271  X8E1271     0.0031
      3  C17       -0.4970   -4.4670   20.5640 C.ar  1271  X8E1271     0.0207
      4  C21        0.3060   -2.2540   20.7060 C.ar  1271  X8E1271     0.0207
      5  C15        2.7850   -3.3640   19.5330 C.ar  1271  X8E1271     0.0415
      6  C18       -1.6260   -3.9600   21.3670 C.ar  1271  X8E1271     0.0989
      7  C20       -0.7300   -1.8750   21.4510 C.ar  1271  X8E1271     0.0989
      8  C14        1.5980   -4.0610   19.4480 C.ar  1271  X8E1271     0.0035
      9  C16        0.4490   -3.5910   20.2270 C.ar  1271  X8E1271     0.0032
     10  C11        3.8420   -4.8910   18.0220 C.ar  1271  X8E1271     0.0345
     11  C10        3.8890   -3.7770   18.8260 C.ar  1271  X8E1271     0.1551
     12  C3         6.1790   -4.6280   17.4340 C.2   1271  X8E1271     0.0893
     13  C2         5.0360   -5.3070   17.2970 C.2   1271  X8E1271    -0.0110
     14  C4         6.1520   -3.4370   18.2940 C.2   1271  X8E1271     0.3700
     15  C7         5.4970   -1.7890   19.6670 C.1   1271  X8E1271     0.3527
     16  C1         4.9640   -6.5220   16.4520 C.3   1271  X8E1271     0.0314
     17  N19       -1.6600   -2.6500   21.7850 N.ar  1271  X8E1271    -0.2423
     18  N5         7.1660   -2.6530   18.4970 N.2   1271  X8E1271     0.0952
     19  N6         6.8050   -1.6440   19.3400 N.2   1271  X8E1271     0.0795
     20  N9         5.0940   -3.0730   18.9100 N.am  1271  X8E1271    -0.0684
     21  O8         4.7270   -1.1320   20.3510 O.2   1271  X8E1271    -0.1767
@<TRIPOS>BOND
     1    16    13    1
     2    13    12    2
     3    13    10    1
     4    12    14    1
     5     2    10   ar
     6     2     1   ar
     7    10    11   ar
     8    14    18    2
     9    14    20    1
    10    18    19    1
    11     1     8   ar
    12    11    20    1
    13    11     5   ar
    14    20    15   am
    15    19    15    2
    16     8     5   ar
    17     8     9    1
    18    15    21    2
    19     9     3   ar
    20     9     4   ar
    21     3     6   ar
    22     4     7   ar
    23     6    17   ar
    24     7    17   ar
