@<TRIPOS>MOLECULE
2x8h_GSH_A_1.pdb
 20 19 0 0 0
SMALL
GASTEIGER

@<TRIPOS>ATOM
      1  N1        17.5370   30.2250   40.5680 N.3   1595  GSH1595    -0.1208
      2  CA1       18.7230   29.5210   40.1170 C.3   1595  GSH1595     0.1948
      3  C1        18.3970   28.0890   39.8010 C.2   1595  GSH1595     0.3819
      4  O11       19.1640   27.4090   39.0840 O.co2 1595  GSH1595    -0.2441
      5  O12       17.3570   27.5550   40.2520 O.co2 1595  GSH1595    -0.2441
      6  CB1       19.7710   29.5620   41.2210 C.3   1595  GSH1595     0.0402
      7  CG1       21.1000   30.0820   40.6880 C.3   1595  GSH1595     0.0889
      8  CD1       22.0980   30.2220   41.8140 C.2   1595  GSH1595     0.2418
      9  OE1       21.7130   30.7640   43.0600 O.2   1595  GSH1595    -0.2733
     10  N2        23.3360   29.8100   41.5550 N.am  1595  GSH1595    -0.1968
     11  CA2       24.5010   30.5870   41.9380 C.3   1595  GSH1595     0.1843
     12  C2        25.0150   31.4130   40.8000 C.2   1595  GSH1595     0.2627
     13  O2        24.9340   30.9240   39.4800 O.2   1595  GSH1595    -0.2714
     14  CB2       25.6120   29.6640   42.4200 C.3   1595  GSH1595     0.0997
     15  SG2       25.2220   28.9180   44.0210 S.3   1595  GSH1595    -0.0797
     16  N3        25.5440   32.5940   41.1170 N.am  1595  GSH1595    -0.1917
     17  CA3       26.2640   33.4160   40.1600 C.3   1595  GSH1595     0.2285
     18  C3        27.5900   32.8150   39.7460 C.2   1595  GSH1595     0.3865
     19  O31       28.3350   33.4340   38.9540 O.co2 1595  GSH1595    -0.2437
     20  O32       27.9680   31.7030   40.1820 O.co2 1595  GSH1595    -0.2437
@<TRIPOS>BOND
     1    19    18   ar
     2     4     3   ar
     3    13    12    2
     4    18    17    1
     5    18    20   ar
     6     3     2    1
     7     3     5   ar
     8     2     1    1
     9     2     6    1
    10    17    16    1
    11     7     6    1
    12     7     8    1
    13    12    16   am
    14    12    11    1
    15    10     8   am
    16    10    11    1
    17     8     9    2
    18    11    14    1
    19    14    15    1
