@<TRIPOS>MOLECULE
2x8i_X8I_A_1.pdb
 22 25 0 0 0
SMALL
GASTEIGER

@<TRIPOS>ATOM
      1  C18        5.7500   -7.8680   38.1250 C.ar  1270  X8I1270     0.0033
      2  C17        5.4030   -6.9260   39.0690 C.ar  1270  X8I1270     0.0002
      3  C14        5.2900   -4.5210   40.7990 C.ar  1270  X8I1270     0.0035
      4  C15        4.9810   -3.5660   41.7390 C.ar  1270  X8I1270     0.0415
      5  C19        5.5700   -7.6100   36.7850 C.ar  1270  X8I1270     0.0420
      6  C12        3.3710   -3.9220   39.5430 C.ar  1270  X8I1270     0.0031
      7  C21        4.6890   -5.4510   37.3540 C.ar  1270  X8I1270     0.0420
      8  C13        4.4950   -4.7130   39.6910 C.ar  1270  X8I1270     0.0003
      9  C16        4.8630   -5.7080   38.7000 C.ar  1270  X8I1270     0.0032
     10  C11        3.0470   -2.9550   40.4770 C.ar  1270  X8I1270     0.0345
     11  C10        3.8610   -2.7870   41.5730 C.ar  1270  X8I1270     0.1551
     12  C20        5.0390   -6.3970   36.4140 C.ar  1270  X8I1270     0.1957
     13  C3         1.5940   -1.1570   41.2300 C.2   1270  X8I1270     0.0893
     14  C2         1.8680   -2.1040   40.3240 C.2   1270  X8I1270    -0.0110
     15  C4         2.5210   -1.0130   42.3640 C.2   1270  X8I1270     0.3700
     16  C7         4.2330   -1.3090   43.7860 C.1   1270  X8I1270     0.3527
     17  C1         0.9850   -2.3180   39.1440 C.3   1270  X8I1270     0.0314
     18  N5         2.4060   -0.1200   43.3100 N.2   1270  X8I1270     0.0952
     19  N6         3.4450   -0.2750   44.1910 N.2   1270  X8I1270     0.0795
     20  N9         3.5310   -1.7880   42.5020 N.am  1270  X8I1270    -0.0684
     21  O8         5.2470   -1.8320   44.2280 O.2   1270  X8I1270    -0.1767
     22  O22        4.8530   -6.1260   35.0750 O.3   1270  X8I1270    -0.2866
@<TRIPOS>BOND
     1    22    12    1
     2    12     5   ar
     3    12     7   ar
     4     5     1   ar
     5     7     9   ar
     6     1     2   ar
     7     9     2   ar
     8     9     8    1
     9    17    14    1
    10     6     8   ar
    11     6    10   ar
    12     8     3   ar
    13    14    10    1
    14    14    13    2
    15    10    11   ar
    16     3     4   ar
    17    13    15    1
    18    11     4   ar
    19    11    20    1
    20    15    20    1
    21    15    18    2
    22    20    16   am
    23    18    19    1
    24    16    19    2
    25    16    21    2
