@<TRIPOS>MOLECULE
2x8m_X8M_A_1.pdb
 24 26 0 0 0
SMALL
GASTEIGER

@<TRIPOS>ATOM
      1  CAA       -7.9220   17.6570   -9.4790 C.3   1314  X8M1314    -0.0223
      2  CAS       -7.9550   17.8260   -7.9590 C.3   1314  X8M1314    -0.0543
      3  CAB       -7.9800   16.4650   -7.2590 C.3   1314  X8M1314    -0.0223
      4  NAX       -9.1420   18.6050   -7.5730 N.4   1314  X8M1314     0.3926
      5  CAC      -10.3710   17.8560   -7.8790 C.3   1314  X8M1314    -0.0955
      6  CAU       -9.0750   18.9620   -6.1490 C.3   1314  X8M1314    -0.0506
      7  CAN      -10.3900   19.5940   -5.6840 C.3   1314  X8M1314     0.0233
      8  CAL       -7.9240   19.9680   -6.1160 C.3   1314  X8M1314    -0.0222
      9  CAM       -7.9940   20.6410   -7.4900 C.3   1314  X8M1314    -0.0222
     10  CAV       -9.1370   19.9270   -8.2170 C.3   1314  X8M1314    -0.0506
     11  CAO      -10.4700   20.6270   -7.9360 C.3   1314  X8M1314     0.0233
     12  CAT      -10.6580   20.8970   -6.4410 C.3   1314  X8M1314     0.1648
     13  OAP       -9.7130   21.8980   -6.0310 O.3   1314  X8M1314    -0.4522
     14  CAQ      -10.3000   23.1150   -5.8680 C.2   1314  X8M1314     0.3231
     15  OAD       -9.6000   24.0760   -5.5520 O.2   1314  X8M1314    -0.2497
     16  CAW      -11.8060   23.2950   -6.0710 C.3   1314  X8M1314     0.1541
     17  CAK      -12.3280   24.3370   -5.0800 C.3   1314  X8M1314     0.1975
     18  OAE      -13.7320   24.5250   -5.2780 O.3   1314  X8M1314    -0.2194
     19  CAR      -12.0970   23.7570   -7.5010 C.ar  1314  X8M1314    -0.0094
     20  CAI      -12.8380   22.9460   -8.3540 C.ar  1314  X8M1314    -0.0037
     21  CAG      -13.1170   23.3670   -9.6490 C.ar  1314  X8M1314    -0.0003
     22  CAF      -12.6550   24.6010  -10.0930 C.ar  1314  X8M1314    -0.0000
     23  CAH      -11.9140   25.4130   -9.2400 C.ar  1314  X8M1314    -0.0003
     24  CAJ      -11.6350   24.9910   -7.9450 C.ar  1314  X8M1314    -0.0037
@<TRIPOS>BOND
     1    22    21   ar
     2    22    23   ar
     3    21    20   ar
     4     1     2    1
     5    23    24   ar
     6    20    19   ar
     7    10    11    1
     8    10     4    1
     9    10     9    1
    10     2     4    1
    11     2     3    1
    12    24    19   ar
    13    11    12    1
    14     5     4    1
    15     4     6    1
    16    19    16    1
    17     9     8    1
    18    12    13    1
    19    12     7    1
    20     6     8    1
    21     6     7    1
    22    16    14    1
    23    16    17    1
    24    13    14    1
    25    14    15    2
    26    18    17    1
