@<TRIPOS>MOLECULE
2x8o_OIN_A_1.pdb
 21 23 0 0 0
SMALL
GASTEIGER

@<TRIPOS>ATOM
      1  C10      -48.9550   16.3070  -31.3060 C.3   1314  OIN1314     0.0896
      2  N        -50.3560   16.6570  -31.5810 N.3   1314  OIN1314    -0.2738
      3  C11      -50.5930   16.6500  -33.0310 C.3   1314  OIN1314     0.0611
      4  C17      -50.5040   15.1680  -33.3990 C.3   1314  OIN1314     0.0175
      5  C16      -50.9700   14.4510  -32.1280 C.3   1314  OIN1314     0.0175
      6  C15      -51.2450   15.5770  -31.1270 C.3   1314  OIN1314     0.0611
      7  C14      -52.6930   16.0590  -31.2440 C.3   1314  OIN1314     0.0596
      8  C13      -53.0710   16.3510  -32.6990 C.3   1314  OIN1314     0.1715
      9  C12      -51.9810   17.2230  -33.3280 C.3   1314  OIN1314     0.0596
     10  O2       -53.1860   15.1210  -33.4310 O.3   1314  OIN1314    -0.4519
     11  C7       -54.3880   14.5430  -33.1630 C.2   1314  OIN1314     0.3231
     12  O3       -55.1650   15.0880  -32.3810 O.2   1314  OIN1314    -0.2497
     13  C9       -54.7700   13.2250  -33.8410 C.3   1314  OIN1314     0.1541
     14  C8       -54.8180   13.4260  -35.3570 C.3   1314  OIN1314     0.1975
     15  OH       -55.2050   12.2040  -35.9910 O.3   1314  OIN1314    -0.2194
     16  C6       -56.1450   12.7720  -33.3440 C.ar  1314  OIN1314    -0.0094
     17  C5       -57.2780   13.5220  -33.6430 C.ar  1314  OIN1314    -0.0037
     18  C4       -58.5260   13.1090  -33.1910 C.ar  1314  OIN1314    -0.0003
     19  C3       -58.6430   11.9440  -32.4390 C.ar  1314  OIN1314    -0.0000
     20  C2       -57.5120   11.1940  -32.1400 C.ar  1314  OIN1314    -0.0003
     21  C1       -56.2630   11.6080  -32.5930 C.ar  1314  OIN1314    -0.0037
@<TRIPOS>BOND
     1    15    14    1
     2    14    13    1
     3    13    16    1
     4    13    11    1
     5    17    16   ar
     6    17    18   ar
     7    10    11    1
     8    10     8    1
     9     4     3    1
    10     4     5    1
    11    16    21   ar
    12     9     3    1
    13     9     8    1
    14    18    19   ar
    15    11    12    2
    16     3     2    1
    17     8     7    1
    18    21    20   ar
    19    19    20   ar
    20     5     6    1
    21     2     1    1
    22     2     6    1
    23     7     6    1
