@<TRIPOS>MOLECULE
2x8p_OIN_A_1.pdb
 21 23 0 0 0
SMALL
GASTEIGER

@<TRIPOS>ATOM
      1  C10       35.3270   34.1360   10.2330 C.3   1313  OIN1313     0.0896
      2  N         35.8560   32.7790   10.4350 N.3   1313  OIN1313    -0.2738
      3  C11       35.0330   32.0620   11.4190 C.3   1313  OIN1313     0.0611
      4  C17       33.7080   31.8570   10.6830 C.3   1313  OIN1313     0.0175
      5  C16       34.1220   31.7690    9.2110 C.3   1313  OIN1313     0.0175
      6  C15       35.6390   31.9750    9.2230 C.3   1313  OIN1313     0.0611
      7  C14       36.3680   30.6370    9.3880 C.3   1313  OIN1313     0.0596
      8  C13       35.8030   29.8210   10.5540 C.3   1313  OIN1313     0.1715
      9  C12       35.6960   30.7300   11.7810 C.3   1313  OIN1313     0.0596
     10  O2        34.5000   29.3210   10.2170 O.3   1313  OIN1313    -0.4519
     11  C7        34.5810   28.2430    9.3890 C.2   1313  OIN1313     0.3231
     12  O3        35.6790   27.8190    9.0330 O.2   1313  OIN1313    -0.2497
     13  C9        33.2910   27.5570    8.9310 C.3   1313  OIN1313     0.1541
     14  C8        33.2300   26.1330    9.4860 C.3   1313  OIN1313     0.1975
     15  OH        31.9700   25.5420    9.1580 O.3   1313  OIN1313    -0.2194
     16  C6        33.2040   27.5200    7.4030 C.ar  1313  OIN1313    -0.0094
     17  C5        34.3570   27.4450    6.6280 C.ar  1313  OIN1313    -0.0037
     18  C4        34.2630   27.4110    5.2410 C.ar  1313  OIN1313    -0.0003
     19  C3        33.0170   27.4510    4.6250 C.ar  1313  OIN1313    -0.0000
     20  C2        31.8640   27.5260    5.3980 C.ar  1313  OIN1313    -0.0003
     21  C1        31.9590   27.5600    6.7850 C.ar  1313  OIN1313    -0.0037
@<TRIPOS>BOND
     1    19    18   ar
     2    19    20   ar
     3    18    17   ar
     4    20    21   ar
     5    17    16   ar
     6    21    16   ar
     7    16    13    1
     8    13    11    1
     9    13    14    1
    10    12    11    2
    11    15    14    1
    12     5     6    1
    13     5     4    1
    14     6     7    1
    15     6     2    1
    16     7     8    1
    17    11    10    1
    18    10     8    1
    19     1     2    1
    20     2     3    1
    21     8     9    1
    22     4     3    1
    23     3     9    1
