@<TRIPOS>MOLECULE
2x8s_AHR_A_1.pdb
 10 10 0 0 0
SMALL
GASTEIGER

@<TRIPOS>ATOM
      1  O5'        5.6070    5.8410   35.3630 O.3   1471  AHR1471    -0.2176
      2  C5'        5.9630    7.0330   34.8670 C.3   1471  AHR1471     0.2142
      3  C4'        5.9660    7.9750   36.0650 C.3   1471  AHR1471     0.1837
      4  O4'        4.6210    8.2890   36.4290 O.3   1471  AHR1471    -0.3236
      5  C3'        6.6710    9.2930   35.7810 C.3   1471  AHR1471     0.2169
      6  O3'        7.8800    9.3850   36.5420 O.3   1471  AHR1471    -0.2175
      7  C2'        5.7130   10.3810   36.2230 C.3   1471  AHR1471     0.2433
      8  O2'        5.3280   11.1720   35.0960 O.3   1471  AHR1471    -0.2148
      9  C1'        4.5000    9.6620   36.7910 C.3   1471  AHR1471     0.3024
     10  O1'        4.5100    9.7480   38.2210 O.3   1471  AHR1471    -0.1869
@<TRIPOS>BOND
     1     2     1    1
     2     2     3    1
     3     8     7    1
     4     5     3    1
     5     5     7    1
     6     5     6    1
     7     3     4    1
     8     7     9    1
     9     4     9    1
    10     9    10    1
