@<TRIPOS>MOLECULE
2x8z_X8Z_A_1.pdb
 14 14 0 0 0
SMALL
GASTEIGER

@<TRIPOS>ATOM
      1  O1        29.5500    2.8090  -42.5400 O.2   1615  X8Z1615    -0.2748
      2  C4        29.0130    3.7410  -43.2180 C.2   1615  X8Z1615     0.2264
      3  C2        27.4920    3.7420  -43.3960 C.3   1615  X8Z1615     0.0883
      4  C1        27.0060    2.2880  -43.3910 C.3   1615  X8Z1615     0.0777
      5  S         27.1070    1.4620  -44.9800 S.3   1615  X8Z1615    -0.0816
      6  C3        26.8970    4.5800  -42.2530 C.3   1615  X8Z1615     0.0105
      7  N         29.7960    4.7060  -43.7490 N.am  1615  X8Z1615    -0.2713
      8  C8        31.2920    4.7310  -43.5470 C.3   1615  X8Z1615     0.1790
      9  C9        31.6420    4.9440  -42.0560 C.2   1615  X8Z1615     0.3825
     10  O3        30.8550    5.4310  -41.2690 O.co2 1615  X8Z1615    -0.2438
     11  O2        32.8170    4.5760  -41.6830 O.co2 1615  X8Z1615    -0.2438
     12  C5        29.3770    5.8960  -44.5790 C.3   1615  X8Z1615     0.0939
     13  C6        30.6130    6.6710  -44.8540 C.3   1615  X8Z1615     0.0238
     14  C7        31.7960    5.8760  -44.3820 C.3   1615  X8Z1615     0.0332
@<TRIPOS>BOND
     1     5     4    1
     2    13    12    1
     3    13    14    1
     4    12     7    1
     5    14     8    1
     6     7     8    1
     7     7     2   am
     8     8     9    1
     9     3     4    1
    10     3     2    1
    11     3     6    1
    12     2     1    2
    13     9    11   ar
    14     9    10   ar
