@<TRIPOS>MOLECULE
2x90_EAL_A_1.pdb
 25 26 0 0 0
SMALL
GASTEIGER

@<TRIPOS>ATOM
      1  O1       -12.7020   27.2560  -24.7690 O.2   1617  EAL1617    -0.2733
      2  O2       -11.9060   23.0110  -22.0440 O.co2 1617  EAL1617    -0.2437
      3  O3       -13.0360   24.6270  -21.1510 O.co2 1617  EAL1617    -0.2437
      4  O4       -12.7210   30.7750  -25.0760 O.co2 1617  EAL1617    -0.2434
      5  O5       -10.8340   29.7450  -25.5840 O.co2 1617  EAL1617    -0.2434
      6  N1       -12.1670   24.6300  -24.2690 N.3   1617  EAL1617    -0.1964
      7  N2       -11.1130   28.0500  -23.3110 N.am  1617  EAL1617    -0.2627
      8  C1       -11.6500   27.0360  -24.0670 C.2   1617  EAL1617     0.2423
      9  C2       -11.0100   25.5940  -24.0930 C.3   1617  EAL1617     0.1499
     10  C3       -12.6860   24.0070  -22.1460 C.2   1617  EAL1617     0.3844
     11  C4       -13.1530   24.4580  -23.5360 C.3   1617  EAL1617     0.1984
     12  C5       -11.7550   29.4320  -23.3370 C.3   1617  EAL1617     0.2018
     13  C6       -10.8410   30.2150  -22.3610 C.2   1617  EAL1617     0.0019
     14  C7        -9.8630   29.3820  -21.8780 C.2   1617  EAL1617    -0.0070
     15  C8        -9.9270   28.0170  -22.4050 C.3   1617  EAL1617     0.1204
     16  C9       -11.7170   30.0180  -24.8170 C.2   1617  EAL1617     0.3867
     17  C10       -9.9680   25.5290  -25.2240 C.3   1617  EAL1617     0.0287
     18  C14      -14.2760   23.4940  -23.7130 C.2   1617  EAL1617     0.0022
     19  C15      -15.7260   23.6640  -23.2950 C.2   1617  EAL1617    -0.0026
     20  C16      -16.7110   22.5740  -23.5710 C.ar  1617  EAL1617    -0.0003
     21  C17      -16.7670   21.9110  -24.8910 C.ar  1617  EAL1617    -0.0000
     22  C18      -17.7420   20.8600  -25.1420 C.ar  1617  EAL1617    -0.0000
     23  C19      -18.6780   20.4530  -24.0800 C.ar  1617  EAL1617    -0.0000
     24  C20      -18.6280   21.1090  -22.7620 C.ar  1617  EAL1617    -0.0000
     25  C21      -17.6470   22.1680  -22.5070 C.ar  1617  EAL1617    -0.0000
@<TRIPOS>BOND
     1     5    16   ar
     2    17     9    1
     3    22    21   ar
     4    22    23   ar
     5     4    16   ar
     6    21    20   ar
     7    16    12    1
     8     1     8    2
     9     6     9    1
    10     6    11    1
    11     9     8    1
    12    23    24   ar
    13     8     7   am
    14    18    11    1
    15    18    19    2
    16    20    19    1
    17    20    25   ar
    18    11    10    1
    19    12     7    1
    20    12    13    1
    21     7    15    1
    22    24    25   ar
    23    15    14    1
    24    13    14    2
    25    10     2   ar
    26    10     3   ar
