@<TRIPOS>MOLECULE
2x91_LPR_A_1.pdb
 29 30 0 0 0
SMALL
GASTEIGER

@<TRIPOS>ATOM
      1  O1        29.7170   -3.0590   43.2660 O.2   1615  LPR1615    -0.2730
      2  O2        27.6470   -1.4010   46.8380 O.co2 1615  LPR1615    -0.2441
      3  O3        25.7080   -1.5690   45.8300 O.co2 1615  LPR1615    -0.2441
      4  O4        30.9370   -5.8120   42.5300 O.co2 1615  LPR1615    -0.2438
      5  O5        32.6950   -4.6030   43.0570 O.co2 1615  LPR1615    -0.2438
      6  N1        27.2260   -2.2050   43.5020 N.3   1615  LPR1615    -0.1961
      7  N2        29.5760   -4.7520   44.7620 N.am  1615  LPR1615    -0.2699
      8  N3        27.5510   -7.4620   38.8350 N.3   1615  LPR1615    -0.1310
      9  C1        28.9880   -3.8170   43.9850 C.2   1615  LPR1615     0.2461
     10  C2        27.4320   -3.6340   43.9290 C.3   1615  LPR1615     0.1712
     11  C3        26.9530   -1.3680   45.8110 C.2   1615  LPR1615     0.3803
     12  C4        27.6030   -1.0720   44.4550 C.3   1615  LPR1615     0.1767
     13  C5        31.0830   -4.8930   44.7430 C.3   1615  LPR1615     0.1791
     14  C6        31.2840   -6.1180   45.6500 C.3   1615  LPR1615     0.0332
     15  C7        30.1550   -6.2620   46.4070 C.3   1615  LPR1615     0.0238
     16  C8        28.9680   -5.7550   45.6810 C.3   1615  LPR1615     0.0940
     17  C9        31.5740   -5.1700   43.3080 C.2   1615  LPR1615     0.3825
     18  C10       26.9060   -4.6770   42.9770 C.2   1615  LPR1615    -0.0045
     19  C11       27.5120   -4.7990   41.6610 C.2   1615  LPR1615    -0.0273
     20  C12       26.9470   -5.9390   40.6730 C.3   1615  LPR1615     0.0462
     21  C13       28.0000   -6.3890   39.7950 C.3   1615  LPR1615     0.1140
     22  C14       27.2030    0.3170   43.8640 C.3   1615  LPR1615     0.0336
     23  C15       27.8870    1.4460   44.6210 C.3   1615  LPR1615     0.0284
     24  C16       27.5990    2.8670   44.2280 C.ar  1615  LPR1615    -0.0221
     25  C17       28.1750    3.9280   44.9920 C.ar  1615  LPR1615    -0.0043
     26  C18       27.9260    5.2860   44.6480 C.ar  1615  LPR1615    -0.0003
     27  C19       27.0840    5.5930   43.5280 C.ar  1615  LPR1615    -0.0000
     28  C20       26.4990    4.5380   42.7600 C.ar  1615  LPR1615    -0.0003
     29  C21       26.7580    3.1800   43.1080 C.ar  1615  LPR1615    -0.0043
@<TRIPOS>BOND
     1     8    21    1
     2    21    20    1
     3    20    19    1
     4    19    18    2
     5     4    17   ar
     6    28    29   ar
     7    28    27   ar
     8    18    10    1
     9     5    17   ar
    10    29    24   ar
    11     1     9    2
    12    17    13    1
    13     6    10    1
    14     6    12    1
    15    27    26   ar
    16    22    12    1
    17    22    23    1
    18    10     9    1
    19     9     7   am
    20    24    23    1
    21    24    25   ar
    22    12    11    1
    23    26    25   ar
    24    13     7    1
    25    13    14    1
    26     7    16    1
    27    14    15    1
    28    16    15    1
    29    11     3   ar
    30    11     2   ar
