@<TRIPOS>MOLECULE
2x92_X92_A_1.pdb
 28 30 0 0 0
SMALL
GASTEIGER

@<TRIPOS>ATOM
      1  CAK       26.8910    3.1430  -24.9030 C.ar  1623  X921623    -0.0043
      2  CAI       26.8850    4.4390  -25.4150 C.ar  1623  X921623    -0.0003
      3  CAG       27.4890    5.4710  -24.6910 C.ar  1623  X921623    -0.0000
      4  CAH       28.0970    5.2090  -23.4570 C.ar  1623  X921623    -0.0003
      5  CAJ       28.1050    3.9090  -22.9500 C.ar  1623  X921623    -0.0043
      6  CAV       27.5050    2.8720  -23.6750 C.ar  1623  X921623    -0.0221
      7  CAM       27.5070    1.4580  -23.0730 C.3   1623  X921623     0.0284
      8  CAP       27.9560    0.3400  -24.0140 C.3   1623  X921623     0.0336
      9  CAX       27.0560   -0.9090  -23.9010 C.3   1623  X921623     0.1764
     10  CAS       26.9160   -1.4510  -22.4580 C.2   1623  X921623     0.3803
     11  OAE       27.9010   -1.4370  -21.6960 O.co2 1623  X921623    -0.2441
     12  OAB       25.7860   -1.8510  -22.1410 O.co2 1623  X921623    -0.2441
     13  N         27.5070   -1.9330  -24.8790 N.3   1623  X921623    -0.2005
     14  CA        27.6630   -3.3330  -24.4480 C.3   1623  X921623     0.1495
     15  CB        26.9880   -4.2500  -25.4700 C.3   1623  X921623     0.0287
     16  C         29.1660   -3.6430  -24.4120 C.2   1623  X921623     0.2418
     17  O         29.9100   -3.0010  -25.1510 O.2   1623  X921623    -0.2734
     18  NBB       29.7110   -4.6020  -23.6420 N.am  1623  X921623    -0.2718
     19  CBA       28.9920   -5.4450  -22.6550 C.3   1623  X921623     0.0758
     20  CAO       28.2910   -6.6420  -23.3340 C.3   1623  X921623     0.0198
     21  CAL       28.4470   -7.8200  -22.3670 C.3   1623  X921623     0.0018
     22  CAN       29.6310   -7.4740  -21.4420 C.3   1623  X921623     0.0018
     23  CAY       30.1160   -6.0620  -21.8110 C.3   1623  X921623     0.0205
     24  CAQ       31.3150   -6.1420  -22.7650 C.3   1623  X921623     0.0331
     25  CAZ       31.1770   -4.8600  -23.5950 C.3   1623  X921623     0.1790
     26  CAT       31.7840   -5.0320  -25.0130 C.2   1623  X921623     0.3825
     27  OAF       32.9040   -4.5220  -25.2260 O.co2 1623  X921623    -0.2438
     28  OAC       31.1020   -5.6250  -25.8720 O.co2 1623  X921623    -0.2438
@<TRIPOS>BOND
     1    28    26   ar
     2    15    14    1
     3     2     1   ar
     4     2     3   ar
     5    27    26   ar
     6    17    16    2
     7    26    25    1
     8     1     6   ar
     9    13    14    1
    10    13     9    1
    11     3     4   ar
    12    14    16    1
    13    16    18   am
    14     8     9    1
    15     8     7    1
    16     9    10    1
    17     6     7    1
    18     6     5   ar
    19    18    25    1
    20    18    19    1
    21    25    24    1
    22     4     5   ar
    23    20    19    1
    24    20    21    1
    25    24    23    1
    26    19    23    1
    27    10    12   ar
    28    10    11   ar
    29    21    22    1
    30    23    22    1
