@<TRIPOS>MOLECULE
2x93_X93_A_1.pdb
 29 31 0 0 0
SMALL
GASTEIGER

@<TRIPOS>ATOM
      1  CAJ       28.1580    3.8080  -23.0850 C.ar  1623  X931623    -0.0043
      2  CAH       27.8870    5.1350  -23.4170 C.ar  1623  X931623    -0.0003
      3  CAG       27.1580    5.4250  -24.5740 C.ar  1623  X931623    -0.0000
      4  CAI       26.6970    4.3920  -25.3940 C.ar  1623  X931623    -0.0003
      5  CAK       26.9710    3.0670  -25.0580 C.ar  1623  X931623    -0.0043
      6  CAW       27.6950    2.7710  -23.9020 C.ar  1623  X931623    -0.0221
      7  CAN       28.0140    1.3260  -23.4970 C.3   1623  X931623     0.0284
      8  CAQ       27.1760    0.2660  -24.2180 C.3   1623  X931623     0.0336
      9  CAY       27.6100   -1.1380  -23.7700 C.3   1623  X931623     0.1764
     10  CAT       26.9760   -1.4710  -22.4130 C.2   1623  X931623     0.3803
     11  OAE       27.7240   -1.4580  -21.4050 O.co2 1623  X931623    -0.2441
     12  OAB       25.7600   -1.7370  -22.4090 O.co2 1623  X931623    -0.2441
     13  N         27.2130   -2.1350  -24.7870 N.3   1623  X931623    -0.2005
     14  CA        27.6050   -3.5230  -24.4560 C.3   1623  X931623     0.1495
     15  CB        27.0170   -4.4600  -25.5270 C.3   1623  X931623     0.0287
     16  C         29.1390   -3.6310  -24.4420 C.2   1623  X931623     0.2418
     17  O         29.7720   -2.8530  -25.1560 O.2   1623  X931623    -0.2734
     18  NBC       29.8550   -4.5230  -23.7240 N.am  1623  X931623    -0.2718
     19  CBB       29.4260   -5.5370  -22.7200 C.3   1623  X931623     0.0758
     20  CAP       28.1600   -6.3570  -23.0130 C.3   1623  X931623     0.0198
     21  CAM       27.9620   -7.4240  -21.9050 C.3   1623  X931623     0.0017
     22  CAL       29.2320   -8.2710  -21.6090 C.3   1623  X931623     0.0001
     23  CAO       30.5100   -7.4140  -21.5030 C.3   1623  X931623     0.0017
     24  CAZ       30.5970   -6.5130  -22.7370 C.3   1623  X931623     0.0205
     25  CAR       31.7910   -5.5720  -22.7380 C.3   1623  X931623     0.0331
     26  CBA       31.3420   -4.5110  -23.7580 C.3   1623  X931623     0.1790
     27  CAU       31.8720   -4.8510  -25.1690 C.2   1623  X931623     0.3825
     28  OAF       32.9850   -4.3910  -25.4650 O.co2 1623  X931623    -0.2438
     29  OAC       31.1520   -5.5430  -25.9240 O.co2 1623  X931623    -0.2438
@<TRIPOS>BOND
     1    29    27   ar
     2    15    14    1
     3    28    27   ar
     4     4     5   ar
     5     4     3   ar
     6    27    26    1
     7    17    16    2
     8     5     6   ar
     9    13    14    1
    10    13     9    1
    11     3     2   ar
    12    14    16    1
    13    16    18   am
    14     8     9    1
    15     8     7    1
    16     6     7    1
    17     6     1   ar
    18     9    10    1
    19    26    18    1
    20    26    25    1
    21    18    19    1
    22     2     1   ar
    23    20    19    1
    24    20    21    1
    25    25    24    1
    26    24    19    1
    27    24    23    1
    28    10    12   ar
    29    10    11   ar
    30    21    22    1
    31    22    23    1
