@<TRIPOS>MOLECULE
2x94_X94_A_1.pdb
 24 25 0 0 0
SMALL
GASTEIGER

@<TRIPOS>ATOM
      1  CAA       27.7900   -2.8340  -42.8830 C.3   1624  X941624     0.0001
      2  CAH       28.2460   -1.4010  -43.1350 C.3   1624  X941624     0.0020
      3  CAK       27.1030   -0.5730  -43.7220 C.3   1624  X941624     0.0289
      4  CAU       27.5670    0.8570  -44.0290 C.3   1624  X941624     0.1761
      5  CAP       26.9480    1.3270  -45.3490 C.2   1624  X941624     0.3803
      6  OAF       25.7190    1.5500  -45.3740 O.co2 1624  X941624    -0.2441
      7  OAC       27.7290    1.4680  -46.3110 O.co2 1624  X941624    -0.2441
      8  N         27.1950    1.7490  -42.9130 N.3   1624  X941624    -0.2005
      9  CA        27.4420    3.1910  -43.1200 C.3   1624  X941624     0.1495
     10  CB        26.8540    3.9380  -41.9130 C.3   1624  X941624     0.0287
     11  C         28.9540    3.4890  -43.1960 C.2   1624  X941624     0.2418
     12  O         29.7270    2.7500  -42.5870 O.2   1624  X941624    -0.2734
     13  NAX       29.4850    4.5410  -43.8550 N.am  1624  X941624    -0.2718
     14  CAW       28.7720    5.5530  -44.6890 C.3   1624  X941624     0.0758
     15  CAM       28.0880    6.6370  -43.8030 C.3   1624  X941624     0.0198
     16  CAJ       27.8850    8.0210  -44.4570 C.3   1624  X941624     0.0017
     17  CAI       28.3140    8.0780  -45.9250 C.3   1624  X941624     0.0001
     18  CAL       29.7070    7.4920  -46.1770 C.3   1624  X941624     0.0017
     19  CAT       29.9080    6.0740  -45.6020 C.3   1624  X941624     0.0205
     20  CAN       31.1340    6.0710  -44.6770 C.3   1624  X941624     0.0331
     21  CAV       30.9550    4.7700  -43.8930 C.3   1624  X941624     0.1790
     22  CAQ       31.5360    4.9220  -42.4670 C.2   1624  X941624     0.3825
     23  OAD       30.7690    5.3250  -41.5630 O.co2 1624  X941624    -0.2438
     24  OAG       32.7330    4.6180  -42.3100 O.co2 1624  X941624    -0.2438
@<TRIPOS>BOND
     1     7     5   ar
     2    18    17    1
     3    18    19    1
     4    17    16    1
     5    19    14    1
     6    19    20    1
     7     6     5   ar
     8     5     4    1
     9    14    13    1
    10    14    15    1
    11    20    21    1
    12    16    15    1
    13     4     3    1
    14     4     8    1
    15    21    13    1
    16    21    22    1
    17    13    11   am
    18     3     2    1
    19    11     9    1
    20    11    12    2
    21     2     1    1
    22     9     8    1
    23     9    10    1
    24    22    24   ar
    25    22    23   ar
