@<TRIPOS>MOLECULE
2x95_X95_A_1.pdb
 36 38 0 0 0
SMALL
GASTEIGER

@<TRIPOS>ATOM
      1  C         26.7300   -1.3200  -23.1370 C.2   1623  X951623     0.3803
      2  N         27.2250   -1.9440  -25.4550 N.3   1623  X951623    -0.2004
      3  OXT       25.4960   -1.4890  -23.2390 O.co2 1623  X951623    -0.2441
      4  CA        27.4940   -0.9560  -24.4020 C.3   1623  X951623     0.1764
      5  CB        27.0770    0.4350  -24.8920 C.3   1623  X951623     0.0336
      6  NAA       27.4410   -7.9580  -29.3290 N.3   1623  X951623    -0.1314
      7  OAC       31.1390   -4.9550  -27.0220 O.co2 1623  X951623    -0.2437
      8  OAD       29.8300   -2.7260  -25.5920 O.2   1623  X951623    -0.2718
      9  OAF       32.8260   -4.6080  -25.6230 O.co2 1623  X951623    -0.2437
     10  CAG       26.9290    5.5780  -25.2900 C.ar  1623  X951623    -0.0000
     11  CAH       27.7820    5.3050  -24.2180 C.ar  1623  X951623    -0.0003
     12  CAI       26.4150    4.5300  -26.0540 C.ar  1623  X951623    -0.0003
     13  CAJ       27.4900   -9.5700  -23.5590 C.2   1623  X951623    -0.0199
     14  CAK       28.1970   -9.0640  -24.6480 C.3   1623  X951623     0.0521
     15  CAL       28.1210    3.9870  -23.9140 C.ar  1623  X951623    -0.0043
     16  CAM       26.7610    3.2110  -25.7530 C.ar  1623  X951623    -0.0043
     17  CAN       27.7730   -9.1020  -22.2760 C.2   1623  X951623     0.0148
     18  CAO       29.1810   -8.0950  -24.4520 C.2   1623  X951623    -0.0202
     19  CAP       30.1700   -6.6540  -21.3330 C.2   1623  X951623     0.0946
     20  CAQ       27.5680   -7.5520  -27.9160 C.3   1623  X951623     0.1093
     21  CAR       27.1690   -6.0840  -27.7660 C.3   1623  X951623     0.0206
     22  CAS       27.2550   -5.6260  -26.3040 C.3   1623  X951623     0.0035
     23  CAT       28.0100    1.4990  -24.3180 C.3   1623  X951623     0.0284
     24  CAU       26.8240   -4.1660  -26.1730 C.3   1623  X951623     0.0268
     25  CAW       31.3750   -5.8060  -23.4180 C.3   1623  X951623     0.0612
     26  NAX       29.4260   -4.7940  -24.6990 N.am  1623  X951623    -0.1941
     27  CBB       31.6610   -4.9540  -25.8920 C.2   1623  X951623     0.3845
     28  CBC       29.0680   -3.5900  -25.1600 C.2   1623  X951623     0.2577
     29  CBD       27.6120    2.9350  -24.6800 C.ar  1623  X951623    -0.0221
     30  CBE       30.3650   -6.6830  -22.6500 C.2   1623  X951623     0.0004
     31  CBF       28.7570   -8.1280  -22.0850 C.2   1623  X951623     0.0804
     32  CBG       29.4640   -7.6210  -23.1680 C.2   1623  X951623     0.0113
     33  O         27.4050   -1.4350  -22.0930 O.co2 1623  X951623    -0.2441
     34  NXZ       29.2130   -7.5200  -20.9930 N.2   1623  X951623    -0.2442
     35  CBJ       30.7430   -5.4950  -24.7820 C.3   1623  X951623     0.2021
     36  CBI       27.5480   -3.3350  -25.0970 C.3   1623  X951623     0.1509
@<TRIPOS>BOND
     1     6    20    1
     2    20    21    1
     3    21    22    1
     4     7    27   ar
     5    22    24    1
     6    24    36    1
     7    12    16   ar
     8    12    10   ar
     9    27     9   ar
    10    27    35    1
    11    16    29   ar
    12     8    28    2
    13     2    36    1
    14     2     4    1
    15    10    11   ar
    16    28    36    1
    17    28    26   am
    18     5     4    1
    19     5    23    1
    20    35    26    1
    21    35    25    1
    22    29    23    1
    23    29    15   ar
    24    14    18    1
    25    14    13    1
    26    18    32    2
    27     4     1    1
    28    11    15   ar
    29    13    17    2
    30    25    30    1
    31     3     1   ar
    32    32    30    1
    33    32    31    1
    34     1    33   ar
    35    30    19    2
    36    17    31    1
    37    31    34    2
    38    19    34    1
