@<TRIPOS>MOLECULE
2x96_RX3_A_1.pdb
 44 48 0 0 0
SMALL
GASTEIGER

@<TRIPOS>ATOM
      1  OXT       33.1000    4.5660   25.4020 O.co2 1615  RX31615    -0.2437
      2  C24       31.8930    4.7100   25.1250 C.2   1615  RX31615     0.3845
      3  O6        31.0410    4.9460   26.0180 O.co2 1615  RX31615    -0.2437
      4  C23       31.4650    4.5930   23.6750 C.3   1615  RX31615     0.2021
      5  C25       31.9830    5.7620   22.8240 C.3   1615  RX31615     0.0612
      6  C26       31.4150    7.1170   23.1830 C.2   1615  RX31615     0.0004
      7  C28       30.4650    7.8450   22.4780 C.2   1615  RX31615     0.0115
      8  C30       29.7860    7.5530   21.2820 C.2   1615  RX31615     0.0006
      9  C32       28.8620    8.4810   20.7860 C.2   1615  RX31615    -0.0042
     10  C33       28.6190    9.6810   21.4700 C.2   1615  RX31615    -0.0198
     11  C31       29.2960    9.9670   22.6680 C.3   1615  RX31615     0.0717
     12  C29       30.2310    9.0380   23.1770 C.2   1615  RX31615     0.0631
     13  N3        31.0240    9.0340   24.2800 N.2   1615  RX31615    -0.2482
     14  C27       31.7430    7.8820   24.2990 C.2   1615  RX31615     0.0943
     15  N2        30.0120    4.5700   23.5210 N.am  1615  RX31615    -0.1952
     16  C19       29.2330    3.5810   23.9640 C.2   1615  RX31615     0.2419
     17  O5        29.6300    2.5640   24.5470 O.2   1615  RX31615    -0.2733
     18  C18       27.7760    3.8220   23.6840 C.3   1615  RX31615     0.0875
     19  C20       27.2270    4.8920   24.6270 C.3   1615  RX31615     0.0097
     20  C21       26.0070    4.3030   25.3310 C.3   1615  RX31615     0.0011
     21  C22       26.0850    2.7860   25.1760 C.3   1615  RX31615     0.0103
     22  C17       26.8720    2.6410   23.9110 C.3   1615  RX31615     0.0904
     23  P1        26.5990    1.4260   22.7290 P.3   1615  RX31615     0.2729
     24  O3        27.5900    1.6350   21.6000 O.2   1615  RX31615    -0.2852
     25  O4        25.1950    1.7250   22.3080 O.3   1615  RX31615    -0.1661
     26  C9        26.8470   -0.2640   23.0800 C.3   1615  RX31615     0.1822
     27  C10       27.7150   -0.8050   24.2080 C.3   1615  RX31615     0.0582
     28  C11       27.6380   -2.3260   24.3210 C.ar  1615  RX31615    -0.0199
     29  C13       26.9190   -2.9030   25.3790 C.ar  1615  RX31615    -0.0042
     30  C15       26.8170   -4.3000   25.4980 C.ar  1615  RX31615    -0.0003
     31  C16       27.4310   -5.1370   24.5500 C.ar  1615  RX31615    -0.0000
     32  C14       28.1430   -4.5740   23.4790 C.ar  1615  RX31615    -0.0003
     33  C12       28.2430   -3.1780   23.3700 C.ar  1615  RX31615    -0.0042
     34  N1        26.1920   -1.1710   22.3110 N.am  1615  RX31615    -0.1601
     35  C1        25.0930   -1.8240   21.9450 C.2   1615  RX31615     0.4219
     36  O2        24.0670   -1.8910   22.5870 O.2   1615  RX31615    -0.2245
     37  O1        25.1250   -2.5030   20.6670 O.3   1615  RX31615    -0.4285
     38  C2        23.9810   -2.6860   19.8400 C.3   1615  RX31615     0.2368
     39  C3        24.4070   -3.3810   18.5600 C.ar  1615  RX31615     0.0213
     40  C4        25.2980   -2.7560   17.6750 C.ar  1615  RX31615    -0.0007
     41  C5        23.8970   -4.6560   18.2540 C.ar  1615  RX31615    -0.0007
     42  C7        24.2790   -5.3100   17.0720 C.ar  1615  RX31615    -0.0002
     43  C8        25.1680   -4.6860   16.1920 C.ar  1615  RX31615    -0.0000
     44  C6        25.6810   -3.4130   16.4980 C.ar  1615  RX31615    -0.0002
@<TRIPOS>BOND
     1    43    44   ar
     2    43    42   ar
     3    44    40   ar
     4    42    41   ar
     5    40    39   ar
     6    41    39   ar
     7    39    38    1
     8    38    37    1
     9    37    35    1
    10     9     8    1
    11     9    10    2
    12     8     7    2
    13    10    11    1
    14    24    23    2
    15    35    34   am
    16    35    36    2
    17    25    23    1
    18    34    26    1
    19     7    12    1
    20     7     6    1
    21    11    12    1
    22    23    26    1
    23    23    22    1
    24     5     6    1
    25     5     4    1
    26    26    27    1
    27    12    13    2
    28     6    14    2
    29    33    32   ar
    30    33    28   ar
    31    32    31   ar
    32    15     4    1
    33    15    16   am
    34     4     2    1
    35    18    22    1
    36    18    16    1
    37    18    19    1
    38    22    21    1
    39    16    17    2
    40    27    28    1
    41    13    14    1
    42    28    29   ar
    43    31    30   ar
    44    19    20    1
    45     2     1   ar
    46     2     3   ar
    47    21    20    1
    48    29    30   ar
