@<TRIPOS>MOLECULE
2x97_RX4_A_1.pdb
 34 34 0 0 0
SMALL
GASTEIGER

@<TRIPOS>ATOM
      1  CAP       28.1710    3.2650   44.7320 C.ar  1615  RX41615    -0.0042
      2  CAN       28.0420    4.6420   44.6150 C.ar  1615  RX41615    -0.0003
      3  CAM       27.3230    5.0650   43.4740 C.ar  1615  RX41615    -0.0000
      4  CAO       26.7730    4.1780   42.5190 C.ar  1615  RX41615    -0.0003
      5  CAQ       26.9370    2.7910   42.6680 C.ar  1615  RX41615    -0.0042
      6  CBC       27.6600    2.3520   43.7750 C.ar  1615  RX41615    -0.0199
      7  CAS       27.8500    0.8490   44.1030 C.3   1615  RX41615     0.0581
      8  CBG       26.5070    0.3890   44.7880 C.3   1615  RX41615     0.1788
      9  NAW       26.2730    1.1280   46.0250 N.am  1615  RX41615    -0.1953
     10  CBB       25.1810    1.8950   46.0910 C.2   1615  RX41615     0.2622
     11  OAI       24.3460    1.9450   45.1700 O.2   1615  RX41615    -0.2715
     12  CBF       25.0390    2.9090   47.2380 C.3   1615  RX41615     0.1839
     13  CAR       24.4600    2.2840   48.4670 C.3   1615  RX41615     0.1450
     14  CAZ       24.8140    3.2310   49.6380 C.2   1615  RX41615     0.3671
     15  OAK       26.0220    3.3730   49.9820 O.co2 1615  RX41615    -0.2456
     16  OAG       23.8730    3.8480   50.1300 O.co2 1615  RX41615    -0.2456
     17  NAU       24.1720    3.9980   46.6650 N.am  1615  RX41615    -0.1972
     18  CAX       24.6000    5.2640   46.5060 C.2   1615  RX41615     0.2423
     19  CAA       23.5820    6.2410   45.8480 C.3   1615  RX41615     0.0964
     20  OAE       25.7340    5.6680   46.8590 O.2   1615  RX41615    -0.2733
     21  P1        26.5190   -1.3530   45.2660 P.3   1615  RX41615     0.2733
     22  O4        25.1720   -1.7630   45.8360 O.2   1615  RX41615    -0.2852
     23  O3        27.4350   -1.6580   46.4300 O.3   1615  RX41615    -0.1661
     24  CAT       26.9060   -2.3000   43.8010 C.3   1615  RX41615     0.1002
     25  CBD       27.3550   -3.7500   44.0110 C.3   1615  RX41615     0.0880
     26  CAB       27.0550   -4.6990   42.7460 C.3   1615  RX41615     0.0102
     27  CBA       28.9300   -3.7150   44.0870 C.2   1615  RX41615     0.2418
     28  OAH       29.5620   -2.7930   43.5480 O.2   1615  RX41615    -0.2733
     29  N         29.5320   -4.7480   44.6610 N.am  1615  RX41615    -0.1977
     30  CA        31.0420   -4.7760   44.6880 C.3   1615  RX41615     0.1744
     31  CB        31.5230   -5.9830   45.5060 C.3   1615  RX41615     0.0334
     32  C         31.4750   -4.9500   43.1920 C.2   1615  RX41615     0.2806
     33  O         30.6480   -5.4480   42.3560 O.2   1615  RX41615    -0.2698
     34  NAD       32.6800   -4.5350   42.8430 N.am  1615  RX41615    -0.0863
@<TRIPOS>BOND
     1    33    32    2
     2     4     5   ar
     3     4     3   ar
     4     5     6   ar
     5    26    25    1
     6    34    32   am
     7    32    30    1
     8     3     2   ar
     9    28    27    2
    10     6     7    1
    11     6     1   ar
    12    24    25    1
    13    24    21    1
    14    25    27    1
    15    27    29   am
    16     7     8    1
    17     2     1   ar
    18    29    30    1
    19    30    31    1
    20     8    21    1
    21     8     9    1
    22    11    10    2
    23    21    22    2
    24    21    23    1
    25    19    18    1
    26     9    10   am
    27    10    12    1
    28    18    17   am
    29    18    20    2
    30    17    12    1
    31    12    13    1
    32    13    14    1
    33    14    15   ar
    34    14    16   ar
