@<TRIPOS>MOLECULE
2x99_GSH_A_1.pdb
 20 19 0 0 0
SMALL
GASTEIGER

@<TRIPOS>ATOM
      1  N1        41.9250   38.4450  -12.6980 N.3   1595  GSH1595    -0.1208
      2  CA1       40.6720   37.7330  -12.5220 C.3   1595  GSH1595     0.1948
      3  C1        40.9170   36.2520  -12.4260 C.2   1595  GSH1595     0.3819
      4  O11       40.1010   35.5210  -11.8130 O.co2 1595  GSH1595    -0.2441
      5  O12       41.9340   35.7410  -12.9590 O.co2 1595  GSH1595    -0.2441
      6  CB1       39.7480   38.0150  -13.7010 C.3   1595  GSH1595     0.0402
      7  CG1       38.3720   38.4220  -13.1870 C.3   1595  GSH1595     0.0889
      8  CD1       37.3930   38.6280  -14.3200 C.2   1595  GSH1595     0.2418
      9  OE1       37.8140   39.2060  -15.5380 O.2   1595  GSH1595    -0.2733
     10  N2        36.1470   38.2150  -14.0860 N.am  1595  GSH1595    -0.1968
     11  CA2       34.9540   38.9220  -14.5050 C.3   1595  GSH1595     0.1843
     12  C2        34.3880   39.7080  -13.3680 C.2   1595  GSH1595     0.2627
     13  O2        34.4740   39.1810  -12.0690 O.2   1595  GSH1595    -0.2714
     14  CB2       33.9110   37.9140  -14.9750 C.3   1595  GSH1595     0.0997
     15  SG2       34.4180   37.1000  -16.5080 S.3   1595  GSH1595    -0.0797
     16  N3        33.8220   40.8840  -13.6380 N.am  1595  GSH1595    -0.1917
     17  CA3       32.4010   41.0110  -13.9210 C.3   1595  GSH1595     0.2285
     18  C3        31.5610   40.9930  -12.6680 C.2   1595  GSH1595     0.3865
     19  O31       31.0450   39.9280  -12.2840 O.co2 1595  GSH1595    -0.2437
     20  O32       31.3600   42.0340  -12.0030 O.co2 1595  GSH1595    -0.2437
@<TRIPOS>BOND
     1    15    14    1
     2     9     8    2
     3    14    11    1
     4    11    10    1
     5    11    12    1
     6     8    10   am
     7     8     7    1
     8    17    16    1
     9    17    18    1
    10     6     7    1
    11     6     2    1
    12    16    12   am
    13    12    13    2
    14     5     3   ar
    15     1     2    1
    16    18    19   ar
    17    18    20   ar
    18     2     3    1
    19     3     4   ar
