@<TRIPOS>MOLECULE
2x99_NDP_A_1.pdb
 48 52 0 0 0
SMALL
GASTEIGER

@<TRIPOS>ATOM
      1  O1X        3.3260    5.1620   29.4250 O.2   1594  NDP1594    -0.2224
      2  P2B        4.2700    4.3240   30.2450 P.3   1594  NDP1594     0.5328
      3  O2X        3.5260    3.7570   31.4210 O.3   1594  NDP1594    -0.1145
      4  O3X        5.4260    5.1740   30.7300 O.3   1594  NDP1594    -0.1145
      5  O2B        4.8040    3.1080   29.3270 O.3   1594  NDP1594    -0.2630
      6  C2B        6.0760    3.1490   28.7390 C.3   1594  NDP1594     0.2314
      7  C3B        5.9870    3.2780   27.2340 C.3   1594  NDP1594     0.2157
      8  O3B        4.9120    2.4890   26.7840 O.3   1594  NDP1594    -0.2175
      9  C1B        6.7900    1.8160   28.8980 C.3   1594  NDP1594     0.3158
     10  N9A        7.6280    1.7620   30.1060 N.pl3 1594  NDP1594    -0.1439
     11  C8A        8.6370    2.6310   30.4210 C.3   1594  NDP1594     0.3377
     12  N7A        9.1840    2.2350   31.5940 N.2   1594  NDP1594    -0.2095
     13  C5A        8.5540    1.1280   32.0270 C.2   1594  NDP1594     0.2526
     14  C4A        7.5680    0.8130   31.1040 C.2   1594  NDP1594     0.3518
     15  N3A        6.7850   -0.2760   31.3050 N.2   1594  NDP1594    -0.0055
     16  C2A        6.9370   -1.0780   32.4260 C.3   1594  NDP1594     0.5254
     17  N1A        7.9040   -0.7720   33.3530 N.2   1594  NDP1594     0.0021
     18  C6A        8.7230    0.3360   33.1600 C.2   1594  NDP1594     0.4393
     19  N6A        9.8240    0.4950   33.8940 N.pl3 1594  NDP1594     0.2180
     20  O4B        7.6130    1.6890   27.7440 O.3   1594  NDP1594    -0.3136
     21  C4B        7.2600    2.6090   26.7360 C.3   1594  NDP1594     0.1820
     22  C5B        8.3890    3.6030   26.4710 C.3   1594  NDP1594     0.1813
     23  O5B        8.0360    4.3620   25.3330 O.3   1594  NDP1594    -0.3112
     24  PA         9.0740    4.8140   24.1750 P.3   1594  NDP1594     0.2189
     25  O1A        9.8540    5.9600   24.7100 O.3   1594  NDP1594    -0.4371
     26  O2A        8.3800    5.2030   22.9230 O.2   1594  NDP1594    -0.5170
     27  O3        10.0860    3.5520   23.9820 O.3   1594  NDP1594    -0.2703
     28  PN        10.2210    2.4670   22.7750 P.3   1594  NDP1594     0.2189
     29  O1N        8.8900    2.1570   22.2000 O.2   1594  NDP1594    -0.5170
     30  O2N       11.0320    1.3390   23.3120 O.3   1594  NDP1594    -0.4371
     31  O5D       11.0660    3.2210   21.6250 O.3   1594  NDP1594    -0.3112
     32  C5D       11.6600    4.4780   21.8420 C.3   1594  NDP1594     0.1813
     33  C4D       11.8780    5.2590   20.5450 C.3   1594  NDP1594     0.1799
     34  O4D       11.9850    4.4400   19.3870 O.3   1594  NDP1594    -0.3327
     35  C1D       11.5310    5.1340   18.2270 C.3   1594  NDP1594     0.2263
     36  C2D       10.7660    6.3460   18.7470 C.3   1594  NDP1594     0.2309
     37  O2D       11.4460    7.5110   18.3530 O.3   1594  NDP1594    -0.2158
     38  C3D       10.7230    6.2040   20.2640 C.3   1594  NDP1594     0.2158
     39  O3D       10.8700    7.4290   20.9580 O.3   1594  NDP1594    -0.2175
     40  N1N       10.6780    4.2560   17.3830 N.pl3 1594  NDP1594    -0.2787
     41  C2N       10.1350    4.6660   16.1820 C.3   1594  NDP1594     0.1244
     42  C3N        9.2790    3.8360   15.4340 C.2   1594  NDP1594     0.0544
     43  C7N        8.6630    4.2600   14.1260 C.2   1594  NDP1594     0.2818
     44  N7N        8.8690    5.4870   13.6600 N.am  1594  NDP1594    -0.0839
     45  O7N        7.8580    3.3380   13.4160 O.2   1594  NDP1594    -0.2670
     46  C4N        8.9220    2.4470   15.9060 C.2   1594  NDP1594     0.0033
     47  C5N        9.5690    2.1090   17.2080 C.2   1594  NDP1594     0.0157
     48  C6N       10.3980    3.0130   17.8650 C.2   1594  NDP1594     0.0633
@<TRIPOS>BOND
     1    45    43    2
     2    44    43   am
     3    43    42    1
     4    42    46    2
     5    42    41    1
     6    46    47    1
     7    41    40    1
     8    47    48    2
     9    40    48    1
    10    40    35    1
    11    35    36    1
    12    35    34    1
    13    37    36    1
    14    36    38    1
    15    34    33    1
    16    38    33    1
    17    38    39    1
    18    33    32    1
    19    31    32    1
    20    31    28    1
    21    29    28    2
    22    28    30    1
    23    28    27    1
    24    26    24    2
    25    27    24    1
    26    24    25    1
    27    24    23    1
    28    23    22    1
    29    22    21    1
    30    21     7    1
    31    21    20    1
    32     8     7    1
    33     7     6    1
    34    20     9    1
    35     6     9    1
    36     6     5    1
    37     9    10    1
    38     5     2    1
    39     1     2    2
    40    10    11    1
    41    10    14    1
    42     2     4    1
    43     2     3    1
    44    11    12    1
    45    14    15    2
    46    14    13    1
    47    15    16    1
    48    12    13    2
    49    13    18    1
    50    16    17    1
    51    18    17    2
    52    18    19    1
