@<TRIPOS>MOLECULE
2x9d_ITC_A_1.pdb
 33 36 0 0 0
SMALL
GASTEIGER

@<TRIPOS>ATOM
      1  C1        20.3340   34.7080   33.8070 C.2   1209  ITC1209     0.2101
      2  O1        19.7720   35.3120   32.8670 O.2   1209  ITC1209    -0.2884
      3  C2        19.5870   33.8060   34.6670 C.2   1209  ITC1209     0.1297
      4  C2'       18.3180   33.1890   34.2120 C.2   1209  ITC1209     0.2899
      5  O2'       17.7490   32.3640   34.9200 O.2   1209  ITC1209    -0.2665
      6  N2'       17.7210   33.6120   33.0950 N.am  1209  ITC1209    -0.0835
      7  C3        20.0990   33.5240   35.9060 C.2   1209  ITC1209     0.1948
      8  O3        19.4660   32.6590   36.7020 O.2   1209  ITC1209    -0.2897
      9  C4        21.3190   34.1850   36.5040 C.3   1209  ITC1209     0.1232
     10  N4        22.1250   33.2180   37.2800 N.3   1209  ITC1209    -0.2651
     11  C4'       23.1000   32.4290   36.5070 C.3   1209  ITC1209     0.0900
     12  C4D       22.7230   33.9360   38.3990 C.3   1209  ITC1209     0.0900
     13  C4A       22.1190   35.0990   35.5330 C.3   1209  ITC1209     0.0600
     14  C5        21.7930   36.5740   35.8480 C.3   1209  ITC1209     0.0087
     15  C5A       22.5140   37.5650   34.9300 C.3   1209  ITC1209     0.0436
     16  C6        22.2400   39.0600   35.2130 C.3   1209  ITC1209     0.1560
     17  O6        20.8680   39.3870   34.9430 O.3   1209  ITC1209    -0.4484
     18  C6'       22.4960   39.5140   36.6550 C.3   1209  ITC1209     0.0484
     19  C6A       23.0000   39.8800   34.1990 C.ar  1209  ITC1209     0.0336
     20  C7        24.3800   39.9870   33.9520 C.ar  1209  ITC1209     0.0573
     21 CL7        25.5790   39.1210   34.9130 Cl    1209  ITC1209    -0.0825
     22  C8        24.8520   40.8130   32.9240 C.ar  1209  ITC1209     0.0145
     23  C9        23.9360   41.5060   32.1260 C.ar  1209  ITC1209     0.0431
     24  C10       22.5650   41.3720   32.3710 C.ar  1209  ITC1209     0.2018
     25  O10       21.6850   42.0150   31.6200 O.3   1209  ITC1209    -0.2864
     26  C6B       22.1270   40.5680   33.4150 C.ar  1209  ITC1209     0.1145
     27  O11       19.7100   40.7800   33.2080 O.2   1209  ITC1209    -0.2448
     28  C5B       22.1590   37.1670   33.5170 C.3   1209  ITC1209     0.0397
     29  C12       22.4850   35.8800   33.2320 C.3   1209  ITC1209     0.1869
     30  O12       23.4020   35.5940   32.3380 O.3   1209  ITC1209    -0.2200
     31  C4B       21.8490   34.8010   34.0540 C.3   1209  ITC1209     0.2105
     32  O4B       22.4850   33.5620   33.7640 O.3   1209  ITC1209    -0.2151
     33  C11       20.7430   40.2950   33.8070 C.2   1209  ITC1209     0.3443
@<TRIPOS>BOND
     1    25    24    1
     2    23    24   ar
     3    23    22   ar
     4    30    29    1
     5    24    26   ar
     6     2     1    2
     7    22    20   ar
     8     6     4   am
     9    27    33    2
    10    29    28    1
    11    29    31    1
    12    26    33    1
    13    26    19   ar
    14    28    15    1
    15    32    31    1
    16    33    17    1
    17     1    31    1
    18     1     3    1
    19    20    19   ar
    20    20    21    1
    21    31    13    1
    22    19    16    1
    23     4     3    1
    24     4     5    2
    25     3     7    2
    26    15    16    1
    27    15    14    1
    28    17    16    1
    29    16    18    1
    30    13    14    1
    31    13     9    1
    32     7     9    1
    33     7     8    1
    34     9    10    1
    35    11    10    1
    36    10    12    1
