@<TRIPOS>MOLECULE
2x9e_SVE_A_1.pdb
 49 54 0 0 0
SMALL
GASTEIGER

@<TRIPOS>ATOM
      1  C1       -10.4810   24.7490   -2.5080 C.ar  1796  SVE1796     0.0034
      2  C2        -9.6860   25.9970   -1.9600 C.ar  1796  SVE1796     0.0043
      3  C3        -9.7410   23.4610   -2.3160 C.ar  1796  SVE1796     0.0437
      4  C4        -8.5820   23.3520   -1.7090 C.ar  1796  SVE1796     0.1100
      5  N5        -8.2170   21.9930   -1.7640 N.ar  1796  SVE1796    -0.2462
      6  N6        -9.1780   21.3010   -2.4090 N.ar  1796  SVE1796    -0.1645
      7  C7       -10.0900   22.1250   -2.7490 C.ar  1796  SVE1796     0.1575
      8  C8       -11.2660   21.7010   -3.4480 C.2   1796  SVE1796     0.2884
      9  N9       -11.5020   20.3890   -3.4540 N.am  1796  SVE1796    -0.1747
     10  O10      -12.0170   22.5010   -4.0260 O.2   1796  SVE1796    -0.2663
     11  C11       -7.0250   21.3890   -1.2290 C.3   1796  SVE1796     0.1538
     12  C12       -7.8760   24.4600   -1.0910 C.ar  1796  SVE1796     0.1628
     13  C13       -8.3930   25.7030   -1.1690 C.ar  1796  SVE1796     0.0520
     14  C14       -7.6600   26.7790   -0.4960 C.2   1796  SVE1796     0.1143
     15  N15       -6.5640   26.5100    0.1280 N.2   1796  SVE1796    -0.1683
     16  C16       -6.0460   25.1740    0.1800 C.1   1796  SVE1796     0.1698
     17  N17       -6.6770   24.2350   -0.3940 N.2   1796  SVE1796    -0.3346
     18  N18       -4.8500   24.8510    0.8600 N.pl3 1796  SVE1796    -0.1327
     19  C19       -4.1950   23.5840    1.0170 C.ar  1796  SVE1796     0.1167
     20  C20       -2.9030   23.5540    0.6770 C.ar  1796  SVE1796     0.1628
     21  C21       -2.1120   22.2880    0.8310 C.ar  1796  SVE1796     0.0431
     22  C22       -2.6970   21.1770    1.3090 C.ar  1796  SVE1796     0.0581
     23  C23       -4.1360   21.1910    1.6730 C.ar  1796  SVE1796     0.0061
     24  C24       -4.8550   22.3420    1.5360 C.ar  1796  SVE1796     0.0206
     25  O25       -2.3710   24.7760    0.1820 O.3   1796  SVE1796    -0.4031
     26  C26       -1.8990   19.9850    1.4880 C.2   1796  SVE1796     0.2648
     27  N27       -2.2270   18.8240    0.8970 N.am  1796  SVE1796    -0.2033
     28  O28       -0.9040   20.0690    2.2390 O.2   1796  SVE1796    -0.2684
     29  C29       -1.4690   17.6020    1.1610 C.3   1796  SVE1796     0.0984
     30  C30       -1.8810   16.5010    0.1340 C.3   1796  SVE1796     0.0390
     31  C31       -1.1720   15.1540    0.4740 C.3   1796  SVE1796     0.0739
     32  N32       -1.4920   14.7500    1.8840 N.3   1796  SVE1796    -0.2714
     33  C33       -0.9930   15.7620    2.8750 C.3   1796  SVE1796     0.0739
     34  C34       -1.7160   17.1110    2.6370 C.3   1796  SVE1796     0.0390
     35  C35       -0.8790   13.4350    2.1750 C.3   1796  SVE1796     0.0896
     36  C36       -1.1730   25.2770    0.7460 C.3   1796  SVE1796     0.5753
     37  F37       -0.1010   24.7050    0.0800 F     1796  SVE1796    -0.1328
     38  F38       -1.1040   24.9590    2.0900 F     1796  SVE1796    -0.1328
     39  F39       -1.1120   26.6650    0.6320 F     1796  SVE1796    -0.1328
     40  C40      -12.6450   19.7810   -3.9960 C.ar  1796  SVE1796     0.0657
     41  C41      -12.5880   19.3760   -5.2920 C.ar  1796  SVE1796    -0.0071
     42  C42      -13.7770   18.7300   -5.9050 C.ar  1796  SVE1796    -0.0030
     43  C43      -14.9090   18.5470   -5.1850 C.ar  1796  SVE1796    -0.0006
     44  C44      -14.9800   18.9820   -3.7770 C.ar  1796  SVE1796    -0.0030
     45  C45      -13.9110   19.5770   -3.1810 C.ar  1796  SVE1796    -0.0071
     46  C46      -13.9640   20.0370   -1.7070 C.3   1796  SVE1796     0.0277
     47  C47      -15.3040   19.7770   -0.9860 C.3   1796  SVE1796     0.0051
     48  C48      -11.2890   19.5950   -6.0800 C.3   1796  SVE1796     0.0277
     49  C49      -11.3400   19.0990   -7.5280 C.3   1796  SVE1796     0.0051
@<TRIPOS>BOND
     1    49    48    1
     2    48    41    1
     3    42    41   ar
     4    42    43   ar
     5    41    40   ar
     6    43    44   ar
     7    10     8    2
     8    40     9    1
     9    40    45   ar
    10    44    45   ar
    11     9     8   am
    12     8     7    1
    13    45    46    1
    14     7     6   ar
    15     7     3   ar
    16     1     3   ar
    17     1     2   ar
    18     6     5   ar
    19     3     4   ar
    20     2    13   ar
    21     5     4   ar
    22     5    11    1
    23     4    12   ar
    24    46    47    1
    25    13    12   ar
    26    13    14    2
    27    12    17    2
    28    14    15    1
    29    17    16    2
    30    37    36    1
    31    15    16    2
    32    30    31    1
    33    30    29    1
    34    16    18    1
    35    25    20    1
    36    25    36    1
    37    31    32    1
    38    39    36    1
    39    20    21   ar
    40    20    19   ar
    41    36    38    1
    42    21    22   ar
    43    18    19    1
    44    27    29    1
    45    27    26   am
    46    19    24   ar
    47    29    34    1
    48    22    26    1
    49    22    23   ar
    50    26    28    2
    51    24    23   ar
    52    32    35    1
    53    32    33    1
    54    34    33    1
