@<TRIPOS>MOLECULE
2x9f_X9F_A_1.pdb
 27 30 0 0 0
SMALL
GASTEIGER

@<TRIPOS>ATOM
      1  C7        13.6070    6.2540   11.8440 C.1   1889  X9F1889     0.1709
      2  N2        14.4260    5.2380   12.1810 N.2   1889  X9F1889    -0.1683
      3  C8        13.8820    4.0720   12.5410 C.2   1889  X9F1889     0.1158
      4  C9        12.5350    3.8660   12.5780 C.2   1889  X9F1889     0.0720
      5  C10       11.7450    4.9470   12.2220 C.2   1889  X9F1889     0.2178
      6  N3        10.3380    4.8170   12.2310 N.pl3 1889  X9F1889    -0.1827
      7  C11        9.7150    3.6510   12.7000 C.2   1889  X9F1889     0.0755
      8  C12        9.6110    3.3760   14.0520 C.2   1889  X9F1889     0.0125
      9  C13        9.0180    2.2290   14.5480 C.2   1889  X9F1889    -0.0184
     10  C14        8.4630    1.2770   13.7220 C.3   1889  X9F1889     0.0737
     11  C15        8.5610    1.5560   12.3730 C.2   1889  X9F1889     0.0877
     12  N4         8.1210    0.8430   11.2910 N.2   1889  X9F1889    -0.1519
     13  N5         8.4250    1.4300   10.1160 N.2   1889  X9F1889    -0.1466
     14  C16        9.0580    2.5710   10.4350 C.2   1889  X9F1889     0.1246
     15  C17        9.1690    2.6950   11.8470 C.2   1889  X9F1889     0.0519
     16  N6        12.2710    6.1220   11.8590 N.2   1889  X9F1889    -0.3189
     17  C1        15.9810   12.2770   12.4030 C.3   1889  X9F1889     0.1816
     18  S1        14.9290   12.5190   11.0440 S.O2  1889  X9F1889     0.0105
     19  O1        15.7150   12.5050    9.8180 O.2   1889  X9F1889    -0.1686
     20  O2        14.0600   13.6550   11.3180 O.2   1889  X9F1889    -0.1686
     21  C2        13.8890   11.0660   10.9830 C.ar  1889  X9F1889     0.1070
     22  C3        12.5510   11.2060   10.6850 C.ar  1889  X9F1889     0.0184
     23  C4        11.7480   10.0850   10.6420 C.ar  1889  X9F1889     0.0027
     24  C5        12.2880    8.8370   10.8940 C.ar  1889  X9F1889     0.0174
     25  C6        13.6260    8.7000   11.2010 C.ar  1889  X9F1889     0.0839
     26  N1        14.2270    7.4510   11.4600 N.pl3 1889  X9F1889    -0.1357
     27  C18       14.4340    9.8230   11.2370 C.ar  1889  X9F1889     0.0357
@<TRIPOS>BOND
     1    19    18    2
     2    13    14    2
     3    13    12    1
     4    14    15    1
     5    23    22   ar
     6    23    24   ar
     7    22    21   ar
     8    24    25   ar
     9    21    18    1
    10    21    27   ar
    11    18    20    2
    12    18    17    1
    13    25    27   ar
    14    25    26    1
    15    12    11    2
    16    26     1    1
    17     1    16    2
    18     1     2    2
    19    15    11    1
    20    15     7    2
    21    16     5    2
    22     2     3    1
    23     5     6    1
    24     5     4    1
    25     6     7    1
    26    11    10    1
    27     3     4    2
    28     7     8    1
    29    10     9    1
    30     8     9    2
