@<TRIPOS>MOLECULE
2x9g_LYA_A_1.pdb
 45 47 0 0 0
SMALL
GASTEIGER

@<TRIPOS>ATOM
      1  C1         5.5090  -14.2930   15.8810 C.ar  1270  LYA1270    -0.0470
      2  C2         6.5640  -15.1800   16.0570 C.ar  1270  LYA1270    -0.0578
      3  C3         6.7410  -15.8150   17.2810 C.ar  1270  LYA1270    -0.0493
      4  C4         5.8630  -15.5630   18.3280 C.ar  1270  LYA1270     0.0384
      5  C5         4.8080  -14.6750   18.1520 C.ar  1270  LYA1270    -0.0493
      6  C6         4.6310  -14.0400   16.9290 C.ar  1270  LYA1270    -0.0578
      7  C7         5.3900  -13.6180   14.5690 C.3   1270  LYA1270    -0.0236
      8  C8         6.6620  -13.0900   13.9270 C.3   1270  LYA1270    -0.0192
      9  C9         7.0570  -11.7020   14.4050 C.2   1270  LYA1270     0.0156
     10  C10        6.2660  -10.7810   15.0050 C.2   1270  LYA1270     0.0964
     11  N11        6.9770   -9.6350   15.2320 N.2   1270  LYA1270    -0.3475
     12  C12        8.2450   -9.8270   14.8400 C.1   1270  LYA1270     0.1621
     13  C13        8.3250  -11.1070   14.3300 C.2   1270  LYA1270     0.1785
     14  C14        9.6070  -11.5340   13.8880 C.1   1270  LYA1270     0.2270
     15  O15        9.9070  -12.6800   13.4200 O.2   1270  LYA1270    -0.2078
     16  N16       10.6140  -10.5990   14.0280 N.2   1270  LYA1270    -0.2489
     17  C17       10.4540   -9.3530   14.5300 C.1   1270  LYA1270     0.2616
     18  N18        9.2660   -8.9040   14.9620 N.2   1270  LYA1270    -0.2577
     19  N19       11.5230   -8.5280   14.5980 N.pl3 1270  LYA1270    -0.0220
     20  HC2        3.9250  -13.4460   16.8110 H     1270  LYA1270     0.0620
     21  HC3        4.2200  -14.5060   18.8530 H     1270  LYA1270     0.0625
     22  HC5        7.4470  -16.4090   17.3990 H     1270  LYA1270     0.0625
     23  HC6        7.1510  -15.3490   15.3560 H     1270  LYA1270     0.0620
     24 HC71        4.7770  -12.8730   14.6720 H     1270  LYA1270     0.0316
     25 HC72        4.9800  -14.2420   13.9490 H     1270  LYA1270     0.0316
     26 HC81        6.5410  -13.0680   12.9650 H     1270  LYA1270     0.0318
     27 HC82        7.3870  -13.7060   14.1190 H     1270  LYA1270     0.0318
     28  H10        5.3730  -10.9090   15.2300 H     1270  LYA1270     0.0983
     29  C20        5.9630  -16.3570   19.6150 C.2   1270  LYA1270     0.2637
     30  O21        4.9370  -16.7630   20.1500 O.2   1270  LYA1270    -0.2684
     31  N22        7.2030  -16.5360   20.0210 N.am  1270  LYA1270    -0.1988
     32  C23        7.4150  -17.3560   21.2230 C.3   1270  LYA1270     0.1470
     33  C24        7.1530  -18.8180   20.8870 C.3   1270  LYA1270    -0.0118
     34  C25        7.9900  -19.3470   19.7620 C.3   1270  LYA1270     0.0514
     35  C26        7.7830  -20.8020   19.3830 C.2   1270  LYA1270     0.3561
     36  O27        8.6270  -21.2170   18.5400 O.co2 1270  LYA1270    -0.2464
     37  O28        6.8570  -21.4840   19.8780 O.co2 1270  LYA1270    -0.2464
     38  C29        8.8910  -17.1810   21.5940 C.2   1270  LYA1270     0.3778
     39  O30        9.6250  -16.6930   20.7000 O.co2 1270  LYA1270    -0.2442
     40  O31        9.2050  -17.5550   22.7480 O.co2 1270  LYA1270    -0.2442
     41  H23        6.8350  -17.0570   21.9550 H     1270  LYA1270     0.0636
     42 H241        7.3200  -19.3540   21.6780 H     1270  LYA1270     0.0294
     43 H242        6.2170  -18.9210   20.6550 H     1270  LYA1270     0.0294
     44 H251        8.9230  -19.2260   19.9980 H     1270  LYA1270     0.0380
     45 H252        7.8180  -18.8030   18.9770 H     1270  LYA1270     0.0380
@<TRIPOS>BOND
     1    26     8    1
     2    15    14    2
     3    14    16    2
     4    14    13    1
     5     8    27    1
     6     8     9    1
     7     8     7    1
     8    25     7    1
     9    16    17    2
    10    13     9    2
    11    13    12    1
    12     9    10    1
    13    17    19    1
    14    17    18    2
    15     7    24    1
    16     7     1    1
    17    12    18    2
    18    12    11    2
    19    10    28    1
    20    10    11    2
    21    23     2    1
    22     1     2   ar
    23     1     6   ar
    24     2     3   ar
    25    20     6    1
    26     6     5   ar
    27     3    22    1
    28     3     4   ar
    29     5     4   ar
    30     5    21    1
    31     4    29    1
    32    36    35   ar
    33    45    34    1
    34    35    34    1
    35    35    37   ar
    36    29    31   am
    37    29    30    2
    38    34    44    1
    39    34    33    1
    40    31    32    1
    41    43    33    1
    42    39    38   ar
    43    33    32    1
    44    33    42    1
    45    32    38    1
    46    32    41    1
    47    38    40   ar
