@<TRIPOS>MOLECULE
2x9h_AD9_A_1.pdb
 31 33 0 0 0
SMALL
GASTEIGER

@<TRIPOS>ATOM
      1  VG        63.4160   40.0390  -28.4840 V     1001  AD91001     0.0000
      2  O1G       65.0160   41.3670  -28.4250 O.3   1001  AD91001     0.0000
      3  O2G       63.8030   38.0630  -28.8630 O.3   1001  AD91001     0.0000
      4  O3G       61.5200   40.8870  -28.5280 O.3   1001  AD91001     0.0000
      5  PB        64.7570   39.6300  -25.5000 P.3   1001  AD91001     0.0000
      6  O1B       65.8320   40.3570  -26.2370 O.2   1001  AD91001    -0.5000
      7  O2B       64.8860   38.2340  -24.9480 O.3   1001  AD91001    -0.5000
      8  O3B       63.4670   39.6490  -26.4700 O.3   1001  AD91001     0.0000
      9  PA        64.9690   41.5980  -23.4030 P.3   1001  AD91001     0.0000
     10  O1A       66.3670   41.1750  -22.9930 O.3   1001  AD91001    -0.5000
     11  O2A       64.7970   42.8690  -24.2330 O.2   1001  AD91001    -0.5000
     12  O3A       64.2030   40.4700  -24.2540 O.3   1001  AD91001     0.0000
     13  O5'       64.0670   41.6050  -22.0540 O.3   1001  AD91001     0.0000
     14  C5'       62.7320   42.1250  -22.0030 C.3   1001  AD91001     0.0000
     15  C4'       62.5390   43.0370  -20.8010 C.3   1001  AD91001     0.0000
     16  O4'       62.4490   42.3020  -19.5760 O.3   1001  AD91001     0.0000
     17  C3'       63.6910   44.0090  -20.5830 C.3   1001  AD91001     0.0000
     18  O3'       63.4830   45.1920  -21.3260 O.3   1001  AD91001     0.0000
     19  C2'       63.6370   44.3050  -19.1110 C.3   1001  AD91001     0.0000
     20  O2'       62.5890   45.2760  -18.9140 O.3   1001  AD91001     0.0000
     21  C1'       63.2130   42.9540  -18.5420 C.3   1001  AD91001     0.0000
     22  N9        64.3700   42.0960  -18.0980 N.pl3 1001  AD91001     0.5000
     23  C8        64.8610   41.0160  -18.7410 C.3   1001  AD91001     0.0000
     24  N7        65.8710   40.4700  -18.0310 N.2   1001  AD91001     0.0000
     25  C5        66.0340   41.2160  -16.9100 C.2   1001  AD91001     0.0000
     26  C6        66.9050   41.1780  -15.8110 C.2   1001  AD91001     0.0000
     27  N6        67.8800   40.2550  -15.6640 N.pl3 1001  AD91001     0.5000
     28  N1        66.7820   42.1280  -14.8630 N.2   1001  AD91001     0.5000
     29  C2        65.8590   43.0890  -14.9150 C.3   1001  AD91001     0.0000
     30  C4        65.0790   42.2320  -16.9540 C.2   1001  AD91001     0.0000
     31  N3        65.0150   43.1320  -15.9310 N.2   1001  AD91001     0.5000
@<TRIPOS>BOND
     1     3     1    1
     2     4     1    1
     3     1     2    1
     4     1     8    1
     5     8     5    1
     6     6     5    2
     7     5     7    1
     8     5    12    1
     9    12     9    1
    10    11     9    2
    11     9    10    1
    12     9    13    1
    13    13    14    1
    14    14    15    1
    15    18    17    1
    16    15    17    1
    17    15    16    1
    18    17    19    1
    19    16    21    1
    20    19    20    1
    21    19    21    1
    22    23    22    1
    23    23    24    1
    24    21    22    1
    25    22    30    1
    26    24    25    2
    27    30    25    1
    28    30    31    2
    29    25    26    1
    30    31    29    1
    31    26    27    1
    32    26    28    2
    33    29    28    1
