@<TRIPOS>MOLECULE
2x9h_KI9_A_1.pdb
 19 21 0 0 0
SMALL
GASTEIGER

@<TRIPOS>ATOM
      1 CL1        70.0790   46.2970  -45.0200 Cl    4001  KI94001    -0.0779
      2  C10       69.8510   46.4700  -46.7900 C.ar  4001  KI94001     0.1104
      3  C9        70.6660   45.9150  -47.7850 C.ar  4001  KI94001     0.0820
      4 CL2        72.0950   44.9120  -47.3830 Cl    4001  KI94001    -0.0804
      5  C8        70.3580   46.1390  -49.1260 C.ar  4001  KI94001     0.0718
      6 CL3        71.3120   45.4860  -50.4910 Cl    4001  KI94001    -0.0812
      7  C11       68.7660   47.2250  -47.1330 C.ar  4001  KI94001     0.2362
      8  C12       68.4650   47.4490  -48.4510 C.ar  4001  KI94001     0.1719
      9  C7        69.2570   46.9100  -49.4310 C.ar  4001  KI94001     0.0468
     10  C4        68.7660   47.2630  -50.6600 C.ar  4001  KI94001     0.0347
     11  C3        67.6580   48.0280  -50.4280 C.ar  4001  KI94001     0.1421
     12  C2        66.9510   48.5190  -51.4770 C.ar  4001  KI94001     0.0880
     13 CL5        65.5210   49.4840  -51.0700 Cl    4001  KI94001    -0.0796
     14  C5        69.2050   46.9720  -51.9540 C.ar  4001  KI94001     0.0141
     15  C6        68.4540   47.4960  -53.0170 C.ar  4001  KI94001     0.0587
     16 CL6        68.8440   47.2510  -54.7460 Cl    4001  KI94001    -0.0822
     17  C1        67.3360   48.2640  -52.7740 C.ar  4001  KI94001     0.0254
     18  N13       67.4860   48.1320  -49.0860 N.2   4001  KI94001    -0.3977
     19  O14       68.0010   47.7570  -46.1620 O.3   4001  KI94001    -0.2829
@<TRIPOS>BOND
     1    16    15    1
     2    15    17   ar
     3    15    14   ar
     4    17    12   ar
     5    14    10   ar
     6    12    13    1
     7    12    11   ar
     8    10    11   ar
     9    10     9    2
    10     6     5    1
    11    11    18    2
    12     9     5   ar
    13     9     8   ar
    14     5     3   ar
    15    18     8    2
    16     8     7   ar
    17     3     4    1
    18     3     2   ar
    19     7     2   ar
    20     7    19    1
    21     2     1    1
