@<TRIPOS>MOLECULE
2x9i_BLA_A_1.pdb
 43 46 0 0 0
SMALL
GASTEIGER

@<TRIPOS>ATOM
      1  CHA        8.6390   34.2560  -24.1320 C.3   1234  BLA1234     0.1170
      2  NA         7.8890   34.9110  -21.8210 N.2   1234  BLA1234    -0.4104
      3  C1A        8.6010   34.1660  -22.7550 C.2   1234  BLA1234     0.1114
      4  C2A        9.3840   33.2240  -22.0430 C.2   1234  BLA1234     0.0024
      5  C3A        9.1180   33.4030  -20.7030 C.2   1234  BLA1234     0.0021
      6  C4A        8.1880   34.4790  -20.5910 C.2   1234  BLA1234     0.1114
      7  CMA        9.7210   32.6300  -19.5830 C.3   1234  BLA1234     0.0331
      8  CAA       10.3560   32.1590  -22.6200 C.3   1234  BLA1234     0.0402
      9  CBA       11.8130   32.6590  -22.6040 C.3   1234  BLA1234     0.1188
     10  CGA       12.7490   31.6240  -23.1410 C.2   1234  BLA1234     0.3652
     11  O1A       13.6630   31.2540  -22.3690 O.co2 1234  BLA1234    -0.2456
     12  O2A       12.5450   31.1990  -24.3060 O.co2 1234  BLA1234    -0.2456
     13  CHB        7.6980   34.9550  -19.2730 C.3   1234  BLA1234     0.1181
     14  NB         6.3310   36.9250  -19.8760 N.2   1234  BLA1234    -0.3372
     15  C1B        6.9180   36.0310  -18.9670 C.2   1234  BLA1234     0.1257
     16  C2B        6.5270   36.4880  -17.5830 C.2   1234  BLA1234     0.0168
     17  C3B        5.7810   37.5980  -17.7340 C.2   1234  BLA1234     0.0929
     18  C4B        5.6500   37.8740  -19.1450 C.1   1234  BLA1234     0.2041
     19  CMB        6.8930   35.8770  -16.2960 C.3   1234  BLA1234     0.0342
     20  OB         5.0020   38.8340  -19.5740 O.2   1234  BLA1234    -0.2093
     21  CAB        5.1570   38.4260  -16.6980 C.2   1234  BLA1234     0.0124
     22  CBB        4.4510   39.4830  -16.8800 C.2   1234  BLA1234     0.0008
     23  NC         4.5990   38.0520  -24.7270 N.2   1234  BLA1234    -0.3371
     24  C1C        3.7350   39.0380  -24.3280 C.1   1234  BLA1234     0.2003
     25  C2C        3.7970   40.1770  -25.2930 C.2   1234  BLA1234     0.0749
     26  C3C        4.6740   39.7950  -26.2760 C.2   1234  BLA1234     0.0347
     27  C4C        5.2170   38.4550  -25.8700 C.2   1234  BLA1234     0.1293
     28  CMC        2.9860   41.4030  -25.1190 C.3   1234  BLA1234     0.0448
     29  OC         3.0280   39.0270  -23.3520 O.2   1234  BLA1234    -0.2096
     30  CAC        5.1370   40.5170  -27.4790 C.2   1234  BLA1234     0.0027
     31  CBC        4.7720   41.6400  -27.9400 C.2   1234  BLA1234     0.0001
     32  CHD        6.0820   37.7330  -26.6070 C.3   1234  BLA1234     0.1184
     33  ND         7.1740   36.1760  -25.0100 N.2   1234  BLA1234    -0.4104
     34  C1D        6.9230   36.6360  -26.2270 C.2   1234  BLA1234     0.1115
     35  C2D        7.6470   35.8120  -27.1990 C.2   1234  BLA1234     0.0021
     36  C3D        8.3320   34.8690  -26.4990 C.2   1234  BLA1234     0.0024
     37  C4D        8.0760   35.0690  -25.1140 C.2   1234  BLA1234     0.1114
     38  CMD        7.6400   35.9620  -28.6680 C.3   1234  BLA1234     0.0331
     39  CAD        9.2460   33.7710  -27.0740 C.3   1234  BLA1234     0.0402
     40  CBD       10.6930   34.2220  -27.0250 C.3   1234  BLA1234     0.1188
     41  CGD       11.5730   33.1280  -27.5060 C.2   1234  BLA1234     0.3652
     42  O1D       11.1890   32.4880  -28.5040 O.co2 1234  BLA1234    -0.2456
     43  O2D       12.5510   32.8470  -26.7820 O.co2 1234  BLA1234    -0.2456
@<TRIPOS>BOND
     1    38    35    1
     2    42    41   ar
     3    31    30    2
     4    41    40    1
     5    41    43   ar
     6    30    26    1
     7    35    36    2
     8    35    34    1
     9    39    40    1
    10    39    36    1
    11    32    34    1
    12    32    27    1
    13    36    37    1
    14    26    27    1
    15    26    25    2
    16    34    33    2
    17    27    23    2
    18    25    28    1
    19    25    24    1
    20    37    33    2
    21    37     1    1
    22    23    24    2
    23    24    29    2
    24    12    10   ar
    25     1     3    1
    26    10     9    1
    27    10    11   ar
    28     3     4    1
    29     3     2    2
    30     8     9    1
    31     8     4    1
    32     4     5    2
    33     2     6    2
    34     5     6    1
    35     5     7    1
    36     6    13    1
    37    14    18    2
    38    14    15    2
    39    20    18    2
    40    13    15    1
    41    18    17    1
    42    15    16    1
    43    17    16    2
    44    17    21    1
    45    16    19    1
    46    22    21    2
