@<TRIPOS>MOLECULE
2x9j_BLA_A_1.pdb
 43 46 0 0 0
SMALL
GASTEIGER

@<TRIPOS>ATOM
      1  CHA       -7.3870   10.2450   -2.4600 C.3   1234  BLA1234     0.1170
      2  NA        -7.7870    8.8830   -4.5140 N.2   1234  BLA1234    -0.4104
      3  C1A       -7.2840    9.9590   -3.7900 C.2   1234  BLA1234     0.1114
      4  C2A       -6.6220   10.8430   -4.7060 C.2   1234  BLA1234     0.0024
      5  C3A       -6.7310   10.2760   -5.9470 C.2   1234  BLA1234     0.0021
      6  C4A       -7.4320    9.0360   -5.7980 C.2   1234  BLA1234     0.1114
      7  CMA       -6.1700   10.8210   -7.2320 C.3   1234  BLA1234     0.0331
      8  CAA       -5.8800   12.1720   -4.3880 C.3   1234  BLA1234     0.0402
      9  CBA       -4.3850   11.8450   -4.1030 C.3   1234  BLA1234     0.1188
     10  CGA       -3.5080   13.0560   -3.9890 C.2   1234  BLA1234     0.3652
     11  O1A       -2.9740   13.2830   -2.8700 O.co2 1234  BLA1234    -0.2456
     12  O2A       -3.3160   13.7120   -5.0430 O.co2 1234  BLA1234    -0.2456
     13  CHB       -7.7500    8.1650   -6.9580 C.3   1234  BLA1234     0.1181
     14  NB        -8.4850    6.0520   -5.8180 N.2   1234  BLA1234    -0.3372
     15  C1B       -8.2390    6.8840   -6.9440 C.2   1234  BLA1234     0.1257
     16  C2B       -8.5420    6.0740   -8.1570 C.2   1234  BLA1234     0.0168
     17  C3B       -8.9600    4.8630   -7.7380 C.2   1234  BLA1234     0.0929
     18  C4B       -8.9180    4.8310   -6.2880 C.1   1234  BLA1234     0.2041
     19  CMB       -8.4470    6.5220   -9.5600 C.3   1234  BLA1234     0.0342
     20  OB        -9.2390    3.8020   -5.6670 O.2   1234  BLA1234    -0.2093
     21  CAB       -9.3830    3.7420   -8.5840 C.2   1234  BLA1234     0.0124
     22  CBB       -9.7970    2.5560   -8.2930 C.2   1234  BLA1234     0.0008
     23  NC       -11.0990    6.3230   -1.3960 N.2   1234  BLA1234    -0.3371
     24  C1C      -11.9290    5.2470   -1.6910 C.1   1234  BLA1234     0.2003
     25  C2C      -11.9450    4.3490   -0.5070 C.2   1234  BLA1234     0.0749
     26  C3C      -11.1980    4.9480    0.4670 C.2   1234  BLA1234     0.0347
     27  C4C      -10.5880    6.1700   -0.1550 C.2   1234  BLA1234     0.1293
     28  CMC      -12.7070    3.0730   -0.4680 C.3   1234  BLA1234     0.0448
     29  OC       -12.5410    5.0450   -2.7320 O.2   1234  BLA1234    -0.2096
     30  CAC      -10.8290    4.3340    1.7670 C.2   1234  BLA1234     0.0027
     31  CBC       -9.9630    4.6380    2.6560 C.2   1234  BLA1234     0.0001
     32  CHD       -9.8250    7.0860    0.4870 C.3   1234  BLA1234     0.1184
     33  ND        -8.7080    8.3530   -1.3140 N.2   1234  BLA1234    -0.4104
     34  C1D       -9.0780    8.1870   -0.0500 C.2   1234  BLA1234     0.1115
     35  C2D       -8.7100    9.3830    0.7340 C.2   1234  BLA1234     0.0021
     36  C3D       -8.0460   10.2360   -0.0850 C.2   1234  BLA1234     0.0024
     37  C4D       -8.0150    9.6270   -1.3770 C.2   1234  BLA1234     0.1114
     38  CMD       -8.9860    9.6300    2.1630 C.3   1234  BLA1234     0.0331
     39  CAD       -7.4480   11.6090    0.3110 C.3   1234  BLA1234     0.0402
     40  CBD       -5.9850   11.4120    0.7250 C.3   1234  BLA1234     0.1188
     41  CGD       -5.0320   12.3130   -0.0050 C.2   1234  BLA1234     0.3652
     42  O1D       -3.8480   11.9180   -0.1290 O.co2 1234  BLA1234    -0.2456
     43  O2D       -5.4730   13.4080   -0.4270 O.co2 1234  BLA1234    -0.2456
@<TRIPOS>BOND
     1    19    16    1
     2    21    22    2
     3    21    17    1
     4    16    17    2
     5    16    15    1
     6    17    18    1
     7     7     5    1
     8    13    15    1
     9    13     6    1
    10    15    14    2
    11    18    14    2
    12    18    20    2
    13     5     6    1
    14     5     4    2
    15     6     2    2
    16    12    10   ar
    17     4     8    1
    18     4     3    1
    19     2     3    2
    20     8     9    1
    21     9    10    1
    22    10    11   ar
    23     3     1    1
    24    29    24    2
    25     1    37    1
    26    24    23    2
    27    24    25    1
    28    23    27    2
    29    37    33    2
    30    37    36    1
    31    33    34    2
    32    25    28    1
    33    25    26    2
    34    43    41   ar
    35    27    26    1
    36    27    32    1
    37    42    41   ar
    38    36    39    1
    39    36    35    2
    40    34    32    1
    41    34    35    1
    42    41    40    1
    43    39    40    1
    44    26    30    1
    45    35    38    1
    46    30    31    2
