@<TRIPOS>MOLECULE
2x9l_BOG_A_1.pdb
 20 20 0 0 0
SMALL
GASTEIGER

@<TRIPOS>ATOM
      1  C1        -3.1630   34.6970   45.3310 C.3   4001  BOG4001     0.3562
      2  O1        -3.8910   33.6020   45.8020 O.3   4001  BOG4001    -0.3142
      3  C2        -1.7660   34.4400   44.7510 C.2   4001  BOG4001     0.2846
      4  O2        -0.9480   33.5270   45.4090 O.2   4001  BOG4001    -0.2812
      5  C3        -1.0810   35.6150   44.0380 C.2   4001  BOG4001     0.2776
      6  O3         0.0620   35.3660   43.3240 O.2   4001  BOG4001    -0.2797
      7  C4        -1.9630   36.7850   43.5640 C.2   4001  BOG4001     0.2694
      8  O4        -1.3040   37.9420   43.1650 O.2   4001  BOG4001    -0.2800
      9  C5        -3.3620   36.9280   44.1930 C.2   4001  BOG4001     0.1944
     10  O5        -3.9430   35.7900   44.8490 O.2   4001  BOG4001    -0.4452
     11  C6        -4.3440   37.8530   43.5330 C.3   4001  BOG4001     0.2488
     12  O6        -4.8290   37.2870   42.3710 O.3   4001  BOG4001    -0.2115
     13  C1'       -5.0410   33.8400   46.5450 C.3   4001  BOG4001     0.1510
     14  C2'       -5.7760   32.6160   47.0370 C.3   4001  BOG4001     0.0579
     15  C3'       -7.0840   32.2590   46.3840 C.2   4001  BOG4001    -0.0281
     16  C4'       -8.3000   33.0860   46.7440 C.2   4001  BOG4001    -0.0306
     17  C5'       -9.5430   32.9660   45.8800 C.3   4001  BOG4001     0.0257
     18  C6'      -10.2130   34.2390   45.4260 C.3   4001  BOG4001     0.0047
     19  C7'       -9.7900   34.8310   44.1070 C.3   4001  BOG4001     0.0003
     20  C8'       -8.5480   35.6700   44.0540 C.3   4001  BOG4001     0.0000
@<TRIPOS>BOND
     1    12    11    1
     2     8     7    1
     3     6     5    1
     4    11     9    1
     5     7     5    1
     6     7     9    2
     7     5     3    2
     8    20    19    1
     9    19    18    1
    10     9    10    1
    11     3     1    1
    12     3     4    1
    13    10     1    1
    14     1     2    1
    15    18    17    1
    16     2    13    1
    17    17    16    1
    18    15    16    2
    19    15    14    1
    20    13    14    1
