@<TRIPOS>MOLECULE
2x9n_NAP_A_1.pdb
 48 52 0 0 0
SMALL
GASTEIGER

@<TRIPOS>ATOM
      1  PA        18.4040   11.3600   73.0290 P.3   1269  NAP1269     0.2189
      2  O1A       18.7410   12.3280   71.9680 O.2   1269  NAP1269    -0.5170
      3  O2A       17.8510   11.9050   74.2840 O.3   1269  NAP1269    -0.4371
      4  O5B       17.3340   10.2250   72.6140 O.3   1269  NAP1269    -0.3112
      5  C5B       17.6890    9.3360   71.5410 C.3   1269  NAP1269     0.1813
      6  C4B       16.4280    8.9020   70.8770 C.3   1269  NAP1269     0.1820
      7  O4B       15.6100    8.1090   71.7770 O.3   1269  NAP1269    -0.3136
      8  C3B       15.5100    9.9460   70.3320 C.3   1269  NAP1269     0.2157
      9  O3B       15.9510   10.6280   69.1960 O.3   1269  NAP1269    -0.2175
     10  C2B       14.1700    9.2500   70.2720 C.3   1269  NAP1269     0.2314
     11  O2B       13.8200    8.8120   68.9520 O.3   1269  NAP1269    -0.2630
     12  C1B       14.3480    7.9880   71.0850 C.3   1269  NAP1269     0.3158
     13  N9A       13.3000    7.8190   72.1210 N.pl3 1269  NAP1269    -0.1439
     14  C8A       12.9730    8.6450   73.1280 C.3   1269  NAP1269     0.3377
     15  N7A       11.7970    8.3120   73.6630 N.2   1269  NAP1269    -0.2095
     16  C5A       11.3670    7.2200   72.9770 C.2   1269  NAP1269     0.2526
     17  C6A       10.2130    6.4680   73.0190 C.2   1269  NAP1269     0.4393
     18  N6A        9.1850    6.7140   73.8320 N.pl3 1269  NAP1269     0.2180
     19  N1A       10.1340    5.4210   72.1780 N.2   1269  NAP1269     0.0021
     20  C2A       11.1440    5.1640   71.3580 C.3   1269  NAP1269     0.5254
     21  N3A       12.2420    5.8570   71.2110 N.2   1269  NAP1269    -0.0055
     22  C4A       12.3390    6.8970   72.0290 C.2   1269  NAP1269     0.3518
     23  O3        19.7000   10.4720   73.3170 O.3   1269  NAP1269    -0.2703
     24  PN        21.2550   10.8980   73.1880 P.3   1269  NAP1269     0.2189
     25  O1N       21.5140   12.1480   73.8960 O.3   1269  NAP1269    -0.4371
     26  O2N       21.6660   10.7800   71.7810 O.2   1269  NAP1269    -0.5170
     27  O5D       21.8920    9.7260   74.0700 O.3   1269  NAP1269    -0.3112
     28  C5D       22.0210    8.3960   73.5460 C.3   1269  NAP1269     0.1813
     29  C4D       22.1200    7.4150   74.6850 C.3   1269  NAP1269     0.1799
     30  O4D       23.2750    7.7790   75.5000 O.3   1269  NAP1269    -0.3327
     31  C3D       20.9330    7.4210   75.6240 C.3   1269  NAP1269     0.2158
     32  O3D       20.6590    6.1180   76.1140 O.3   1269  NAP1269    -0.2175
     33  C2D       21.3690    8.3090   76.7530 C.3   1269  NAP1269     0.2309
     34  O2D       20.7290    8.0620   77.9930 O.3   1269  NAP1269    -0.2158
     35  C1D       22.8730    7.9790   76.8240 C.3   1269  NAP1269     0.2263
     36  N1N       23.5980    9.1470   77.3930 N.pl3 1269  NAP1269    -0.2787
     37  C2N       23.7080   10.3330   76.7130 C.3   1269  NAP1269     0.1244
     38  C3N       24.3110   11.4130   77.3010 C.2   1269  NAP1269     0.0544
     39  C7N       24.5070   12.7210   76.5690 C.2   1269  NAP1269     0.2818
     40  O7N       25.2930   13.5420   77.0480 O.2   1269  NAP1269    -0.2670
     41  N7N       23.8170   12.9690   75.4470 N.am  1269  NAP1269    -0.0839
     42  C4N       24.8350   11.3190   78.6110 C.2   1269  NAP1269     0.0033
     43  C5N       24.6930   10.1080   79.2570 C.2   1269  NAP1269     0.0157
     44  C6N       24.0920    9.0120   78.6870 C.2   1269  NAP1269     0.0633
     45  P2B       12.9940    9.7690   67.9370 P.3   1269  NAP1269     0.5328
     46  O1X       13.8170   11.0140   67.7930 O.3   1269  NAP1269    -0.1145
     47  O2X       11.6560   10.0440   68.5700 O.3   1269  NAP1269    -0.1145
     48  O3X       12.8860    8.9780   66.6630 O.2   1269  NAP1269    -0.2224
@<TRIPOS>BOND
     1    48    45    2
     2    46    45    1
     3    45    47    1
     4    45    11    1
     5    11    10    1
     6     9     8    1
     7    10     8    1
     8    10    12    1
     9     8     6    1
    10     6     5    1
    11     6     7    1
    12    12     7    1
    13    12    13    1
    14    21    20    1
    15    21    22    2
    16    20    19    1
    17     5     4    1
    18    26    24    2
    19     2     1    2
    20    22    13    1
    21    22    16    1
    22    13    14    1
    23    19    17    2
    24     4     1    1
    25    16    17    1
    26    16    15    2
    27    17    18    1
    28     1    23    1
    29     1     3    1
    30    14    15    1
    31    24    23    1
    32    24    25    1
    33    24    27    1
    34    28    27    1
    35    28    29    1
    36    29    30    1
    37    29    31    1
    38    41    39   am
    39    30    35    1
    40    31    32    1
    41    31    33    1
    42    39    40    2
    43    39    38    1
    44    37    38    1
    45    37    36    1
    46    33    35    1
    47    33    34    1
    48    35    36    1
    49    38    42    2
    50    36    44    1
    51    42    43    1
    52    44    43    2
