@<TRIPOS>MOLECULE
2x9n_AX3_A_1.pdb
 12 13 0 0 0
SMALL
GASTEIGER

@<TRIPOS>ATOM
      1  CAC       20.6710   16.4940   77.4070 C.3   1270  AX31270     0.0243
      2  CAD       20.9820   16.5540   75.9230 C.3   1270  AX31270     0.0243
      3  CAL       21.1920   15.2430   76.7010 C.3   1270  AX31270     0.1058
      4  NAH       20.2700   14.2280   76.3100 N.pl3 1270  AX31270    -0.1524
      5  CAK       20.2050   13.0670   76.9640 C.1   1270  AX31270     0.2420
      6  NAG       20.9900   12.8410   78.0280 N.2   1270  AX31270    -0.2426
      7  NAF       19.3100   12.1790   76.5290 N.2   1270  AX31270    -0.2426
      8  CAI       19.1660   10.9810   77.1850 C.1   1270  AX31270     0.2632
      9  NAA       18.2950   10.1020   76.7250 N.pl3 1270  AX31270    -0.0220
     10  NAE       19.9090   10.7050   78.2520 N.2   1270  AX31270    -0.2413
     11  CAJ       20.7980   11.6300   78.6440 C.1   1270  AX31270     0.2632
     12  NAB       21.5090   11.3570   79.7050 N.pl3 1270  AX31270    -0.0220
@<TRIPOS>BOND
     1     2     3    1
     2     2     1    1
     3     4     3    1
     4     4     5    1
     5     7     5    2
     6     7     8    2
     7     3     1    1
     8     9     8    1
     9     5     6    2
    10     8    10    2
    11     6    11    2
    12    10    11    2
    13    11    12    1
