@<TRIPOS>MOLECULE
2x9o_BLA_A_1.pdb
 43 46 0 0 0
SMALL
GASTEIGER

@<TRIPOS>ATOM
      1  CHA       10.5830   27.1600   46.3400 C.3   1234  BLA1234     0.1170
      2  NA         8.9680   25.5480   45.3160 N.2   1234  BLA1234    -0.4104
      3  C1A        9.7620   26.6900   45.3450 C.2   1234  BLA1234     0.1114
      4  C2A        9.6140   27.3500   44.1150 C.2   1234  BLA1234     0.0024
      5  C3A        8.7450   26.5900   43.3510 C.2   1234  BLA1234     0.0021
      6  C4A        8.3080   25.4920   44.1600 C.2   1234  BLA1234     0.1114
      7  CMA        8.2700   26.9160   41.9760 C.3   1234  BLA1234     0.0331
      8  CAA       10.3340   28.6620   43.7060 C.3   1234  BLA1234     0.0402
      9  CBA       11.7160   28.3420   43.0920 C.3   1234  BLA1234     0.1188
     10  CGA       12.7850   29.2780   43.5630 C.2   1234  BLA1234     0.3652
     11  O1A       12.8000   29.5670   44.7810 O.co2 1234  BLA1234    -0.2456
     12  O2A       13.6050   29.6780   42.7060 O.co2 1234  BLA1234    -0.2456
     13  CHB        7.4060   24.4010   43.7200 C.3   1234  BLA1234     0.1181
     14  NB         6.3330   23.8150   45.8530 N.2   1234  BLA1234    -0.3372
     15  C1B        6.6760   23.5650   44.5160 C.2   1234  BLA1234     0.1257
     16  C2B        5.9470   22.3160   44.1220 C.2   1234  BLA1234     0.0168
     17  C3B        5.2750   21.8730   45.2170 C.2   1234  BLA1234     0.0929
     18  C4B        5.5170   22.8040   46.2940 C.1   1234  BLA1234     0.2041
     19  CMB        5.9940   21.6780   42.8060 C.3   1234  BLA1234     0.0342
     20  OB         5.0340   22.6950   47.4300 O.2   1234  BLA1234    -0.2093
     21  CAB        4.4630   20.6570   45.3800 C.2   1234  BLA1234     0.0124
     22  CBB        4.1850   19.7210   44.5600 C.2   1234  BLA1234     0.0008
     23  NC         8.7420   23.8930   49.8490 N.2   1234  BLA1234    -0.3371
     24  C1C        7.8190   22.9340   50.1890 C.1   1234  BLA1234     0.2003
     25  C2C        8.4520   22.0150   51.1730 C.2   1234  BLA1234     0.0749
     26  C3C        9.7040   22.4740   51.4170 C.2   1234  BLA1234     0.0347
     27  C4C        9.8990   23.6600   50.5160 C.2   1234  BLA1234     0.1293
     28  CMC        7.7930   20.8360   51.7770 C.3   1234  BLA1234     0.0448
     29  OC         6.6900   22.8310   49.7640 O.2   1234  BLA1234    -0.2096
     30  CAC       10.6870   21.8210   52.3100 C.2   1234  BLA1234     0.0027
     31  CBC       11.9140   22.0970   52.5290 C.2   1234  BLA1234     0.0001
     32  CHD       10.9740   24.4670   50.4480 C.3   1234  BLA1234     0.1184
     33  ND        10.5300   25.5070   48.2800 N.2   1234  BLA1234    -0.4104
     34  C1D       11.1460   25.4600   49.4530 C.2   1234  BLA1234     0.1115
     35  C2D       11.9360   26.6790   49.6360 C.2   1234  BLA1234     0.0021
     36  C3D       11.8080   27.4030   48.4770 C.2   1234  BLA1234     0.0024
     37  C4D       10.9350   26.6990   47.6060 C.2   1234  BLA1234     0.1114
     38  CMD       12.7430   27.0370   50.8230 C.3   1234  BLA1234     0.0331
     39  CAD       12.4500   28.7690   48.1530 C.3   1234  BLA1234     0.0402
     40  CBD       11.3560   29.8350   48.2680 C.3   1234  BLA1234     0.1188
     41  CGD       11.8700   31.1180   48.8270 C.2   1234  BLA1234     0.3652
     42  O1D       11.3910   31.5200   49.9190 O.co2 1234  BLA1234    -0.2456
     43  O2D       12.6950   31.7330   48.1210 O.co2 1234  BLA1234    -0.2456
@<TRIPOS>BOND
     1     7     5    1
     2    12    10   ar
     3    19    16    1
     4     9    10    1
     5     9     8    1
     6     5     4    2
     7     5     6    1
     8    10    11   ar
     9     8     4    1
    10    13     6    1
    11    13    15    1
    12     4     3    1
    13    16    15    1
    14    16    17    2
    15     6     2    2
    16    15    14    2
    17    22    21    2
    18    17    21    1
    19    17    18    1
    20     2     3    2
    21     3     1    1
    22    14    18    2
    23    18    20    2
    24     1    37    1
    25    37    33    2
    26    37    36    1
    27    43    41   ar
    28    39    40    1
    29    39    36    1
    30    40    41    1
    31    33    34    2
    32    36    35    2
    33    41    42   ar
    34    34    35    1
    35    34    32    1
    36    35    38    1
    37    29    24    2
    38    23    24    2
    39    23    27    2
    40    24    25    1
    41    32    27    1
    42    27    26    1
    43    25    26    2
    44    25    28    1
    45    26    30    1
    46    30    31    2
