@<TRIPOS>MOLECULE
2x9p_HEM_A_1.pdb
 43 50 0 0 0
SMALL
GASTEIGER

@<TRIPOS>ATOM
      1  CHA      -22.0340  -48.8230    1.1370 C.2   1398  HEM1398     0.0000
      2  CHB      -20.7160  -44.2310    1.6330 C.2   1398  HEM1398     0.0000
      3  CHC      -21.2490  -44.7330    6.4330 C.2   1398  HEM1398     0.0000
      4  CHD      -23.0480  -49.1130    5.8860 C.2   1398  HEM1398     0.0000
      5  C1A      -21.6200  -47.5540    0.8840 C.ar  1398  HEM1398     0.0000
      6  C2A      -21.3140  -47.0260   -0.4440 C.ar  1398  HEM1398     0.0000
      7  C3A      -20.9110  -45.7540   -0.3090 C.ar  1398  HEM1398     0.0000
      8  C4A      -21.0370  -45.4340    1.0920 C.ar  1398  HEM1398     0.0000
      9  CMA      -20.4530  -44.7350   -1.3670 C.3   1398  HEM1398     0.0000
     10  CAA      -21.2710  -47.9030   -1.7110 C.3   1398  HEM1398     0.0000
     11  CBA      -19.7920  -48.3390   -1.5690 C.3   1398  HEM1398     0.0000
     12  CGA      -19.2550  -49.2640   -2.6660 C.2   1398  HEM1398     0.0000
     13  O1A      -18.0130  -49.2200   -2.9010 O.co2 1398  HEM1398     0.0000
     14  O2A      -20.0090  -50.0440   -3.3140 O.co2 1398  HEM1398     0.0000
     15  C1B      -20.7510  -43.9880    3.0090 C.2   1398  HEM1398     0.0000
     16  C2B      -20.4530  -42.7010    3.5980 C.2   1398  HEM1398     0.0000
     17  C3B      -20.6020  -42.8180    4.8980 C.2   1398  HEM1398     0.0000
     18  C4B      -20.9900  -44.2020    5.1840 C.2   1398  HEM1398     0.0000
     19  CMB      -20.0520  -41.3990    2.9050 C.3   1398  HEM1398     0.0000
     20  CAB      -20.4360  -41.5440    5.7620 C.2   1398  HEM1398     0.0000
     21  CBB      -19.9150  -41.6460    6.8550 C.2   1398  HEM1398     0.0000
     22  C1C      -21.8250  -45.9320    6.7420 C.ar  1398  HEM1398     0.0000
     23  C2C      -22.2910  -46.3800    8.0640 C.ar  1398  HEM1398     0.0000
     24  C3C      -22.7410  -47.6090    7.8860 C.ar  1398  HEM1398     0.0000
     25  C4C      -22.6250  -47.9410    6.4680 C.ar  1398  HEM1398     0.0000
     26  CMC      -22.2000  -45.5680    9.3920 C.3   1398  HEM1398     0.0000
     27  CAC      -23.3930  -48.5860    8.8840 C.2   1398  HEM1398     0.0000
     28  CBC      -22.8760  -48.7610   10.1080 C.2   1398  HEM1398     0.0000
     29  C1D      -22.9500  -49.4060    4.5550 C.2   1398  HEM1398     0.0000
     30  C2D      -23.2870  -50.7040    4.0100 C.2   1398  HEM1398     0.0000
     31  C3D      -22.9670  -50.6540    2.5460 C.2   1398  HEM1398     0.0000
     32  C4D      -22.4340  -49.3110    2.3540 C.2   1398  HEM1398     0.0000
     33  CMD      -23.8430  -51.9150    4.7490 C.3   1398  HEM1398     0.0000
     34  CAD      -23.1500  -51.8620    1.5700 C.3   1398  HEM1398     0.0000
     35  CBD      -24.3620  -51.6450    0.6530 C.3   1398  HEM1398     0.0000
     36  CGD      -24.2010  -52.3470   -0.6990 C.2   1398  HEM1398     0.0000
     37  O1D      -25.1950  -52.6290   -1.3910 O.co2 1398  HEM1398     0.0000
     38  O2D      -23.0620  -52.6480   -1.1240 O.co2 1398  HEM1398     0.0000
     39  NA       -21.4720  -46.5440    1.7980 N.ar  1398  HEM1398     0.0000
     40  NB       -21.1000  -44.8810    4.0030 N.2   1398  HEM1398     0.0000
     41  NC       -22.0550  -46.9160    5.8130 N.ar  1398  HEM1398     0.0000
     42  ND       -22.4480  -48.5950    3.5550 N.2   1398  HEM1398     0.0000
     43 FE        -21.9290  -46.7100    3.8010 Fe    1398  HEM1398     0.0000
@<TRIPOS>BOND
     1    14    12   ar
     2    13    12   ar
     3    12    11    1
     4    10    11    1
     5    10     6    1
     6    37    36   ar
     7     9     7    1
     8    38    36   ar
     9    36    35    1
    10     6     7   ar
    11     6     5   ar
    12     7     8   ar
    13    35    34    1
    14     5     1    2
    15     5    39   ar
    16     8     2    2
    17     8    39   ar
    18     1    32    1
    19    34    31    1
    20     2    15    1
    21    39    43    1
    22    32    31    1
    23    32    42    2
    24    31    30    2
    25    19    16    1
    26    15    16    1
    27    15    40    2
    28    42    43    1
    29    42    29    1
    30    16    17    2
    31    43    40    1
    32    43    41    1
    33    40    18    1
    34    30    29    1
    35    30    33    1
    36    29     4    2
    37    17    18    1
    38    17    20    1
    39    18     3    2
    40    20    21    2
    41    41    25   ar
    42    41    22   ar
    43     4    25    1
    44     3    22    1
    45    25    24   ar
    46    22    23   ar
    47    24    23   ar
    48    24    27    1
    49    23    26    1
    50    27    28    2
