@<TRIPOS>MOLECULE
2x9v_TMQ_A_1.pdb
 27 29 0 0 0
SMALL
GASTEIGER

@<TRIPOS>ATOM
      1  N1        10.6320  -10.4170   14.2670 N.2   1270  TMQ1270    -0.3298
      2  C2        10.4170   -9.2110   14.8130 C.1   1270  TMQ1270     0.2424
      3  N3         9.2100   -8.8380   15.2790 N.2   1270  TMQ1270    -0.3073
      4  C4         8.1750   -9.7100   15.2760 C.2   1270  TMQ1270     0.2346
      5  C3A        9.6060  -11.3080   14.2000 C.2   1270  TMQ1270     0.1305
      6  C4A        8.3210  -11.0010   14.7070 C.2   1270  TMQ1270     0.0704
      7  C5         7.3000  -11.9870   14.6130 C.2   1270  TMQ1270    -0.0184
      8  C6         7.5880  -13.2280   14.0280 C.2   1270  TMQ1270    -0.0083
      9  C7         8.8630  -13.4870   13.5240 C.2   1270  TMQ1270    -0.0215
     10  C8         9.8690  -12.5380   13.6050 C.3   1270  TMQ1270     0.0858
     11  C9         6.5420  -14.3220   13.8790 C.3   1270  TMQ1270     0.1379
     12  N10        5.9740  -14.8000   15.1340 N.pl3 1270  TMQ1270    -0.2326
     13  C11        6.6550  -15.3790   16.1630 C.ar  1270  TMQ1270     0.0719
     14  C12        8.0130  -15.6760   16.0990 C.ar  1270  TMQ1270     0.0563
     15  C13        8.6450  -16.2600   17.2070 C.ar  1270  TMQ1270     0.1767
     16  C14        7.8670  -16.5340   18.4290 C.ar  1270  TMQ1270     0.2061
     17  C15        6.5290  -16.2340   18.4600 C.ar  1270  TMQ1270     0.1767
     18  C16        5.9330  -15.6690   17.3360 C.ar  1270  TMQ1270     0.0563
     19  C17        5.8900  -11.7860   15.1180 C.3   1270  TMQ1270     0.0309
     20  O18        9.9750  -16.5790   17.2080 O.3   1270  TMQ1270    -0.4682
     21  O19        8.4750  -17.1020   19.5130 O.3   1270  TMQ1270    -0.4654
     22  O20        5.8390  -16.5200   19.6160 O.3   1270  TMQ1270    -0.4682
     23  C21       10.9280  -15.5250   17.2690 C.3   1270  TMQ1270     0.2526
     24  C22        8.4330  -18.5250   19.6320 C.3   1270  TMQ1270     0.2528
     25  C23        4.5460  -15.9850   19.8820 C.3   1270  TMQ1270     0.2526
     26  N24       11.4470   -8.3580   14.8560 N.pl3 1270  TMQ1270    -0.0232
     27  N25        7.0450   -9.2570   15.8290 N.pl3 1270  TMQ1270    -0.0921
@<TRIPOS>BOND
     1     9    10    1
     2     9     8    2
     3    10     5    1
     4    11     8    1
     5    11    12    1
     6     8     7    1
     7     5     1    2
     8     5     6    1
     9     1     2    2
    10     7     6    2
    11     7    19    1
    12     6     4    1
    13     2    26    1
    14     2     3    2
    15    12    13    1
    16     4     3    2
    17     4    27    1
    18    14    13   ar
    19    14    15   ar
    20    13    18   ar
    21    15    20    1
    22    15    16   ar
    23    20    23    1
    24    18    17   ar
    25    16    17   ar
    26    16    21    1
    27    17    22    1
    28    21    24    1
    29    22    25    1
