@<TRIPOS>MOLECULE
2x9v_NAP_A_1.pdb
 48 52 0 0 0
SMALL
GASTEIGER

@<TRIPOS>ATOM
      1  PA        13.7070   -9.9100   12.0910 P.3   1269  NAP1269     0.2189
      2  O1A       14.1720  -10.9330   11.1320 O.2   1269  NAP1269    -0.5170
      3  O2A       13.2980  -10.3480   13.4310 O.3   1269  NAP1269    -0.4371
      4  O5B       14.8020   -8.8010   12.3890 O.3   1269  NAP1269    -0.3112
      5  C5B       15.2460   -7.9830   11.3120 C.3   1269  NAP1269     0.1813
      6  C4B       16.6810   -7.5330   11.4930 C.3   1269  NAP1269     0.1820
      7  O4B       16.7570   -6.7510   12.7090 O.3   1269  NAP1269    -0.3136
      8  C3B       17.6810   -8.6330   11.7490 C.3   1269  NAP1269     0.2157
      9  O3B       18.1090   -9.2160   10.5020 O.3   1269  NAP1269    -0.2175
     10  C2B       18.7790   -7.9110   12.5370 C.3   1269  NAP1269     0.2314
     11  O2B       19.9230   -7.6370   11.7130 O.3   1269  NAP1269    -0.2630
     12  C1B       18.0960   -6.5460   12.9360 C.3   1269  NAP1269     0.3158
     13  N9A       18.4070   -6.2970   14.3550 N.pl3 1269  NAP1269    -0.1439
     14  C8A       18.0640   -7.0300   15.4310 C.3   1269  NAP1269     0.3377
     15  N7A       18.6670   -6.5520   16.5250 N.2   1269  NAP1269    -0.2095
     16  C5A       19.4460   -5.5200   16.1300 C.2   1269  NAP1269     0.2526
     17  C6A       20.3310   -4.6640   16.8010 C.2   1269  NAP1269     0.4393
     18  N6A       20.6020   -4.7680   18.1150 N.pl3 1269  NAP1269     0.2180
     19  N1A       20.9570   -3.7290   16.0620 N.2   1269  NAP1269     0.0021
     20  C2A       20.7350   -3.6160   14.7370 C.3   1269  NAP1269     0.5254
     21  N3A       19.9200   -4.4160   14.0610 N.2   1269  NAP1269    -0.0055
     22  C4A       19.2800   -5.3680   14.7510 C.2   1269  NAP1269     0.3518
     23  O3        12.5530   -9.0030   11.4150 O.3   1269  NAP1269    -0.2703
     24  PN        11.4260   -9.4940   10.3760 P.3   1269  NAP1269     0.2189
     25  O1N       11.9680   -9.4910    8.9950 O.2   1269  NAP1269    -0.5170
     26  O2N       10.7760  -10.7110   10.9020 O.3   1269  NAP1269    -0.4371
     27  O5D       10.3970   -8.2930   10.5600 O.3   1269  NAP1269    -0.3112
     28  C5D       10.6600   -7.0110    9.9380 C.3   1269  NAP1269     0.1813
     29  C4D        9.9390   -5.9130   10.7150 C.3   1269  NAP1269     0.1799
     30  O4D        8.5120   -6.2170   10.6720 O.3   1269  NAP1269    -0.3327
     31  C3D       10.3160   -5.7880   12.1990 C.3   1269  NAP1269     0.2158
     32  O3D       10.2600   -4.4270   12.6240 O.3   1269  NAP1269    -0.2175
     33  C2D        9.2340   -6.5960   12.8740 C.3   1269  NAP1269     0.2309
     34  O2D        9.0040   -6.1770   14.2140 O.3   1269  NAP1269    -0.2158
     35  C1D        8.0150   -6.3090   11.9850 C.3   1269  NAP1269     0.2263
     36  N1N        7.0430   -7.4030   12.1180 N.pl3 1269  NAP1269    -0.2787
     37  C2N        7.3350   -8.6530   11.6240 C.3   1269  NAP1269     0.1244
     38  C3N        6.4440   -9.6810   11.8210 C.2   1269  NAP1269     0.0544
     39  C7N        6.7100  -11.0510   11.2700 C.2   1269  NAP1269     0.2818
     40  O7N        5.7320  -11.9120   11.3330 O.2   1269  NAP1269    -0.2670
     41  N7N        7.9190  -11.3730   10.8120 N.am  1269  NAP1269    -0.0839
     42  C4N        5.2410   -9.4520   12.4820 C.2   1269  NAP1269     0.0033
     43  C5N        4.9590   -8.1940   13.0200 C.2   1269  NAP1269     0.0157
     44  C6N        5.8790   -7.1650   12.8310 C.2   1269  NAP1269     0.0633
     45  P2B       21.1580   -8.6600   11.5070 P.3   1269  NAP1269     0.5328
     46  O1X       20.5040   -9.9810   10.9770 O.3   1269  NAP1269    -0.1145
     47  O2X       21.8300   -8.8650   12.8900 O.3   1269  NAP1269    -0.1145
     48  O3X       22.0690   -7.9900   10.5460 O.2   1269  NAP1269    -0.2224
@<TRIPOS>BOND
     1    25    24    2
     2    28    27    1
     3    28    29    1
     4    24    27    1
     5    24    26    1
     6    24    23    1
     7     9     8    1
     8    48    45    2
     9    30    29    1
    10    30    35    1
    11    29    31    1
    12    41    39   am
    13    46    45    1
    14     2     1    2
    15    39    40    2
    16    39    38    1
    17     5     6    1
    18     5     4    1
    19    23     1    1
    20     6     8    1
    21     6     7    1
    22    45    11    1
    23    45    47    1
    24    37    38    1
    25    37    36    1
    26    11    10    1
    27     8    10    1
    28    38    42    2
    29    35    36    1
    30    35    33    1
    31     1     4    1
    32     1     3    1
    33    36    44    1
    34    31    32    1
    35    31    33    1
    36    42    43    1
    37    10    12    1
    38     7    12    1
    39    44    43    2
    40    33    34    1
    41    12    13    1
    42    21    20    1
    43    21    22    2
    44    13    22    1
    45    13    14    1
    46    20    19    1
    47    22    16    1
    48    14    15    1
    49    19    17    2
    50    16    15    2
    51    16    17    1
    52    17    18    1
