@<TRIPOS>MOLECULE
2xa2_UPG_A_1.pdb
 36 38 0 0 0
SMALL
GASTEIGER

@<TRIPOS>ATOM
      1  N1        35.6770    2.8370  105.6690 N.am  1415  UPG1415    -0.1766
      2  C2        37.0030    3.0310  105.2680 C.1   1415  UPG1415     0.2845
      3  N3        37.5670    2.1730  104.3660 N.2   1415  UPG1415    -0.2452
      4  C4        36.8550    1.1210  103.8450 C.1   1415  UPG1415     0.2182
      5  C5        35.5030    0.9070  104.2410 C.2   1415  UPG1415     0.1242
      6  C6        34.9450    1.7640  105.1390 C.2   1415  UPG1415     0.0929
      7  O2        37.6830    3.9550  105.7060 O.2   1415  UPG1415    -0.1918
      8  O4        37.3700    0.3680  103.0480 O.2   1415  UPG1415    -0.2085
      9  C1C       35.0050    3.7430  106.6610 C.3   1415  UPG1415     0.2401
     10  C2C       35.0300    5.2440  106.2400 C.3   1415  UPG1415     0.2319
     11  O2C       35.6990    6.0310  107.2210 O.3   1415  UPG1415    -0.2157
     12  C3C       33.5540    5.6610  106.0520 C.3   1415  UPG1415     0.2158
     13  C4C       32.7210    4.4510  106.4450 C.3   1415  UPG1415     0.1799
     14  O4C       33.5960    3.3810  106.8560 O.3   1415  UPG1415    -0.3320
     15  O3C       33.2170    6.7580  106.9130 O.3   1415  UPG1415    -0.2175
     16  C5C       31.8610    4.0270  105.2430 C.3   1415  UPG1415     0.1813
     17  O5C       31.0490    2.8900  105.6060 O.3   1415  UPG1415    -0.3112
     18  PA        30.0740    2.3550  104.3800 P.3   1415  UPG1415     0.2189
     19  O1A       29.4340    3.6880  104.4540 O.3   1415  UPG1415    -0.4371
     20  O2A       31.4490    2.0640  103.5760 O.2   1415  UPG1415    -0.5170
     21  O3A       29.6480    1.3010  105.5390 O.3   1415  UPG1415    -0.2703
     22  PB        28.5240    0.2730  105.0040 P.3   1415  UPG1415     0.2208
     23  O1B       29.0710   -0.5570  103.8910 O.2   1415  UPG1415    -0.5170
     24  O2B       27.2310    1.0930  104.4970 O.3   1415  UPG1415    -0.4371
     25  O3B       28.1730   -0.6690  106.2770 O.3   1415  UPG1415    -0.2857
     26  C1'       27.1540   -1.6390  105.9570 C.3   1415  UPG1415     0.2742
     27  C2'       25.8100   -1.2200  106.6330 C.3   1415  UPG1415     0.2409
     28  C3'       26.0500   -1.1150  108.1530 C.3   1415  UPG1415     0.2198
     29  C4'       26.5070   -2.4980  108.6560 C.3   1415  UPG1415     0.2144
     30  C5'       27.8130   -2.8900  107.9170 C.3   1415  UPG1415     0.1835
     31  C6'       28.2600   -4.2710  108.4090 C.3   1415  UPG1415     0.2142
     32  O2'       25.3840    0.0540  106.1470 O.3   1415  UPG1415    -0.2149
     33  O3'       24.8330   -0.7310  108.8090 O.3   1415  UPG1415    -0.2174
     34  O4'       26.7510   -2.4350  110.0690 O.3   1415  UPG1415    -0.2176
     35  O5'       27.5730   -2.9460  106.4650 O.3   1415  UPG1415    -0.3254
     36  O6'       29.4620   -4.6570  107.7450 O.3   1415  UPG1415    -0.2176
@<TRIPOS>BOND
     1     8     4    2
     2    20    18    2
     3     4     5    1
     4     4     3    2
     5    23    22    2
     6     5     6    2
     7     3     2    2
     8    18    19    1
     9    18    21    1
    10    18    17    1
    11    24    22    1
    12    22    21    1
    13    22    25    1
    14     6     1    1
    15    16    17    1
    16    16    13    1
    17     2     1   am
    18     2     7    2
    19     1     9    1
    20    26    25    1
    21    26    35    1
    22    26    27    1
    23    12    10    1
    24    12    13    1
    25    12    15    1
    26    32    27    1
    27    10     9    1
    28    10    11    1
    29    13    14    1
    30    35    30    1
    31    27    28    1
    32     9    14    1
    33    36    31    1
    34    30    31    1
    35    30    29    1
    36    28    29    1
    37    28    33    1
    38    29    34    1
