@<TRIPOS>MOLECULE
2xa4_AZ5_A_1.pdb
 24 26 0 0 0
SMALL
GASTEIGER

@<TRIPOS>ATOM
      1  C3         1.8180    1.9460   25.4890 C.3   2131  AZ52131     0.1690
      2  C19        2.3420    5.1100   22.8470 C.2   2131  AZ52131     0.1364
      3  C21        0.8220    6.6900   23.6600 C.3   2131  AZ52131     0.1937
      4  C10       -3.0780    3.5620   27.1820 C.2   2131  AZ52131     0.1295
      5  C20        2.1150    6.3800   23.3160 C.2   2131  AZ52131     0.1627
      6  C9        -1.9200    2.8850   27.7000 C.2   2131  AZ52131     0.1507
      7  C2         3.1070    1.4660   25.3920 C.2   2131  AZ52131     0.0959
      8  C4         1.4420    1.7330   26.8460 C.2   2131  AZ52131     0.3772
      9  C8        -0.8670    2.6630   26.9040 C.2   2131  AZ52131     0.3375
     10  C17        0.1550    4.6260   23.0760 C.1   2131  AZ52131     0.0281
     11  C12       -1.9870    3.6020   25.1610 C.1   2131  AZ52131     0.1696
     12  C1         4.0530    1.3900   24.2700 C.3   2131  AZ52131     0.0520
     13  C16       -1.4570    3.7420   21.5140 C.3   2131  AZ52131     0.0407
     14  C15       -0.9420    3.6290   22.9240 C.3   2131  AZ52131     0.1885
     15  N18        1.3730    4.2070   22.7160 N.2   2131  AZ52131    -0.1931
     16  N22       -0.1920    5.8300   23.5450 N.2   2131  AZ52131    -0.2149
     17  N11       -3.0410    3.8610   25.8620 N.2   2131  AZ52131    -0.1675
     18  N13       -0.8680    3.0000   25.6910 N.2   2131  AZ52131    -0.2923
     19  N5         2.4450    1.1580   27.5200 N.2   2131  AZ52131     0.0793
     20  N6         3.4310    1.0080   26.6340 N.2   2131  AZ52131    -0.0426
     21  N7         0.2450    2.0460   27.4200 N.pl3 2131  AZ52131     0.0273
     22  N14       -2.0300    3.9130   23.8290 N.pl3 2131  AZ52131    -0.1486
     23  F23        3.1100    7.2710   23.4400 F     2131  AZ52131    -0.2051
     24 CL2        -1.9790    2.4380   29.3600 Cl    2131  AZ52131    -0.0739
@<TRIPOS>BOND
     1    13    14    1
     2    15     2    1
     3    15    10    2
     4     2     5    2
     5    14    10    1
     6    14    22    1
     7    10    16    2
     8     5    23    1
     9     5     3    1
    10    16     3    1
    11    22    11    1
    12    12     7    1
    13    11    18    2
    14    11    17    2
    15     7     1    1
    16     7    20    2
    17     1     8    1
    18    18     9    2
    19    17     4    1
    20    20    19    1
    21     8    21    1
    22     8    19    2
    23     9    21    1
    24     9     6    1
    25     4     6    2
    26     6    24    1
