@<TRIPOS>MOLECULE
2xa5_SLB_A_1.pdb
 21 21 0 0 0
SMALL
GASTEIGER

@<TRIPOS>ATOM
      1  C1         7.8550   -9.4450  -11.2250 C.2   1310  SLB1310     0.4179
      2  C2         9.1780   -9.1700  -11.9880 C.3   1310  SLB1310     0.3155
      3  C3        10.2690   -8.6770  -11.0700 C.3   1310  SLB1310     0.1056
      4  C4        11.4530   -8.1790  -11.9220 C.3   1310  SLB1310     0.1798
      5  C5        10.9450   -7.1060  -12.8610 C.3   1310  SLB1310     0.1554
      6  C6         9.8720   -7.7030  -13.7440 C.3   1310  SLB1310     0.1734
      7  C7         9.2280   -6.7220  -14.7150 C.3   1310  SLB1310     0.2135
      8  C8         8.1020   -7.3660  -15.5110 C.3   1310  SLB1310     0.2173
      9  C9         7.5240   -6.4420  -16.5590 C.3   1310  SLB1310     0.2175
     10  C10       12.5380   -5.3900  -13.6650 C.2   1310  SLB1310     0.2420
     11  C11       13.6370   -5.0550  -14.6590 C.3   1310  SLB1310     0.0964
     12  N5        12.0340   -6.6060  -13.7190 N.am  1310  SLB1310    -0.2020
     13  O1A        7.4560  -10.6260  -11.2020 O.co2 1310  SLB1310    -0.2401
     14  O1B        7.2630   -8.4650  -10.7350 O.co2 1310  SLB1310    -0.2401
     15  O2         9.5960  -10.3100  -12.7010 O.3   1310  SLB1310    -0.1830
     16  O4        12.4750   -7.6950  -11.0100 O.3   1310  SLB1310    -0.2210
     17  O6         8.7820   -8.2000  -12.9380 O.3   1310  SLB1310    -0.3220
     18  O7         8.7040   -5.5940  -14.0040 O.3   1310  SLB1310    -0.2176
     19  O8         8.5090   -8.6090  -16.1150 O.3   1310  SLB1310    -0.2175
     20  O9         8.4610   -5.9750  -17.5190 O.3   1310  SLB1310    -0.2175
     21  O10       12.1710   -4.5710  -12.8010 O.2   1310  SLB1310    -0.2733
@<TRIPOS>BOND
     1    20     9    1
     2     9     8    1
     3    19     8    1
     4     8     7    1
     5     7    18    1
     6     7     6    1
     7    11    10    1
     8     6    17    1
     9     6     5    1
    10    12    10   am
    11    12     5    1
    12    10    21    2
    13    17     2    1
    14     5     4    1
    15    15     2    1
    16     2     1    1
    17     2     3    1
    18     4     3    1
    19     4    16    1
    20     1    13   ar
    21     1    14   ar
