@<TRIPOS>MOLECULE
2xa9_UPG_A_1.pdb
 36 38 0 0 0
SMALL
GASTEIGER

@<TRIPOS>ATOM
      1  N1        35.9620    3.2820  105.5280 N.am  1415  UPG1415    -0.1766
      2  C2        37.3470    3.3420  105.3830 C.1   1415  UPG1415     0.2845
      3  N3        37.9620    2.5750  104.4350 N.2   1415  UPG1415    -0.2452
      4  C4        37.2350    1.7410  103.6180 C.1   1415  UPG1415     0.2182
      5  C5        35.8140    1.6690  103.7490 C.2   1415  UPG1415     0.1242
      6  C6        35.2130    2.4370  104.6970 C.2   1415  UPG1415     0.0929
      7  O2        38.0350    4.0690  106.0900 O.2   1415  UPG1415    -0.1918
      8  O4        37.7950    1.0620  102.7840 O.2   1415  UPG1415    -0.2085
      9  C1C       35.2550    4.1000  106.5650 C.3   1415  UPG1415     0.2401
     10  C2C       35.1260    5.6120  106.1890 C.3   1415  UPG1415     0.2319
     11  O2C       35.7650    6.4340  107.1680 O.3   1415  UPG1415    -0.2157
     12  C3C       33.6100    5.9040  106.0940 C.3   1415  UPG1415     0.2158
     13  C4C       32.9100    4.6090  106.4910 C.3   1415  UPG1415     0.1799
     14  O4C       33.9000    3.6040  106.8120 O.3   1415  UPG1415    -0.3320
     15  O3C       33.2410    6.9400  107.0100 O.3   1415  UPG1415    -0.2175
     16  C5C       32.0210    4.1440  105.3310 C.3   1415  UPG1415     0.1813
     17  O5C       31.3470    2.9120  105.6880 O.3   1415  UPG1415    -0.3112
     18  PA        30.3770    2.3420  104.4770 P.3   1415  UPG1415     0.2189
     19  O1A       29.6020    3.5960  104.6700 O.3   1415  UPG1415    -0.4371
     20  O2A       31.7500    2.2270  103.6330 O.2   1415  UPG1415    -0.5170
     21  O3A       30.0920    1.1630  105.5540 O.3   1415  UPG1415    -0.2703
     22  PB        29.0730    0.0800  104.9220 P.3   1415  UPG1415     0.2208
     23  O1B       29.6630   -0.5600  103.7170 O.2   1415  UPG1415    -0.5170
     24  O2B       27.7130    0.8650  104.5660 O.3   1415  UPG1415    -0.4371
     25  O3B       28.8470   -1.0280  106.0940 O.3   1415  UPG1415    -0.2857
     26  C1'       27.9950   -2.1900  105.7790 C.3   1415  UPG1415     0.2742
     27  C2'       26.4900   -1.8790  105.4980 C.3   1415  UPG1415     0.2409
     28  C3'       25.9210   -1.1470  106.7260 C.3   1415  UPG1415     0.2198
     29  C4'       26.0740   -2.0840  107.9400 C.3   1415  UPG1415     0.2144
     30  C5'       27.5780   -2.4090  108.1370 C.3   1415  UPG1415     0.1835
     31  C6'       27.7250   -3.3480  109.3390 C.3   1415  UPG1415     0.2142
     32  O2'       26.3600   -1.0490  104.3540 O.3   1415  UPG1415    -0.2149
     33  O3'       24.5330   -0.8430  106.5180 O.3   1415  UPG1415    -0.2174
     34  O4'       25.5630   -1.4310  109.1040 O.3   1415  UPG1415    -0.2176
     35  O5'       28.0990   -3.0740  106.9350 O.3   1415  UPG1415    -0.3254
     36  O6'       29.1070   -3.6550  109.5400 O.3   1415  UPG1415    -0.2176
@<TRIPOS>BOND
     1     8     4    2
     2     4     5    1
     3     4     3    2
     4    20    18    2
     5    23    22    2
     6     5     6    2
     7    32    27    1
     8     3     2    2
     9    18    19    1
    10    18    21    1
    11    18    17    1
    12    24    22    1
    13     6     1    1
    14    22    21    1
    15    22    25    1
    16    16    17    1
    17    16    13    1
    18     2     1   am
    19     2     7    2
    20    27    26    1
    21    27    28    1
    22     1     9    1
    23    26    25    1
    24    26    35    1
    25    12    10    1
    26    12    13    1
    27    12    15    1
    28    10     9    1
    29    10    11    1
    30    13    14    1
    31    33    28    1
    32     9    14    1
    33    28    29    1
    34    35    30    1
    35    29    30    1
    36    29    34    1
    37    30    31    1
    38    31    36    1
