@<TRIPOS>MOLECULE
2xaa_NAD_A_1.pdb
 44 48 0 0 0
SMALL
GASTEIGER

@<TRIPOS>ATOM
      1  PA        -8.1890  -10.1690   47.8280 P.3   503  NAD503      0.2189
      2  O1A       -8.6110  -11.0700   48.9370 O.3   503  NAD503     -0.4371
      3  O2A       -8.8220   -8.8190   47.8120 O.2   503  NAD503     -0.5170
      4  O5B       -8.4930  -10.9660   46.4750 O.3   503  NAD503     -0.3112
      5  C5B       -8.5480  -12.3610   46.5250 C.3   503  NAD503      0.1813
      6  C4B       -9.1470  -12.8980   45.2410 C.3   503  NAD503      0.1821
      7  O4B       -8.3990  -14.0430   44.8880 O.3   503  NAD503     -0.3135
      8  C3B      -10.5840  -13.3280   45.4630 C.3   503  NAD503      0.2184
      9  O3B      -11.3690  -12.8700   44.3840 O.3   503  NAD503     -0.2174
     10  C2B      -10.5110  -14.8400   45.5000 C.3   503  NAD503      0.2570
     11  O2B      -11.6660  -15.4170   44.9260 O.3   503  NAD503     -0.2130
     12  C1B       -9.2760  -15.0950   44.6530 C.3   503  NAD503      0.3186
     13  N9A       -8.5730  -16.3510   44.9240 N.pl3 503  NAD503     -0.1439
     14  C8A       -8.1300  -16.9140   46.1170 C.3   503  NAD503      0.3377
     15  N7A       -7.5610  -18.1160   45.8000 N.2   503  NAD503     -0.2095
     16  C5A       -7.6290  -18.3190   44.4440 C.2   503  NAD503      0.2526
     17  C6A       -7.2160  -19.3320   43.5600 C.2   503  NAD503      0.4393
     18  N6A       -6.8560  -20.5270   44.0270 N.pl3 503  NAD503      0.2180
     19  N1A       -7.4470  -19.2220   42.1920 N.2   503  NAD503      0.0021
     20  C2A       -8.0920  -18.1270   41.6870 C.3   503  NAD503      0.5254
     21  N3A       -8.5070  -17.1300   42.5410 N.2   503  NAD503     -0.0055
     22  C4A       -8.2730  -17.2150   43.8880 C.2   503  NAD503      0.3518
     23  O3        -6.5820  -10.0250   47.9120 O.3   503  NAD503     -0.2703
     24  PN        -5.7920   -8.6840   47.4740 P.3   503  NAD503      0.2189
     25  O1N       -5.6660   -7.7210   48.6050 O.3   503  NAD503     -0.4371
     26  O2N       -6.3410   -8.1920   46.1820 O.2   503  NAD503     -0.5170
     27  O5D       -4.3280   -9.3060   47.2000 O.3   503  NAD503     -0.3112
     28  C5D       -4.0650  -10.5730   46.6080 C.3   503  NAD503      0.1813
     29  C4D       -2.6470  -11.0080   47.0130 C.3   503  NAD503      0.1799
     30  O4D       -1.7180  -10.0010   46.6120 O.3   503  NAD503     -0.3327
     31  C3D       -2.4660  -11.2020   48.5280 C.3   503  NAD503      0.2158
     32  O3D       -1.7810  -12.3940   48.8430 O.3   503  NAD503     -0.2175
     33  C2D       -1.6530   -9.9830   48.9350 C.3   503  NAD503      0.2309
     34  O2D       -0.7780  -10.2560   49.9770 O.3   503  NAD503     -0.2158
     35  C1D       -0.8280   -9.7150   47.6920 C.3   503  NAD503      0.2263
     36  N1N       -0.0960   -8.4090   47.7030 N.pl3 503  NAD503     -0.2787
     37  C2N        1.2380   -8.4260   47.3680 C.3   503  NAD503      0.1244
     38  C3N        2.0330   -7.2710   47.3460 C.2   503  NAD503      0.0544
     39  C7N        3.3860   -7.3130   46.6900 C.2   503  NAD503      0.2818
     40  O7N        4.3140   -6.3000   46.9990 O.2   503  NAD503     -0.2670
     41  N7N        3.6720   -8.3030   45.8510 N.am  503  NAD503     -0.0839
     42  C4N        1.4560   -6.0450   47.6810 C.2   503  NAD503      0.0033
     43  C5N        0.0930   -6.0360   48.0180 C.2   503  NAD503      0.0157
     44  C6N       -0.6760   -7.2110   48.0310 C.2   503  NAD503      0.0633
@<TRIPOS>BOND
     1    20    19    1
     2    20    21    1
     3    19    17    2
     4    21    22    2
     5    17    18    1
     6    17    16    1
     7    22    16    1
     8    22    13    1
     9     9     8    1
    10    16    15    2
    11    12     7    1
    12    12    13    1
    13    12    10    1
    14     7     6    1
    15    13    14    1
    16    11    10    1
    17     6     8    1
    18     6     5    1
    19     8    10    1
    20    15    14    1
    21    41    39   am
    22    26    24    2
    23     4     5    1
    24     4     1    1
    25    28    29    1
    26    28    27    1
    27    30    29    1
    28    30    35    1
    29    39    40    2
    30    39    38    1
    31    29    31    1
    32    27    24    1
    33    38    37    1
    34    38    42    2
    35    37    36    1
    36    24    23    1
    37    24    25    1
    38    42    43    1
    39    35    36    1
    40    35    33    1
    41    36    44    1
    42     3     1    2
    43     1    23    1
    44     1     2    1
    45    43    44    2
    46    31    32    1
    47    31    33    1
    48    33    34    1
