@<TRIPOS>MOLECULE
2xab_VHD_A_1.pdb
 22 24 0 0 0
SMALL
GASTEIGER

@<TRIPOS>ATOM
      1  C1         1.5700   31.0780    0.7170 C.3   1224  VHD1224     0.0048
      2  C2         1.2980   32.4770    1.2660 C.3   1224  VHD1224     0.0255
      3  C3         2.3800   33.4510    0.8000 C.3   1224  VHD1224     0.0048
      4  C4        -0.1020   32.9390    0.8900 C.ar  1224  VHD1224     0.0168
      5  C5        -0.3330   33.5240   -0.3600 C.ar  1224  VHD1224     0.0068
      6  C6        -1.6150   33.9090   -0.7520 C.ar  1224  VHD1224     0.0952
      7  C7        -1.7930   34.5850   -2.0730 C.2   1224  VHD1224     0.2678
      8  O8        -2.3910   34.0190   -2.9760 O.2   1224  VHD1224    -0.2665
      9  N9        -1.3150   35.8650   -2.2110 N.ar  1224  VHD1224    -0.2716
     10  C10       -1.4720   36.6600   -3.4400 C.ar  1224  VHD1224     0.0830
     11  C11       -1.2560   38.0640   -2.9470 C.ar  1224  VHD1224     0.0191
     12  C12       -1.3730   39.2700   -3.6300 C.ar  1224  VHD1224     0.0015
     13  C13       -1.1180   40.4610   -2.9790 C.ar  1224  VHD1224     0.0000
     14  C14       -0.7460   40.4580   -1.6500 C.ar  1224  VHD1224     0.0000
     15  C15       -0.6220   39.2650   -0.9650 C.ar  1224  VHD1224     0.0015
     16  C16       -0.8740   38.0600   -1.6150 C.ar  1224  VHD1224     0.0191
     17  C17       -0.7830   36.6550   -1.0930 C.ar  1224  VHD1224     0.0830
     18  C18       -2.7060   33.6740    0.1160 C.ar  1224  VHD1224     0.2034
     19  O19       -3.9690   34.0230   -0.2640 O.3   1224  VHD1224    -0.2863
     20  C20       -2.5010   33.0620    1.3460 C.ar  1224  VHD1224     0.0838
     21  C21       -1.2140   32.6970    1.7400 C.ar  1224  VHD1224     0.1949
     22  O22       -1.0260   32.1340    2.9650 O.3   1224  VHD1224    -0.2868
@<TRIPOS>BOND
     1    12    13   ar
     2    12    11   ar
     3    10    11   ar
     4    10     9   ar
     5    13    14   ar
     6     8     7    2
     7    11    16   ar
     8     9     7   am
     9     9    17   ar
    10     7     6    1
    11    14    15   ar
    12    16    17   ar
    13    16    15   ar
    14     6     5   ar
    15     6    18   ar
    16     5     4   ar
    17    19    18    1
    18    18    20   ar
    19     1     2    1
    20     3     2    1
    21     4     2    1
    22     4    21   ar
    23    20    21   ar
    24    21    22    1
