@<TRIPOS>MOLECULE
2xad_OMY_E_1.pdb
 14 14 0 0 0
SMALL
GASTEIGER

@<TRIPOS>ATOM
      1  OCZ       23.5720   43.6200   21.7440 O.3   706  OMY706     -0.2857
      2  CZ        24.8050   43.1060   21.2710 C.ar  706  OMY706      0.2061
      3  CE1       24.9770   42.8100   19.9280 C.ar  706  OMY706      0.0962
      4  CD1       26.1300   42.2160   19.4140 C.ar  706  OMY706      0.0128
      5 CL         23.7350   43.1100   18.7620 Cl    706  OMY706     -0.0789
      6  CE2       25.8610   42.8310   22.1530 C.ar  706  OMY706      0.0427
      7  CD2       27.0510   42.2370   21.6320 C.ar  706  OMY706      0.0016
      8  CG        27.2020   41.9540   20.2530 C.ar  706  OMY706      0.0106
      9  CB        28.4740   41.2720   19.6100 C.3   706  OMY706      0.1992
     10  ODE       29.5650   41.1770   20.4800 O.3   706  OMY706     -0.2162
     11  CA        27.8550   39.8710   19.6450 C.3   706  OMY706      0.1905
     12  C         28.6240   38.6910   18.9980 C.2   706  OMY706      0.2290
     13  O         29.3410   37.9670   19.6950 O.2   706  OMY706     -0.2866
     14  N         27.5940   39.4810   21.0620 N.3   706  OMY706     -0.1214
@<TRIPOS>BOND
     1     5     3    1
     2    12    11    1
     3    12    13    2
     4     4     3   ar
     5     4     8   ar
     6     9    11    1
     7     9     8    1
     8     9    10    1
     9    11    14    1
    10     3     2   ar
    11     8     7   ar
    12     2     1    1
    13     2     6   ar
    14     7     6   ar
