@<TRIPOS>MOLECULE
2xad_GHP_E_1.pdb
 11 11 0 0 0
SMALL
GASTEIGER

@<TRIPOS>ATOM
      1  C         13.3350   36.6470   20.6690 C.2   701  GHP701      0.2306
      2  O         12.5900   37.2500   21.4550 O.2   701  GHP701     -0.2863
      3  CA        12.9220   35.2270   20.1710 C.3   701  GHP701      0.1783
      4  N         11.5030   34.9650   20.4660 N.3   701  GHP701     -0.1196
      5  C1        13.7410   34.2520   21.0220 C.ar  701  GHP701      0.0027
      6  C2        14.9760   33.7790   20.5460 C.ar  701  GHP701      0.0008
      7  C6        13.2920   33.8740   22.2940 C.ar  701  GHP701      0.0008
      8  C5        14.0500   33.0190   23.0950 C.ar  701  GHP701      0.0418
      9  C4        15.2800   32.5270   22.6260 C.ar  701  GHP701      0.1957
     10  O4        16.0270   31.7090   23.4120 O.3   701  GHP701     -0.2866
     11  C3        15.7400   32.9170   21.3520 C.ar  701  GHP701      0.0418
@<TRIPOS>BOND
     1     3     4    1
     2     3     1    1
     3     3     5    1
     4     6     5   ar
     5     6    11   ar
     6     1     2    2
     7     5     7   ar
     8    11     9   ar
     9     7     8   ar
    10     9     8   ar
    11     9    10    1
