@<TRIPOS>MOLECULE
2xad_T55_E_1.pdb
 11 10 0 0 0
SMALL
GASTEIGER

@<TRIPOS>ATOM
      1  CAD       28.3680   52.0450   20.9070 C.3   711  T55711      0.0000
      2  CAE       29.2440   51.0630   20.1140 C.3   711  T55711      0.0000
      3  CAF       30.5770   50.7180   20.8080 C.3   711  T55711      0.0000
      4  CAG       28.4690   49.8420   19.5730 C.3   711  T55711      0.0000
      5  CAH       28.4960   48.5250   20.3540 C.3   711  T55711      0.0003
      6  CAI       26.9950   48.1970   20.3270 C.3   711  T55711      0.0047
      7  CAJ       26.5640   46.8150   19.8240 C.3   711  T55711      0.0261
      8  CAK       25.2300   46.5510   20.6160 C.2   711  T55711     -0.0228
      9  CAL       23.9310   46.8990   19.8640 C.2   711  T55711      0.0408
     10  C         22.6290   46.8340   20.7120 C.2   711  T55711      0.2339
     11  O         21.5440   46.7660   20.0980 O.2   711  T55711     -0.2832
@<TRIPOS>BOND
     1     4     2    1
     2     4     5    1
     3     7     6    1
     4     7     8    1
     5     9     8    2
     6     9    10    1
     7    11    10    2
     8     2     3    1
     9     2     1    1
    10     6     5    1
