@<TRIPOS>MOLECULE
2xad_GCS_E_1.pdb
 11 11 0 0 0
SMALL
GASTEIGER

@<TRIPOS>ATOM
      1  C2        21.6000   46.6900   22.9930 C.3   710  GCS710      0.1542
      2  C3        21.7860   47.6020   24.2040 C.3   710  GCS710      0.2045
      3  O3        21.6610   48.9400   23.6490 O.3   710  GCS710     -0.2187
      4  C4        20.6030   47.3860   25.0550 C.3   710  GCS710      0.2131
      5  O4        20.9660   48.0250   26.2820 O.3   710  GCS710     -0.2176
      6  C5        20.4010   45.9100   25.4340 C.3   710  GCS710      0.1809
      7  C6        19.1800   45.5350   26.3070 C.3   710  GCS710      0.2141
      8  O6        18.0320   46.0090   25.6480 O.3   710  GCS710     -0.2176
      9  O5        20.3270   45.2060   24.1290 O.3   710  GCS710     -0.3492
     10  C1        21.5100   45.2120   23.3950 C.3   710  GCS710      0.1638
     11  N2        22.7740   46.8390   22.0770 N.3   710  GCS710     -0.1275
@<TRIPOS>BOND
     1    11     1    1
     2     1    10    1
     3     1     2    1
     4    10     9    1
     5     3     2    1
     6     9     6    1
     7     2     4    1
     8     4     6    1
     9     4     5    1
    10     6     7    1
    11     8     7    1
