@<TRIPOS>MOLECULE
2xad_3MY_E_1.pdb
 13 13 0 0 0
SMALL
GASTEIGER

@<TRIPOS>ATOM
      1  OBD       18.9720   42.7580   22.6360 O.3   702  3MY702     -0.2857
      2  CZ        18.0090   42.0490   21.8880 C.ar  702  3MY702      0.2061
      3  CE2       16.9100   41.5650   22.6330 C.ar  702  3MY702      0.0962
      4  CD2       15.9600   40.7770   21.9860 C.ar  702  3MY702      0.0104
      5 CL         16.7280   41.9240   24.3020 Cl    702  3MY702     -0.0789
      6  CE1       18.2040   41.8040   20.5370 C.ar  702  3MY702      0.0426
      7  CD1       17.2280   41.0500   19.8660 C.ar  702  3MY702     -0.0009
      8  CG        16.1300   40.5750   20.6410 C.ar  702  3MY702     -0.0192
      9  CB        15.0940   39.6650   19.9310 C.3   702  3MY702      0.0534
     10  CA        15.3650   38.2660   20.4950 C.3   702  3MY702      0.1605
     11  C         16.8430   37.8680   20.1380 C.2   702  3MY702      0.2264
     12  O         17.4590   37.8770   19.0230 O.2   702  3MY702     -0.2867
     13  N         14.5160   37.0840   20.1800 N.3   702  3MY702     -0.1241
@<TRIPOS>BOND
     1    12    11    2
     2     7     6   ar
     3     7     8   ar
     4     9    10    1
     5     9     8    1
     6    11    10    1
     7    13    10    1
     8     6     2   ar
     9     8     4   ar
    10     2     3   ar
    11     2     1    1
    12     4     3   ar
    13     3     5    1
