@<TRIPOS>MOLECULE
2xad_3FG_F_1.pdb
 12 12 0 0 0
SMALL
GASTEIGER

@<TRIPOS>ATOM
      1  N         26.4270   41.2770   52.7200 N.3   703  3FG703     -0.1196
      2  OD1       25.9860   46.1110   51.2100 O.3   703  3FG703     -0.2865
      3  CD1       25.0580   45.1590   51.3050 C.ar  703  3FG703      0.1987
      4  CG1       25.4180   43.9560   51.9150 C.ar  703  3FG703      0.0398
      5  CZ        23.7760   45.3640   50.8220 C.ar  703  3FG703      0.0840
      6  CD2       22.8450   44.3540   50.9420 C.ar  703  3FG703      0.1987
      7  OD2       21.5620   44.5570   50.4650 O.3   703  3FG703     -0.2865
      8  CG2       23.2290   43.1510   51.5490 C.ar  703  3FG703      0.0398
      9  CB        24.5130   42.9510   52.0270 C.ar  703  3FG703      0.0089
     10  CA        24.9440   41.6560   52.7440 C.3   703  3FG703      0.1785
     11  C         23.7690   40.6140   52.5820 C.2   703  3FG703      0.2306
     12  O         23.5590   39.8490   51.6200 O.2   703  3FG703     -0.2863
@<TRIPOS>BOND
     1     7     6    1
     2     5     6   ar
     3     5     3   ar
     4     6     8   ar
     5     2     3    1
     6     3     4   ar
     7     8     9   ar
     8    12    11    2
     9     4     9   ar
    10     9    10    1
    11    11    10    1
    12     1    10    1
