@<TRIPOS>MOLECULE
2xad_NAG_E_1.pdb
 14 14 0 0 0
SMALL
GASTEIGER

@<TRIPOS>ATOM
      1  C1        30.7830   42.0920   20.5190 C.3   709  NAG709      0.1665
      2  O5        30.3160   43.4360   20.7400 O.3   709  NAG709     -0.3489
      3  C5        31.3170   44.2500   21.3100 C.3   709  NAG709      0.1809
      4  C6        30.5220   45.4350   21.7940 C.3   709  NAG709      0.2141
      5  O6        31.2870   46.6400   21.6300 O.3   709  NAG709     -0.2176
      6  C4        32.2200   44.5940   20.1120 C.3   709  NAG709      0.2134
      7  O4        33.1620   45.6620   20.4480 O.3   709  NAG709     -0.2176
      8  C3        32.9170   43.2980   19.5920 C.3   709  NAG709      0.2069
      9  O3        33.5320   43.5760   18.3320 O.3   709  NAG709     -0.2184
     10  C2        31.9330   42.0900   19.4360 C.3   709  NAG709      0.1576
     11  N2        32.7050   40.8110   19.4370 N.am  709  NAG709     -0.2019
     12  C7        32.8080   40.0330   18.3410 C.2   709  NAG709      0.2420
     13  C8        32.1220   40.5620   17.0820 C.3   709  NAG709      0.0964
     14  O7        33.3870   38.9480   18.2820 O.2   709  NAG709     -0.2733
@<TRIPOS>BOND
     1    13    12    1
     2    14    12    2
     3     9     8    1
     4    12    11   am
     5    10    11    1
     6    10     8    1
     7    10     1    1
     8     8     6    1
     9     6     7    1
    10     6     3    1
    11     1     2    1
    12     2     3    1
    13     3     4    1
    14     5     4    1
