@<TRIPOS>MOLECULE
2xae_ADP_A_1.pdb
 27 29 0 0 0
SMALL
GASTEIGER

@<TRIPOS>ATOM
      1  PB       -13.5870   16.0820  -41.9480 P.3   1367  ADP1367     0.5373
      2  O1B      -14.2380   14.8670  -42.5580 O.3   1367  ADP1367    -0.1143
      3  O2B      -14.6010   17.1290  -41.5880 O.3   1367  ADP1367    -0.1143
      4  O3B      -12.4230   16.5470  -42.7880 O.2   1367  ADP1367    -0.2221
      5  PA       -12.7310   14.0290  -40.2090 P.3   1367  ADP1367     0.2231
      6  O1A      -11.7750   13.2710  -41.0970 O.2   1367  ADP1367    -0.5169
      7  O2A      -14.0620   13.3530  -39.9850 O.3   1367  ADP1367    -0.4370
      8  O3A      -12.8800   15.6030  -40.6030 O.3   1367  ADP1367    -0.2261
      9  O5'      -12.0070   14.1230  -38.7660 O.3   1367  ADP1367    -0.3111
     10  C5'      -10.6180   14.4590  -38.7730 C.3   1367  ADP1367     0.1813
     11  C4'       -9.9160   13.6680  -37.6820 C.3   1367  ADP1367     0.1821
     12  O4'      -10.4400   14.0780  -36.4170 O.3   1367  ADP1367    -0.3135
     13  C3'      -10.1240   12.1600  -37.7630 C.3   1367  ADP1367     0.2184
     14  O3'       -8.8690   11.5120  -37.5010 O.3   1367  ADP1367    -0.2174
     15  C2'      -11.1340   11.8300  -36.6680 C.3   1367  ADP1367     0.2570
     16  O2'      -10.7690   10.5950  -36.0400 O.3   1367  ADP1367    -0.2130
     17  C1'      -11.0620   13.0060  -35.6870 C.3   1367  ADP1367     0.3186
     18  N9       -12.3820   13.4120  -35.0940 N.pl3 1367  ADP1367    -0.1439
     19  C8       -13.2950   14.2100  -35.6780 C.3   1367  ADP1367     0.3377
     20  N7       -14.3780   14.3820  -34.8850 N.2   1367  ADP1367    -0.2095
     21  C5       -14.1920   13.6960  -33.7380 C.2   1367  ADP1367     0.2526
     22  C6       -14.9500   13.4360  -32.4640 C.2   1367  ADP1367     0.4393
     23  N6       -16.1800   13.9790  -32.2080 N.pl3 1367  ADP1367     0.2180
     24  N1       -14.3570   12.6200  -31.5340 N.2   1367  ADP1367     0.0021
     25  C2       -13.1400   12.0730  -31.7250 C.3   1367  ADP1367     0.5254
     26  N3       -12.4200   12.2730  -32.8520 N.2   1367  ADP1367    -0.0055
     27  C4       -12.8620   13.0520  -33.8830 C.2   1367  ADP1367     0.3518
@<TRIPOS>BOND
     1     4     1    2
     2     2     1    1
     3     1     3    1
     4     1     8    1
     5     6     5    2
     6     8     5    1
     7     5     7    1
     8     5     9    1
     9    10     9    1
    10    10    11    1
    11    13    11    1
    12    13    14    1
    13    13    15    1
    14    11    12    1
    15    15    16    1
    16    15    17    1
    17    12    17    1
    18    17    18    1
    19    19    18    1
    20    19    20    1
    21    18    27    1
    22    20    21    2
    23    27    21    1
    24    27    26    2
    25    21    22    1
    26    26    25    1
    27    22    23    1
    28    22    24    2
    29    25    24    1
