@<TRIPOS>MOLECULE
2xae_2XA_A_1.pdb
 27 29 0 0 0
SMALL
GASTEIGER

@<TRIPOS>ATOM
      1  N        -14.9870    6.6180  -42.8960 N.3   1365  2XA1365    -0.1199
      2  CA       -13.9470    5.7580  -43.4880 C.3   1365  2XA1365     0.2050
      3  CB       -14.4380    4.2840  -43.4910 C.3   1365  2XA1365     0.0890
      4  C        -13.5650    6.2730  -44.9180 C.2   1365  2XA1365     0.3828
      5  OXT      -13.9290    7.4320  -45.2480 O.co2 1365  2XA1365    -0.2440
      6  O        -12.8860    5.5130  -45.6590 O.co2 1365  2XA1365    -0.2440
      7  SG       -15.0550    3.4810  -41.9190 S.3   1365  2XA1365    -0.1273
      8  CAM      -17.1340    2.7090  -44.6880 C.ar  1365  2XA1365    -0.0020
      9  CAG      -17.9730    3.3170  -45.6120 C.ar  1365  2XA1365     0.0111
     10  CAD      -19.0510    4.0660  -45.1800 C.ar  1365  2XA1365     0.0577
     11  CAH      -19.2770    4.2030  -43.8120 C.ar  1365  2XA1365     0.0111
     12  CAN      -18.4140    3.6100  -42.8980 C.ar  1365  2XA1365    -0.0020
     13  CAV      -17.3430    2.8410  -43.3260 C.ar  1365  2XA1365    -0.0060
     14  CAF      -15.9920   -0.1590  -43.2170 C.ar  1365  2XA1365    -0.0029
     15  CAK      -15.4790    1.0870  -42.8730 C.ar  1365  2XA1365    -0.0060
     16  CAQ      -14.1190    1.3180  -43.0260 C.ar  1365  2XA1365    -0.0029
     17  CAX      -13.2640    0.3510  -43.5240 C.ar  1365  2XA1365    -0.0003
     18  CAR      -13.7900   -0.8910  -43.8560 C.ar  1365  2XA1365    -0.0000
     19  CAL      -15.1500   -1.1480  -43.7120 C.ar  1365  2XA1365    -0.0003
     20  CAE      -18.2590    0.9410  -41.2190 C.ar  1365  2XA1365    -0.0029
     21  CAI      -17.1270    1.7420  -41.0870 C.ar  1365  2XA1365    -0.0060
     22  CAO      -16.6910    2.0690  -39.8000 C.ar  1365  2XA1365    -0.0029
     23  CAW      -17.3520    1.6250  -38.6590 C.ar  1365  2XA1365    -0.0003
     24  CAP      -18.4830    0.8270  -38.8050 C.ar  1365  2XA1365    -0.0000
     25  CAJ      -18.9270    0.4850  -40.0800 C.ar  1365  2XA1365    -0.0003
     26 CL        -20.0870    4.8080  -46.3730 Cl    1365  2XA1365    -0.0822
     27  CAZ      -16.3630    2.2190  -42.3320 C.3   1365  2XA1365     0.0953
@<TRIPOS>BOND
     1    26    10    1
     2     6     4   ar
     3     9    10   ar
     4     9     8   ar
     5     5     4   ar
     6    10    11   ar
     7     4     2    1
     8     8    13   ar
     9    18    19   ar
    10    18    17   ar
    11    11    12   ar
    12    19    14   ar
    13    17    16   ar
    14     3     2    1
    15     3     7    1
    16     2     1    1
    17    13    12   ar
    18    13    27    1
    19    14    15   ar
    20    16    15   ar
    21    15    27    1
    22    27     7    1
    23    27    21    1
    24    20    21   ar
    25    20    25   ar
    26    21    22   ar
    27    25    24   ar
    28    22    23   ar
    29    24    23   ar
