@<TRIPOS>MOLECULE
2xaf_TCF_A_1.pdb
 11 11 0 0 0
SMALL
GASTEIGER

@<TRIPOS>ATOM
      1  C1B       -7.5380   57.2660   81.1160 C.2   901  TCF901      0.2077
      2  O1B       -8.2790   57.0810   80.1340 O.2   901  TCF901     -0.2883
      3  C2B       -6.3750   56.3290   81.3800 C.3   901  TCF901      0.0769
      4  C3B       -5.8410   56.5920   82.7570 C.3   901  TCF901      0.0346
      5  CB1       -5.8440   55.4390   83.7300 C.ar  901  TCF901     -0.0217
      6  CB6       -4.6200   55.2200   84.3430 C.ar  901  TCF901     -0.0037
      7  CB5       -4.4120   54.2160   85.2810 C.ar  901  TCF901      0.0064
      8  CB2       -6.9250   54.6290   84.0780 C.ar  901  TCF901     -0.0037
      9  CB3       -6.7290   53.6080   85.0230 C.ar  901  TCF901      0.0064
     10  CB4       -5.4690   53.3940   85.6340 C.ar  901  TCF901      0.0345
     11 BR         -5.0690   52.0580   86.9470 Br    901  TCF901     -0.0490
@<TRIPOS>BOND
     1     2     1    2
     2     1     3    1
     3     3     4    1
     4     4     5    1
     5     5     8   ar
     6     5     6   ar
     7     8     9   ar
     8     6     7   ar
     9     9    10   ar
    10     7    10   ar
    11    10    11    1
