@<TRIPOS>MOLECULE
2xag_TCF_A_1.pdb
 11 11 0 0 0
SMALL
GASTEIGER

@<TRIPOS>ATOM
      1  C1B       -8.0370   56.5260   81.4890 C.2   901  TCF901      0.2077
      2  O1B       -8.5950   56.3860   80.3790 O.2   901  TCF901     -0.2883
      3  C2B       -7.0180   55.4820   81.9000 C.3   901  TCF901      0.0769
      4  C3B       -6.4210   55.8240   83.2460 C.3   901  TCF901      0.0346
      5  CB1       -6.4520   54.6950   84.2520 C.ar  901  TCF901     -0.0217
      6  CB6       -5.2670   54.4750   84.9620 C.ar  901  TCF901     -0.0037
      7  CB5       -5.1860   53.4700   85.9110 C.ar  901  TCF901      0.0064
      8  CB2       -7.5890   53.9110   84.5000 C.ar  901  TCF901     -0.0037
      9  CB3       -7.5150   52.8950   85.4510 C.ar  901  TCF901      0.0064
     10  CB4       -6.3120   52.6790   86.1460 C.ar  901  TCF901      0.0345
     11 BR         -6.1450   51.3180   87.4600 Br    901  TCF901     -0.0490
@<TRIPOS>BOND
     1     2     1    2
     2     1     3    1
     3     3     4    1
     4     4     5    1
     5     5     8   ar
     6     5     6   ar
     7     8     9   ar
     8     6     7   ar
     9     9    10   ar
    10     7    10   ar
    11    10    11    1
