@<TRIPOS>MOLECULE
2xah_3PL_A_1.pdb
 10 10 0 0 0
SMALL
GASTEIGER

@<TRIPOS>ATOM
      1  C         -5.2590   56.8210   82.5470 C.2   901  3PL901      0.2077
      2  O         -4.4730   55.9200   82.2280 O.2   901  3PL901     -0.2883
      3  CA        -5.8760   57.8060   81.5460 C.3   901  3PL901      0.0769
      4  CB        -7.3640   57.7580   81.8690 C.3   901  3PL901      0.0346
      5  CG        -7.9130   56.5710   81.1800 C.ar  901  3PL901     -0.0217
      6  CD1       -8.3560   56.6520   79.8650 C.ar  901  3PL901     -0.0043
      7  CE1       -8.8580   55.4730   79.2930 C.ar  901  3PL901     -0.0003
      8  CZ        -8.9300   54.2620   80.0080 C.ar  901  3PL901     -0.0000
      9  CE2       -8.4900   54.1850   81.3270 C.ar  901  3PL901     -0.0003
     10  CD2       -7.9780   55.3520   81.9040 C.ar  901  3PL901     -0.0043
@<TRIPOS>BOND
     1     7     6   ar
     2     7     8   ar
     3     6     5   ar
     4     8     9   ar
     5     5     4    1
     6     5    10   ar
     7     9    10   ar
     8     3     4    1
     9     3     1    1
    10     2     1    2
