@<TRIPOS>MOLECULE
2xaj_TCA_A_1.pdb
 10 10 0 0 0
SMALL
GASTEIGER

@<TRIPOS>ATOM
      1  C1        -7.9270   57.6260   81.0860 C.2   901  TCA901      0.2077
      2  O         -8.6050   57.5330   80.0360 O.2   901  TCA901     -0.2883
      3  C2        -6.8790   56.5380   81.2960 C.3   901  TCA901      0.0769
      4  C3        -5.9220   56.7570   82.4500 C.3   901  TCA901      0.0346
      5  C31       -6.0350   55.6100   83.4350 C.ar  901  TCA901     -0.0217
      6  C32       -4.8910   55.2090   84.1540 C.ar  901  TCA901     -0.0043
      7  C33       -4.9570   54.1610   85.0810 C.ar  901  TCA901     -0.0003
      8  C34       -6.1910   53.5170   85.2710 C.ar  901  TCA901     -0.0000
      9  C35       -7.3410   53.9040   84.5620 C.ar  901  TCA901     -0.0003
     10  C36       -7.2600   54.9510   83.6410 C.ar  901  TCA901     -0.0043
@<TRIPOS>BOND
     1     2     1    2
     2     1     3    1
     3     3     4    1
     4     4     5    1
     5     5    10   ar
     6     5     6   ar
     7    10     9   ar
     8     6     7   ar
     9     9     8   ar
    10     7     8   ar
