@<TRIPOS>MOLECULE
2xal_ADP_A_1.pdb
 27 29 0 0 0
SMALL
GASTEIGER

@<TRIPOS>ATOM
      1  PB        38.9020   70.9990   39.1550 P.3   600  ADP600      0.5373
      2  O1B       40.1130   70.1900   38.7480 O.2   600  ADP600     -0.2221
      3  O2B       37.5820   70.2390   39.1900 O.3   600  ADP600     -0.1143
      4  O3B       39.1500   71.7970   40.4180 O.3   600  ADP600     -0.1143
      5  PA        37.3550   73.0040   37.7900 P.3   600  ADP600      0.2231
      6  O1A       36.7910   73.1750   39.1810 O.3   600  ADP600     -0.4370
      7  O2A       36.4490   72.5120   36.6840 O.2   600  ADP600     -0.5169
      8  O3A       38.6930   72.0780   37.9460 O.3   600  ADP600     -0.2261
      9  O5'       37.9330   74.4320   37.3320 O.3   600  ADP600     -0.3111
     10  C5'       38.4330   75.2390   38.3870 C.3   600  ADP600      0.1813
     11  C4'       37.7900   76.6100   38.2910 C.3   600  ADP600      0.1821
     12  O4'       37.8460   77.0650   36.9450 O.3   600  ADP600     -0.3135
     13  C3'       36.3180   76.6840   38.6630 C.3   600  ADP600      0.2184
     14  O3'       36.1000   76.7750   40.0740 O.3   600  ADP600     -0.2174
     15  C2'       35.9550   77.9830   38.0030 C.3   600  ADP600      0.2570
     16  O2'       36.4490   79.0800   38.7740 O.3   600  ADP600     -0.2130
     17  C1'       36.7640   77.9410   36.7400 C.3   600  ADP600      0.3186
     18  N9        35.8940   77.2460   35.8190 N.pl3 600  ADP600     -0.1439
     19  C8        35.7610   75.9160   35.6410 C.3   600  ADP600      0.3377
     20  N7        34.8170   75.6620   34.6790 N.2   600  ADP600     -0.2095
     21  C5        34.3580   76.8620   34.2590 C.2   600  ADP600      0.2526
     22  C6        33.3720   77.3560   33.2820 C.2   600  ADP600      0.4393
     23  N6        32.6810   76.4910   32.5200 N.pl3 600  ADP600      0.2180
     24  N1        33.2030   78.7030   33.1760 N.2   600  ADP600      0.0021
     25  C2        33.9080   79.5860   33.9230 C.3   600  ADP600      0.5254
     26  N3        34.8240   79.2160   34.8360 N.2   600  ADP600     -0.0055
     27  C4        35.0730   77.8990   35.0260 C.2   600  ADP600      0.3518
@<TRIPOS>BOND
     1    23    22    1
     2    24    22    2
     3    24    25    1
     4    22    21    1
     5    25    26    1
     6    21    20    2
     7    21    27    1
     8    20    19    1
     9    26    27    2
    10    27    18    1
    11    19    18    1
    12    18    17    1
    13     7     5    2
    14    17    12    1
    15    17    15    1
    16    12    11    1
    17     9     5    1
    18     9    10    1
    19     5     8    1
    20     5     6    1
    21     8     1    1
    22    15    13    1
    23    15    16    1
    24    11    10    1
    25    11    13    1
    26    13    14    1
    27     2     1    2
    28     1     3    1
    29     1     4    1
