@<TRIPOS>MOLECULE
2xal_I6P_A_1.pdb
 36 36 0 0 0
SMALL
GASTEIGER

@<TRIPOS>ATOM
      1  O44       35.9070   64.3390   47.4990 O.3   500  I6P500     -0.1145
      2  P4        36.6250   64.6400   46.2100 P.3   500  I6P500      0.5327
      3  O24       35.8120   65.4790   45.2520 O.2   500  I6P500     -0.2224
      4  O34       37.3510   63.4260   45.6430 O.3   500  I6P500     -0.1145
      5  O14       37.8130   65.6100   46.6850 O.3   500  I6P500     -0.2675
      6  C4        37.8090   66.9770   46.3510 C.3   500  I6P500      0.1863
      7  C3        38.9840   67.2020   45.4360 C.3   500  I6P500      0.1863
      8  O13       38.7160   66.6530   44.1600 O.3   500  I6P500     -0.2675
      9  P3        39.9930   66.4110   43.2180 P.3   500  I6P500      0.5327
     10  O43       40.0660   67.7050   42.4300 O.3   500  I6P500     -0.1145
     11  O33       41.1090   66.1810   44.2210 O.3   500  I6P500     -0.1145
     12  O23       39.6570   65.1790   42.4210 O.2   500  I6P500     -0.2224
     13  C5        38.0570   67.6630   47.6600 C.3   500  I6P500      0.1863
     14  O15       36.8680   67.5710   48.4050 O.3   500  I6P500     -0.2675
     15  P5        36.8410   66.7270   49.7640 P.3   500  I6P500      0.5327
     16  O45       35.3650   66.7300   50.0600 O.3   500  I6P500     -0.1145
     17  O35       37.4430   65.3870   49.4060 O.2   500  I6P500     -0.2224
     18  O25       37.6730   67.4770   50.7840 O.3   500  I6P500     -0.1145
     19  C6        38.3670   69.1300   47.5150 C.3   500  I6P500      0.1863
     20  O16       38.6810   69.5470   48.8340 O.3   500  I6P500     -0.2675
     21  P6        37.7010   70.5920   49.5610 P.3   500  I6P500      0.5327
     22  O46       37.4500   70.0460   50.9340 O.3   500  I6P500     -0.1145
     23  O36       38.6020   71.8070   49.5020 O.3   500  I6P500     -0.1145
     24  O26       36.4040   70.6750   48.7580 O.2   500  I6P500     -0.2224
     25  C1        39.5140   69.3630   46.5390 C.3   500  I6P500      0.1863
     26  O11       39.7470   70.7500   46.2940 O.3   500  I6P500     -0.2675
     27  P1        41.0330   71.4880   46.9440 P.3   500  I6P500      0.5327
     28  O41       42.2610   70.9390   46.2350 O.2   500  I6P500     -0.2224
     29  O31       40.8770   71.1010   48.3890 O.3   500  I6P500     -0.1145
     30  O21       40.7710   72.9650   46.7100 O.3   500  I6P500     -0.1145
     31  C2        39.2330   68.6740   45.2080 C.3   500  I6P500      0.1863
     32  O12       38.1160   69.2140   44.4880 O.3   500  I6P500     -0.2675
     33  P2        38.4420   70.0420   43.1440 P.3   500  I6P500      0.5327
     34  O22       38.3680   71.4660   43.6430 O.3   500  I6P500     -0.1145
     35  O32       39.8520   69.6230   42.7720 O.3   500  I6P500     -0.1145
     36  O42       37.3750   69.6670   42.1500 O.2   500  I6P500     -0.2224
@<TRIPOS>BOND
     1    36    33    2
     2    12     9    2
     3    10     9    1
     4    35    33    1
     5    33    34    1
     6    33    32    1
     7     9     8    1
     8     9    11    1
     9     8     7    1
    10    32    31    1
    11    31     7    1
    12    31    25    1
    13     3     2    2
    14     7     6    1
    15     4     2    1
    16     2     5    1
    17     2     1    1
    18    28    27    2
    19    26    25    1
    20    26    27    1
    21     6     5    1
    22     6    13    1
    23    25    19    1
    24    30    27    1
    25    27    29    1
    26    19    13    1
    27    19    20    1
    28    13    14    1
    29    14    15    1
    30    24    21    2
    31    20    21    1
    32    17    15    2
    33    23    21    1
    34    21    22    1
    35    15    16    1
    36    15    18    1
