@<TRIPOS>MOLECULE
2xam_I6P_A_1.pdb
 36 36 0 0 0
SMALL
GASTEIGER

@<TRIPOS>ATOM
      1  O42       36.8510   72.0440   43.4520 O.3   500  I6P500     -0.1145
      2  P2        38.1790   72.1190   44.1740 P.3   500  I6P500      0.5327
      3  O22       38.4540   73.5150   44.6850 O.3   500  I6P500     -0.1145
      4  O32       39.3330   71.5170   43.4110 O.2   500  I6P500     -0.2224
      5  O12       38.0450   71.2170   45.5250 O.3   500  I6P500     -0.2675
      6  C2        39.1560   70.6260   46.2200 C.3   500  I6P500      0.1863
      7  C3        38.9580   69.1190   46.3280 C.3   500  I6P500      0.1863
      8  O13       38.7310   68.5510   45.0440 O.3   500  I6P500     -0.2675
      9  P3        39.9410   67.9560   44.1520 P.3   500  I6P500      0.5327
     10  O43       39.2440   66.9630   43.2740 O.2   500  I6P500     -0.2224
     11  O33       40.9360   67.3650   45.1160 O.3   500  I6P500     -0.1145
     12  O23       40.4650   69.1800   43.4370 O.3   500  I6P500     -0.1145
     13  C1        39.3500   71.1820   47.6370 C.3   500  I6P500      0.1863
     14  O11       39.5130   72.5960   47.5730 O.3   500  I6P500     -0.2675
     15  P1        40.9080   73.3850   47.7100 P.3   500  I6P500      0.5327
     16  O41       40.5330   74.7900   47.3240 O.3   500  I6P500     -0.1145
     17  O31       41.2410   73.2440   49.1760 O.3   500  I6P500     -0.1145
     18  O21       41.8530   72.6980   46.7900 O.2   500  I6P500     -0.2224
     19  C6        38.1540   70.8720   48.5470 C.3   500  I6P500      0.1863
     20  O16       38.4130   71.3380   49.8740 O.3   500  I6P500     -0.2675
     21  P6        37.4850   72.3860   50.6750 P.3   500  I6P500      0.5327
     22  O46       36.3640   72.7300   49.7260 O.2   500  I6P500     -0.2224
     23  O36       38.3730   73.5740   50.9880 O.3   500  I6P500     -0.1145
     24  O26       37.0610   71.6150   51.9010 O.3   500  I6P500     -0.1145
     25  C5        37.8810   69.3740   48.6180 C.3   500  I6P500      0.1863
     26  O15       36.6360   69.1360   49.2720 O.3   500  I6P500     -0.2675
     27  P5        36.5090   68.4950   50.7470 P.3   500  I6P500      0.5327
     28  O45       37.5490   69.1680   51.6200 O.3   500  I6P500     -0.1145
     29  O35       36.7380   67.0020   50.5750 O.2   500  I6P500     -0.2224
     30  O25       35.1060   68.8800   51.1410 O.3   500  I6P500     -0.1145
     31  C4        37.7750   68.7690   47.2290 C.3   500  I6P500      0.1863
     32  O14       37.7820   67.3620   47.3890 O.3   500  I6P500     -0.2675
     33  P4        36.4780   66.4800   47.0740 P.3   500  I6P500      0.5327
     34  O24       35.8290   66.3320   48.4340 O.3   500  I6P500     -0.1145
     35  O34       35.6310   67.2270   46.0820 O.2   500  I6P500     -0.2224
     36  O44       37.1000   65.2120   46.5490 O.3   500  I6P500     -0.1145
@<TRIPOS>BOND
     1    10     9    2
     2     4     2    2
     3    12     9    1
     4     1     2    1
     5     9     8    1
     6     9    11    1
     7     2     3    1
     8     2     5    1
     9     8     7    1
    10     5     6    1
    11    35    33    2
    12     6     7    1
    13     6    13    1
    14     7    31    1
    15    36    33    1
    16    18    15    2
    17    33    32    1
    18    33    34    1
    19    31    32    1
    20    31    25    1
    21    16    15    1
    22    14    13    1
    23    14    15    1
    24    13    19    1
    25    15    17    1
    26    19    25    1
    27    19    20    1
    28    25    26    1
    29    26    27    1
    30    22    21    2
    31    20    21    1
    32    29    27    2
    33    21    23    1
    34    21    24    1
    35    27    30    1
    36    27    28    1
