@<TRIPOS>MOLECULE
2xam_ADP_A_1.pdb
 27 29 0 0 0
SMALL
GASTEIGER

@<TRIPOS>ATOM
      1  PB        38.9590   72.9040   39.9090 P.3   600  ADP600      0.5373
      2  O1B       40.4610   72.8810   40.0980 O.3   600  ADP600     -0.1143
      3  O2B       38.4000   71.8360   39.0110 O.2   600  ADP600     -0.2221
      4  O3B       38.2080   73.0910   41.2150 O.3   600  ADP600     -0.1143
      5  PA        37.2440   74.8540   38.7310 P.3   600  ADP600      0.2231
      6  O1A       36.4420   74.9850   40.0000 O.3   600  ADP600     -0.4370
      7  O2A       36.6020   74.1440   37.5580 O.2   600  ADP600     -0.5169
      8  O3A       38.6910   74.2260   39.0390 O.3   600  ADP600     -0.2261
      9  O5'       37.7330   76.3040   38.2220 O.3   600  ADP600     -0.3111
     10  C5'       38.5790   77.1240   39.0150 C.3   600  ADP600      0.1813
     11  C4'       37.9900   78.5310   39.0630 C.3   600  ADP600      0.1821
     12  O4'       37.9330   79.1050   37.7540 O.3   600  ADP600     -0.3135
     13  C3'       36.5550   78.5370   39.5580 C.3   600  ADP600      0.2184
     14  O3'       36.4850   78.6320   40.9800 O.3   600  ADP600     -0.2174
     15  C2'       35.9700   79.7660   38.9130 C.3   600  ADP600      0.2570
     16  O2'       36.2660   80.9300   39.6980 O.3   600  ADP600     -0.2130
     17  C1'       36.7180   79.8470   37.6010 C.3   600  ADP600      0.3186
     18  N9        35.8800   79.2050   36.5660 N.pl3 600  ADP600     -0.1439
     19  C8        35.8090   77.8960   36.2580 C.3   600  ADP600      0.3377
     20  N7        34.9140   77.6820   35.2560 N.2   600  ADP600     -0.2095
     21  C5        34.4160   78.8860   34.9150 C.2   600  ADP600      0.2526
     22  C6        33.4360   79.4070   33.9350 C.2   600  ADP600      0.4393
     23  N6        32.7920   78.5920   33.0820 N.pl3 600  ADP600      0.2180
     24  N1        33.2010   80.7360   33.9210 N.2   600  ADP600      0.0021
     25  C2        33.8310   81.5830   34.7560 C.3   600  ADP600      0.5254
     26  N3        34.7310   81.1840   35.6710 N.2   600  ADP600     -0.0055
     27  C4        35.0490   79.8770   35.7860 C.2   600  ADP600      0.3518
@<TRIPOS>BOND
     1    23    22    1
     2    24    22    2
     3    24    25    1
     4    22    21    1
     5    25    26    1
     6    21    20    2
     7    21    27    1
     8    20    19    1
     9    26    27    2
    10    27    18    1
    11    19    18    1
    12    18    17    1
    13     7     5    2
    14    17    12    1
    15    17    15    1
    16    12    11    1
    17     9     5    1
    18     9    10    1
    19     5     8    1
    20     5     6    1
    21    15    13    1
    22    15    16    1
    23     3     1    2
    24    10    11    1
    25     8     1    1
    26    11    13    1
    27    13    14    1
    28     1     2    1
    29     1     4    1
