@<TRIPOS>MOLECULE
2xan_5MY_A_1.pdb
 32 32 0 0 0
SMALL
GASTEIGER

@<TRIPOS>ATOM
      1  O31       40.8330   72.9690   48.5430 O.3   500  5MY500     -0.1145
      2  P1        40.5610   73.1580   47.0710 P.3   500  5MY500      0.5327
      3  O21       40.2740   74.5810   46.6780 O.3   500  5MY500     -0.1145
      4  O41       41.5150   72.4310   46.1710 O.2   500  5MY500     -0.2224
      5  O11       39.1310   72.4460   46.8320 O.3   500  5MY500     -0.2674
      6  C1        38.9630   71.0420   46.9920 C.3   500  5MY500      0.1890
      7  C2        38.7070   70.4270   45.6200 C.3   500  5MY500      0.2119
      8  O12       37.5370   71.0230   45.0610 O.3   500  5MY500     -0.2177
      9  C3        38.4960   68.9250   45.7280 C.3   500  5MY500      0.1890
     10  O13       38.1130   68.4070   44.4540 O.3   500  5MY500     -0.2674
     11  P3        39.1840   67.9070   43.3500 P.3   500  5MY500      0.5327
     12  O23       38.4060   66.9110   42.5500 O.2   500  5MY500     -0.2224
     13  O33       40.3200   67.2970   44.1150 O.3   500  5MY500     -0.1145
     14  O43       39.5620   69.1920   42.6410 O.3   500  5MY500     -0.1145
     15  C6        37.8110   70.7770   47.9620 C.3   500  5MY500      0.1864
     16  O16       38.1110   71.3390   49.2480 O.3   500  5MY500     -0.2675
     17  P6        37.1380   72.3910   50.0020 P.3   500  5MY500      0.5327
     18  O26       36.0020   72.5550   49.0180 O.2   500  5MY500     -0.2224
     19  O36       37.9530   73.6380   50.2460 O.3   500  5MY500     -0.1145
     20  O46       36.7770   71.7000   51.2910 O.3   500  5MY500     -0.1145
     21  C5        37.5480   69.2790   48.0940 C.3   500  5MY500      0.1863
     22  O15       36.3040   69.1180   48.7700 O.3   500  5MY500     -0.2675
     23  P5        36.1310   68.4930   50.2450 P.3   500  5MY500      0.5327
     24  O25       37.1180   69.2300   51.1170 O.3   500  5MY500     -0.1145
     25  O35       36.4150   67.0120   50.0800 O.2   500  5MY500     -0.2224
     26  O45       34.6850   68.7930   50.5610 O.3   500  5MY500     -0.1145
     27  C4        37.3890   68.5940   46.7340 C.3   500  5MY500      0.1864
     28  O14       37.3930   67.1820   46.9240 O.3   500  5MY500     -0.2675
     29  P4        36.1240   66.2610   46.5670 P.3   500  5MY500      0.5327
     30  O34       36.7350   65.0650   45.8700 O.3   500  5MY500     -0.1145
     31  O44       35.5200   65.9250   47.9200 O.3   500  5MY500     -0.1145
     32  O24       35.2190   67.0730   45.6760 O.2   500  5MY500     -0.2224
@<TRIPOS>BOND
     1    12    11    2
     2    14    11    1
     3    11    13    1
     4    11    10    1
     5    10     9    1
     6     8     7    1
     7     7     9    1
     8     7     6    1
     9    32    29    2
    10     9    27    1
    11    30    29    1
    12     4     2    2
    13    29    28    1
    14    29    31    1
    15     3     2    1
    16    27    28    1
    17    27    21    1
    18     5     6    1
    19     5     2    1
    20     6    15    1
    21     2     1    1
    22    15    21    1
    23    15    16    1
    24    21    22    1
    25    22    23    1
    26    18    17    2
    27    16    17    1
    28    17    19    1
    29    17    20    1
    30    25    23    2
    31    23    26    1
    32    23    24    1
