@<TRIPOS>MOLECULE
2xan_ANP_A_1.pdb
 31 33 0 0 0
SMALL
GASTEIGER

@<TRIPOS>ATOM
      1  PG        37.4660   72.0860   41.9950 P.3   600  ANP600      0.4884
      2  O1G       37.8850   70.7780   41.3390 O.2   600  ANP600     -0.2331
      3  O2G       38.4040   72.5420   43.0920 O.3   600  ANP600     -0.1240
      4  O3G       36.0090   72.1260   42.4110 O.3   600  ANP600     -0.1240
      5  PB        38.4390   73.0330   39.2430 P.3   600  ANP600      0.4669
      6  O1B       39.9150   72.8640   39.5130 O.3   600  ANP600     -0.1253
      7  O2B       37.7280   71.9840   38.4350 O.2   600  ANP600     -0.2351
      8  N3B       37.5910   73.3020   40.7510 N.3   600  ANP600     -0.0163
      9  PA        36.7790   75.0010   38.1280 P.3   600  ANP600      0.2220
     10  O1A       36.0930   74.2670   36.9990 O.2   600  ANP600     -0.5170
     11  O2A       36.0680   75.0930   39.4520 O.3   600  ANP600     -0.4370
     12  O3A       38.2470   74.3820   38.3860 O.3   600  ANP600     -0.2360
     13  O5'       37.2040   76.4600   37.5910 O.3   600  ANP600     -0.3111
     14  C5'       38.1520   77.2800   38.2760 C.3   600  ANP600      0.1813
     15  C4'       37.5900   78.6980   38.3360 C.3   600  ANP600      0.1821
     16  O4'       37.5020   79.2810   37.0290 O.3   600  ANP600     -0.3135
     17  C3'       36.1640   78.7180   38.8550 C.3   600  ANP600      0.2184
     18  O3'       36.1420   78.8680   40.2660 O.3   600  ANP600     -0.2174
     19  C2'       35.5410   79.9150   38.1800 C.3   600  ANP600      0.2570
     20  O2'       35.8720   81.1250   38.8650 O.3   600  ANP600     -0.2130
     21  C1'       36.2640   79.9650   36.8610 C.3   600  ANP600      0.3186
     22  N9        35.4340   79.2650   35.8590 N.pl3 600  ANP600     -0.1439
     23  C8        35.4110   77.9410   35.6050 C.3   600  ANP600      0.3377
     24  N7        34.5180   77.6630   34.6150 N.2   600  ANP600     -0.2095
     25  C5        33.9680   78.8340   34.2260 C.2   600  ANP600      0.2526
     26  C6        32.9660   79.2760   33.2300 C.2   600  ANP600      0.4393
     27  N6        32.3370   78.4030   32.4110 N.pl3 600  ANP600      0.2180
     28  N1        32.6840   80.5880   33.1620 N.2   600  ANP600      0.0021
     29  C2        33.2930   81.4900   33.9630 C.3   600  ANP600      0.5254
     30  N3        34.2030   81.1600   34.8840 N.2   600  ANP600     -0.0055
     31  C4        34.5760   79.8780   35.0530 C.2   600  ANP600      0.3518
@<TRIPOS>BOND
     1    27    26    1
     2    28    26    2
     3    28    29    1
     4    26    25    1
     5    29    30    1
     6    25    24    2
     7    25    31    1
     8    24    23    1
     9    30    31    2
    10    31    22    1
    11    23    22    1
    12    22    21    1
    13    21    16    1
    14    21    19    1
    15    10     9    2
    16    16    15    1
    17    13     9    1
    18    13    14    1
    19     9    12    1
    20     9    11    1
    21    19    17    1
    22    19    20    1
    23    14    15    1
    24    15    17    1
    25    12     5    1
    26     7     5    2
    27    17    18    1
    28     5     6    1
    29     5     8    1
    30     8     1    1
    31     2     1    2
    32     1     4    1
    33     1     3    1
