@<TRIPOS>MOLECULE
2xao_5MY_A_1.pdb
 32 32 0 0 0
SMALL
GASTEIGER

@<TRIPOS>ATOM
      1  O31       43.0130   73.8320   47.9540 O.2   500  5MY500     -0.2224
      2  P1        43.1120   72.5350   48.7320 P.3   500  5MY500      0.5327
      3  O21       44.1040   71.5100   48.2280 O.3   500  5MY500     -0.1145
      4  O41       43.1050   72.7370   50.2290 O.3   500  5MY500     -0.1145
      5  O11       41.7110   71.8400   48.3810 O.3   500  5MY500     -0.2674
      6  C1        41.5910   70.4400   48.5600 C.3   500  5MY500      0.1890
      7  C2        41.3360   69.8030   47.2010 C.3   500  5MY500      0.2119
      8  O12       40.2750   70.5010   46.5300 O.3   500  5MY500     -0.2177
      9  C3        41.0470   68.3020   47.3620 C.3   500  5MY500      0.1890
     10  O13       40.6200   67.7160   46.1350 O.3   500  5MY500     -0.2674
     11  P3        41.6330   67.4290   44.9080 P.3   500  5MY500      0.5327
     12  O23       40.8280   66.4330   44.0830 O.2   500  5MY500     -0.2224
     13  O33       42.9020   66.8630   45.5210 O.3   500  5MY500     -0.1145
     14  O43       41.8510   68.7870   44.2710 O.3   500  5MY500     -0.1145
     15  C6        40.4820   70.1750   49.5740 C.3   500  5MY500      0.1864
     16  O16       40.8280   70.6610   50.8750 O.3   500  5MY500     -0.2675
     17  P6        39.9470   71.7670   51.6540 P.3   500  5MY500      0.5327
     18  O26       38.8270   72.1630   50.7170 O.2   500  5MY500     -0.2224
     19  O36       40.9330   72.8780   51.9280 O.3   500  5MY500     -0.1145
     20  O46       39.4810   71.0310   52.8790 O.3   500  5MY500     -0.1145
     21  C5        40.2090   68.6990   49.7310 C.3   500  5MY500      0.1863
     22  O15       39.0050   68.6730   50.4720 O.3   500  5MY500     -0.2675
     23  P5        38.8690   67.9340   51.8830 P.3   500  5MY500      0.5327
     24  O25       39.8340   68.6460   52.8170 O.3   500  5MY500     -0.1145
     25  O35       39.2560   66.5060   51.5920 O.2   500  5MY500     -0.2224
     26  O45       37.3930   68.1490   52.1410 O.3   500  5MY500     -0.1145
     27  C4        39.9720   67.9980   48.4010 C.3   500  5MY500      0.1864
     28  O14       40.0220   66.6040   48.6490 O.3   500  5MY500     -0.2675
     29  P4        38.7760   65.6190   48.4760 P.3   500  5MY500      0.5327
     30  O34       38.3040   65.3590   49.8730 O.3   500  5MY500     -0.1145
     31  O44       37.7760   66.3810   47.6520 O.2   500  5MY500     -0.2224
     32  O24       39.4230   64.4190   47.8200 O.3   500  5MY500     -0.1145
@<TRIPOS>BOND
     1    12    11    2
     2    14    11    1
     3    11    13    1
     4    11    10    1
     5    10     9    1
     6     8     7    1
     7     7     9    1
     8     7     6    1
     9     9    27    1
    10    31    29    2
    11    32    29    1
    12     1     2    2
    13     3     2    1
    14     5     6    1
    15     5     2    1
    16    27    28    1
    17    27    21    1
    18    29    28    1
    19    29    30    1
    20     6    15    1
    21     2     4    1
    22    15    21    1
    23    15    16    1
    24    21    22    1
    25    22    23    1
    26    18    17    2
    27    16    17    1
    28    25    23    2
    29    17    19    1
    30    17    20    1
    31    23    26    1
    32    23    24    1
