@<TRIPOS>MOLECULE
2xaq_M84_A_1.pdb
 19 20 0 0 0
SMALL
GASTEIGER

@<TRIPOS>ATOM
      1  O4B       -6.1730   51.1540   87.4930 O.2   901  M84901     -0.2680
      2  C4B       -4.9510   51.1460   87.3970 C.2   901  M84901      0.2690
      3  CW2       -4.1610   49.9220   87.8130 C.ar  901  M84901      0.0554
      4  CW3       -4.8080   48.7770   88.2980 C.ar  901  M84901      0.0046
      5  CW4       -4.0700   47.6500   88.6790 C.ar  901  M84901      0.0001
      6  CW5       -2.6770   47.6440   88.5860 C.ar  901  M84901      0.0000
      7  CW6       -2.0160   48.7860   88.1030 C.ar  901  M84901      0.0001
      8  CW7       -2.7610   49.9150   87.7210 C.ar  901  M84901      0.0046
      9  NB4       -4.2820   52.2090   86.9450 N.am  901  M84901     -0.1754
     10  CB4       -4.7520   53.1740   86.0330 C.ar  901  M84901      0.0737
     11  CB3       -4.2550   54.4530   86.2050 C.ar  901  M84901      0.0163
     12  CB2       -4.6590   55.4640   85.3450 C.ar  901  M84901     -0.0029
     13  CB5       -5.6430   52.9240   84.9700 C.ar  901  M84901      0.0163
     14  CB6       -6.0480   53.9540   84.0980 C.ar  901  M84901     -0.0029
     15  CB1       -5.5440   55.2440   84.2890 C.ar  901  M84901     -0.0217
     16  C3B       -5.8770   56.4550   83.4440 C.3   901  M84901      0.0346
     17  C2B       -6.5200   56.1150   82.1210 C.3   901  M84901      0.0769
     18  C1B       -7.5370   57.1620   81.7100 C.2   901  M84901      0.2077
     19  O1B       -8.1940   57.0150   80.6950 O.2   901  M84901     -0.2883
@<TRIPOS>BOND
     1    19    18    2
     2    18    17    1
     3    17    16    1
     4    16    15    1
     5    14    15   ar
     6    14    13   ar
     7    15    12   ar
     8    13    10   ar
     9    12    11   ar
    10    10    11   ar
    11    10     9    1
    12     9     2   am
    13     2     1    2
    14     2     3    1
    15     8     3   ar
    16     8     7   ar
    17     3     4   ar
    18     7     6   ar
    19     4     5   ar
    20     6     5   ar
