@<TRIPOS>MOLECULE
2xar_I6P_A_1.pdb
 36 36 0 0 0
SMALL
GASTEIGER

@<TRIPOS>ATOM
      1  O42       37.7890   70.0350   42.6300 O.2   500  I6P500     -0.2224
      2  P2        38.4140   71.0200   43.5930 P.3   500  I6P500      0.5327
      3  O22       37.7010   72.3400   43.7540 O.3   500  I6P500     -0.1145
      4  O32       39.9130   71.1540   43.4350 O.3   500  I6P500     -0.1145
      5  O12       38.1850   70.3500   45.0320 O.3   500  I6P500     -0.2675
      6  C2        39.2870   69.7300   45.6940 C.3   500  I6P500      0.1863
      7  C3        39.0190   68.2340   45.7790 C.3   500  I6P500      0.1863
      8  O13       38.8120   67.7490   44.4490 O.3   500  I6P500     -0.2675
      9  P3        40.0380   67.4200   43.4400 P.3   500  I6P500      0.5327
     10  O43       39.4430   66.3660   42.5350 O.2   500  I6P500     -0.2224
     11  O33       41.1510   66.9390   44.3590 O.3   500  I6P500     -0.1145
     12  O23       40.3620   68.6930   42.6880 O.3   500  I6P500     -0.1145
     13  C1        39.4840   70.3810   47.0570 C.3   500  I6P500      0.1863
     14  O11       39.5150   71.7810   46.8810 O.3   500  I6P500     -0.2675
     15  P1        40.8580   72.6430   46.7530 P.3   500  I6P500      0.5327
     16  O41       40.3060   73.7320   45.8570 O.2   500  I6P500     -0.2224
     17  O31       41.1180   73.0460   48.1780 O.3   500  I6P500     -0.1145
     18  O21       41.9290   71.7480   46.1480 O.3   500  I6P500     -0.1145
     19  C6        38.2810   70.1430   47.9350 C.3   500  I6P500      0.1863
     20  O16       38.5400   70.6510   49.2390 O.3   500  I6P500     -0.2675
     21  P6        37.6620   71.8770   49.8030 P.3   500  I6P500      0.5327
     22  O46       36.4800   72.0030   48.8570 O.2   500  I6P500     -0.2224
     23  O36       38.5860   73.0810   49.7880 O.3   500  I6P500     -0.1145
     24  O26       37.2570   71.3990   51.1770 O.3   500  I6P500     -0.1145
     25  C5        37.9170   68.6750   48.0040 C.3   500  I6P500      0.1863
     26  O15       36.6420   68.6430   48.5940 O.3   500  I6P500     -0.2675
     27  P5        36.4440   67.8870   49.9770 P.3   500  I6P500      0.5327
     28  O45       37.2280   68.7170   50.9650 O.3   500  I6P500     -0.1145
     29  O35       37.0310   66.5130   49.7020 O.2   500  I6P500     -0.2224
     30  O25       34.9490   67.9700   50.1630 O.3   500  I6P500     -0.1145
     31  C4        37.7900   67.9910   46.6510 C.3   500  I6P500      0.1863
     32  O14       37.6340   66.6040   46.9130 O.3   500  I6P500     -0.2675
     33  P4        36.3860   65.7790   46.3310 P.3   500  I6P500      0.5327
     34  O24       35.4540   65.6110   47.5000 O.3   500  I6P500     -0.1145
     35  O34       35.8710   66.6940   45.2450 O.2   500  I6P500     -0.2224
     36  O44       37.0130   64.4800   45.8640 O.3   500  I6P500     -0.1145
@<TRIPOS>BOND
     1    10     9    2
     2     1     2    2
     3    12     9    1
     4     4     2    1
     5     9    11    1
     6     9     8    1
     7     2     3    1
     8     2     5    1
     9     8     7    1
    10     5     6    1
    11    35    33    2
    12     6     7    1
    13     6    13    1
    14     7    31    1
    15    16    15    2
    16    36    33    1
    17    18    15    1
    18    33    32    1
    19    33    34    1
    20    31    32    1
    21    31    25    1
    22    15    14    1
    23    15    17    1
    24    14    13    1
    25    13    19    1
    26    19    25    1
    27    19    20    1
    28    25    26    1
    29    26    27    1
    30    22    21    2
    31    20    21    1
    32    29    27    2
    33    23    21    1
    34    21    24    1
    35    27    30    1
    36    27    28    1
