@<TRIPOS>MOLECULE
2xas_M80_A_1.pdb
 32 34 0 0 0
SMALL
GASTEIGER

@<TRIPOS>ATOM
      1  C1B       -7.8880   57.2900   81.2760 C.2   901  M80901      0.2077
      2  O1B       -8.4650   57.2550   80.1840 O.2   901  M80901     -0.2883
      3  C2B       -6.9230   56.2040   81.7000 C.3   901  M80901      0.0769
      4  C3B       -6.0480   56.6430   82.8560 C.3   901  M80901      0.0346
      5  CB1       -6.0620   55.5310   83.8730 C.ar  901  M80901     -0.0217
      6  CB6       -7.2660   54.9230   84.2140 C.ar  901  M80901     -0.0029
      7  CB5       -7.2890   53.8880   85.1450 C.ar  901  M80901      0.0163
      8  CB2       -4.8670   55.0950   84.4560 C.ar  901  M80901     -0.0029
      9  CB3       -4.8890   54.0580   85.3850 C.ar  901  M80901      0.0163
     10  CB4       -6.1090   53.4490   85.7530 C.ar  901  M80901      0.0734
     11  NB4       -6.1730   52.3650   86.6810 N.am  901  M80901     -0.1778
     12  C4B       -5.0730   51.8640   87.2780 C.2   901  M80901      0.2659
     13  O4B       -3.9410   52.3340   87.0870 O.2   901  M80901     -0.2711
     14  CW        -5.2220   50.6760   88.2050 C.3   901  M80901      0.1808
     15  CW1       -3.8020   50.0870   88.3220 C.3   901  M80901      0.0575
     16  CW2       -3.6150   48.6620   88.8070 C.ar  901  M80901     -0.0200
     17  CW3       -3.1620   47.6860   87.9130 C.ar  901  M80901     -0.0042
     18  CW4       -2.9640   46.3740   88.3490 C.ar  901  M80901     -0.0003
     19  CW5       -3.1950   46.0520   89.6850 C.ar  901  M80901     -0.0000
     20  CW6       -3.6270   47.0280   90.5780 C.ar  901  M80901     -0.0003
     21  CW7       -3.8370   48.3330   90.1440 C.ar  901  M80901     -0.0042
     22  NW        -6.0900   49.6260   87.6710 N.am  901  M80901     -0.1607
     23  CY        -5.9080   48.9310   86.5150 C.2   901  M80901      0.4219
     24  OY1       -6.7380   48.0670   86.2130 O.2   901  M80901     -0.2245
     25  OY2       -4.7370   49.1590   85.6100 O.3   901  M80901     -0.4285
     26  CZ        -4.6880   48.8700   84.1900 C.3   901  M80901      0.2368
     27  CZ1       -5.3230   49.9300   83.2800 C.ar  901  M80901      0.0213
     28  CZ2       -6.6600   49.7940   82.8540 C.ar  901  M80901     -0.0007
     29  CZ3       -7.2620   50.7450   82.0190 C.ar  901  M80901     -0.0002
     30  CZ4       -6.5090   51.8480   81.6070 C.ar  901  M80901     -0.0000
     31  CZ5       -5.1740   51.9940   82.0160 C.ar  901  M80901     -0.0002
     32  CZ6       -4.5790   51.0410   82.8480 C.ar  901  M80901     -0.0007
@<TRIPOS>BOND
     1     2     1    2
     2     1     3    1
     3    30    31   ar
     4    30    29   ar
     5     3     4    1
     6    31    32   ar
     7    29    28   ar
     8    32    27   ar
     9    28    27   ar
    10     4     5    1
    11    27    26    1
    12     5     6   ar
    13     5     8   ar
    14    26    25    1
    15     6     7   ar
    16     8     9   ar
    17     7    10   ar
    18     9    10   ar
    19    25    23    1
    20    10    11    1
    21    24    23    2
    22    23    22   am
    23    11    12   am
    24    13    12    2
    25    12    14    1
    26    22    14    1
    27    17    18   ar
    28    17    16   ar
    29    14    15    1
    30    15    16    1
    31    18    19   ar
    32    16    21   ar
    33    19    20   ar
    34    21    20   ar
