@<TRIPOS>MOLECULE
2xat_CLM_A_1.pdb
 20 20 0 0 0
SMALL
GASTEIGER

@<TRIPOS>ATOM
      1  C1        68.5660   38.2710   45.5120 C.3   301  CLM301      0.2356
      2 CL1        70.0180   39.1660   45.6200 Cl    301  CLM301     -0.0870
      3 CL2        68.5780   37.1290   46.8600 Cl    301  CLM301     -0.0870
      4  C2        67.3820   39.2780   45.8670 C.2   301  CLM301      0.2720
      5  O2        67.3430   39.7980   46.9600 O.2   301  CLM301     -0.2706
      6  N2        66.5480   39.4190   44.8340 N.am  301  CLM301     -0.1994
      7  C3        65.3550   40.2780   44.7970 C.3   301  CLM301      0.1626
      8  C4        64.2240   39.6350   43.9870 C.3   301  CLM301      0.2065
      9  O4        63.9740   38.2910   44.5450 O.3   301  CLM301     -0.2184
     10  C5        65.7250   41.7310   44.4280 C.3   301  CLM301      0.1966
     11  O5        64.5830   42.5530   44.6320 O.3   301  CLM301     -0.2163
     12  C6        66.1480   41.7980   42.9590 C.ar  301  CLM301      0.0096
     13  C7        67.4770   41.2190   42.6510 C.ar  301  CLM301     -0.0001
     14  C8        67.9720   41.2200   41.3540 C.ar  301  CLM301      0.0238
     15  C9        67.2110   41.7650   40.3840 C.ar  301  CLM301      0.1429
     16  N9        67.6290   41.8230   38.9620 N.pl3 301  CLM301      0.0577
     17  O9A       68.7520   42.1470   38.7110 O.2   301  CLM301     -0.1261
     18  O9B       66.7780   41.5130   38.1220 O.2   301  CLM301     -0.1261
     19  C10       65.9040   42.3510   40.6080 C.ar  301  CLM301      0.0238
     20  C11       65.3860   42.3570   41.9130 C.ar  301  CLM301     -0.0001
@<TRIPOS>BOND
     1    18    16    2
     2    17    16    2
     3    16    15    1
     4    15    19   ar
     5    15    14   ar
     6    19    20   ar
     7    14    13   ar
     8    20    12   ar
     9    13    12   ar
    10    12    10    1
    11     8     9    1
    12     8     7    1
    13    10    11    1
    14    10     7    1
    15     7     6    1
    16     6     4   am
    17     1     2    1
    18     1     4    1
    19     1     3    1
    20     4     5    2
