@<TRIPOS>MOLECULE
2xat_DCA_A_1.pdb
 47 49 0 0 0
SMALL
GASTEIGER

@<TRIPOS>ATOM
      1  N1A       47.6350   37.5720   38.4290 N.2   302  DCA302      0.0021
      2  C2A       46.7190   36.9580   37.6270 C.3   302  DCA302      0.5254
      3  N3A       46.9040   36.4670   36.3800 N.2   302  DCA302     -0.0055
      4  C4A       48.1740   36.6570   35.9630 C.2   302  DCA302      0.3518
      5  C5A       49.2250   37.2710   36.6630 C.2   302  DCA302      0.2526
      6  C6A       48.9190   37.7500   37.9750 C.2   302  DCA302      0.4393
      7  N6A       49.7990   38.3490   38.7740 N.pl3 302  DCA302      0.2180
      8  N7A       50.3730   37.2760   35.8990 N.2   302  DCA302     -0.2095
      9  C8A       50.0090   36.6790   34.7790 C.3   302  DCA302      0.3377
     10  N9A       48.7060   36.2880   34.7580 N.pl3 302  DCA302     -0.1439
     11  C1B       47.9740   35.5920   33.6670 C.3   302  DCA302      0.3185
     12  C2B       47.7440   36.3880   32.3050 C.3   302  DCA302      0.2543
     13  O2B       46.5960   37.2090   32.4330 O.3   302  DCA302     -0.2131
     14  C3B       47.6610   35.3250   31.2400 C.3   302  DCA302      0.1928
     15  O3B       46.4290   34.8800   30.5820 O.3   302  DCA302     -0.2673
     16  P3B       45.2300   35.6800   29.6470 P.3   302  DCA302      0.5327
     17  O7A       44.2940   34.5740   29.2460 O.3   302  DCA302     -0.1145
     18  O8A       45.9090   36.3110   28.4310 O.2   302  DCA302     -0.2224
     19  O9A       44.5360   36.7000   30.5360 O.3   302  DCA302     -0.1145
     20  C4B       48.3810   34.1550   31.9070 C.3   302  DCA302      0.1795
     21  O4B       48.7030   34.4940   33.2930 O.3   302  DCA302     -0.3136
     22  C5B       49.6000   33.8340   31.1770 C.3   302  DCA302      0.1812
     23  O5B       50.2690   34.9630   30.9210 O.3   302  DCA302     -0.3112
     24  P1A       51.7950   34.8110   30.9980 P.3   302  DCA302      0.2189
     25  O1A       52.4000   36.2010   30.7770 O.3   302  DCA302     -0.4371
     26  O2A       52.0770   33.6300   30.0330 O.2   302  DCA302     -0.5170
     27  O3A       52.1160   34.4210   32.5340 O.3   302  DCA302     -0.2703
     28  P2A       53.6480   34.0080   32.6670 P.3   302  DCA302      0.2188
     29  O4A       54.4760   34.9430   31.7640 O.2   302  DCA302     -0.5170
     30  O5A       53.8080   32.5000   32.4520 O.3   302  DCA302     -0.4371
     31  O6A       53.9980   34.3280   34.2160 O.3   302  DCA302     -0.3138
     32  CBP       53.7320   35.3840   36.4220 C.3   302  DCA302      0.0645
     33  CCP       53.5920   35.4770   34.9050 C.3   302  DCA302      0.1519
     34  CDP       52.4260   34.7710   36.9720 C.3   302  DCA302      0.0056
     35  CEP       54.9210   34.4910   36.7640 C.3   302  DCA302      0.0056
     36  CAP       53.9470   36.8460   36.9070 C.3   302  DCA302      0.2312
     37  OAP       52.9730   37.6930   36.3670 O.3   302  DCA302     -0.2131
     38  C9P       54.2440   37.1350   38.3800 C.2   302  DCA302      0.2719
     39  O9P       53.3730   37.1130   39.2300 O.2   302  DCA302     -0.2706
     40  N8P       55.5450   37.4330   38.6120 N.am  302  DCA302     -0.2028
     41  C7P       56.0990   37.7850   39.9140 C.3   302  DCA302      0.1248
     42  C6P       56.8830   39.1200   39.8300 C.3   302  DCA302      0.1102
     43  C5P       56.9800   39.8790   41.1540 C.2   302  DCA302      0.2432
     44  O5P       55.9650   40.2360   41.7860 O.2   302  DCA302     -0.2733
     45  N4P       58.2510   40.1290   41.5770 N.am  302  DCA302     -0.2054
     46  C3P       58.5660   40.8370   42.8120 C.3   302  DCA302      0.1152
     47  C2P       59.5600   40.0380   43.6750 C.3   302  DCA302      0.0252
@<TRIPOS>BOND
     1    18    16    2
     2    17    16    1
     3    16    19    1
     4    16    15    1
     5    26    24    2
     6    15    14    1
     7    25    24    1
     8    23    24    1
     9    23    22    1
    10    24    27    1
    11    22    20    1
    12    14    20    1
    13    14    12    1
    14    29    28    2
    15    20    21    1
    16    12    13    1
    17    12    11    1
    18    30    28    1
    19    27    28    1
    20    28    31    1
    21    21    11    1
    22    11    10    1
    23    31    33    1
    24    10     9    1
    25    10     4    1
    26     9     8    1
    27    33    32    1
    28     8     5    2
    29     4     3    2
    30     4     5    1
    31    37    36    1
    32     3     2    1
    33    32    35    1
    34    32    36    1
    35    32    34    1
    36     5     6    1
    37    36    38    1
    38     2     1    1
    39     6     1    2
    40     6     7    1
    41    38    40   am
    42    38    39    2
    43    40    41    1
    44    42    41    1
    45    42    43    1
    46    43    45   am
    47    43    44    2
    48    45    46    1
    49    46    47    1
