@<TRIPOS>MOLECULE
2xau_ADP_A_1.pdb
 27 29 0 0 0
SMALL
GASTEIGER

@<TRIPOS>ATOM
      1  PB        28.9010  100.9240   72.0070 P.3   1750  ADP1750     0.5373
      2  O1B       28.4560   99.8560   70.9930 O.2   1750  ADP1750    -0.2221
      3  O2B       28.4690  102.2900   71.6330 O.3   1750  ADP1750    -0.1143
      4  O3B       28.5490  100.6340   73.4510 O.3   1750  ADP1750    -0.1143
      5  PA        31.6280  100.5350   73.0280 P.3   1750  ADP1750     0.2231
      6  O1A       31.6920  101.5970   74.0930 O.3   1750  ADP1750    -0.4370
      7  O2A       31.3580   99.1000   73.2410 O.2   1750  ADP1750    -0.5169
      8  O3A       30.5210  101.1000   71.9820 O.3   1750  ADP1750    -0.2261
      9  O5'       32.9650  100.4610   72.0840 O.3   1750  ADP1750    -0.3111
     10  C5'       33.5940  101.6610   71.7550 C.3   1750  ADP1750     0.1813
     11  C4'       34.8540  101.3130   70.9910 C.3   1750  ADP1750     0.1821
     12  O4'       35.7650  100.6920   71.8830 O.3   1750  ADP1750    -0.3135
     13  C3'       34.6060  100.3290   69.8600 C.3   1750  ADP1750     0.2184
     14  O3'       34.4570  101.0420   68.6010 O.3   1750  ADP1750    -0.2174
     15  C2'       35.8450   99.4920   69.8640 C.3   1750  ADP1750     0.2570
     16  O2'       36.6730  100.2940   69.0650 O.3   1750  ADP1750    -0.2130
     17  C1'       36.4680   99.6550   71.2290 C.3   1750  ADP1750     0.3186
     18  N9        36.2490   98.5200   72.1110 N.pl3 1750  ADP1750    -0.1439
     19  C8        35.0730   98.1830   72.5990 C.3   1750  ADP1750     0.3377
     20  N7        35.1930   97.0890   73.3870 N.2   1750  ADP1750    -0.2095
     21  C5        36.4750   96.7710   73.3930 C.2   1750  ADP1750     0.2526
     22  C6        37.2470   95.7320   74.0280 C.2   1750  ADP1750     0.4393
     23  N6        36.5620   94.8590   74.8020 N.pl3 1750  ADP1750     0.2180
     24  N1        38.5830   95.6690   73.8020 N.2   1750  ADP1750     0.0021
     25  C2        39.1670   96.5670   73.0200 C.3   1750  ADP1750     0.5254
     26  N3        38.5160   97.5540   72.4030 N.2   1750  ADP1750    -0.0055
     27  C4        37.1750   97.6950   72.5430 C.2   1750  ADP1750     0.3518
@<TRIPOS>BOND
     1    14    13    1
     2    16    15    1
     3    13    15    1
     4    13    11    1
     5    15    17    1
     6    11    10    1
     7    11    12    1
     8     2     1    2
     9    17    12    1
    10    17    18    1
    11     3     1    1
    12    10     9    1
    13     8     1    1
    14     8     5    1
    15     1     4    1
    16     9     5    1
    17    18    27    1
    18    18    19    1
    19    26    27    2
    20    26    25    1
    21    27    21    1
    22    19    20    1
    23    25    24    1
    24     5     7    2
    25     5     6    1
    26    20    21    2
    27    21    22    1
    28    24    22    2
    29    22    23    1
