@<TRIPOS>MOLECULE
2xb5_I7T_A_1.pdb
 31 34 0 0 0
SMALL
GASTEIGER

@<TRIPOS>ATOM
      1  O12       22.5450   35.6700   32.3740 O.2   222  I7T222     -0.2885
      2  C12       22.1330   35.9310   33.6310 C.2   222  I7T222      0.2066
      3  C1B       22.1250   37.1840   34.1050 C.2   222  I7T222      0.0543
      4  C11       22.5800   38.3130   33.2950 C.2   222  I7T222      0.1972
      5  O11       23.0080   38.1880   32.1060 O.2   222  I7T222     -0.2867
      6  C1A       22.3510   39.6770   33.8750 C.ar  222  I7T222      0.0741
      7  C10       22.9960   40.7380   33.3160 C.ar  222  I7T222      0.1984
      8  O10       23.7180   40.5080   32.2600 O.3   222  I7T222     -0.2865
      9  C9        22.8520   42.0260   33.7930 C.ar  222  I7T222      0.0425
     10  C8        22.0490   42.2760   34.8740 C.ar  222  I7T222      0.0087
     11  C7        21.4120   41.2280   35.4860 C.ar  222  I7T222      0.0264
     12  C61       21.5600   39.9100   34.9960 C.ar  222  I7T222     -0.0103
     13  C6        20.8690   38.7510   35.6360 C.3   222  I7T222      0.0315
     14  C5        21.0660   36.3500   36.2620 C.3   222  I7T222      0.0100
     15  C1C       21.6510   34.7810   34.4970 C.3   222  I7T222      0.2367
     16  C1        20.1850   34.5120   34.2420 C.2   222  I7T222      0.2148
     17  O1        19.6240   35.0290   33.2780 O.2   222  I7T222     -0.2880
     18  O1C       22.3950   33.5950   34.1730 O.3   222  I7T222     -0.2098
     19  C41       21.8000   35.0560   35.9660 C.3   222  I7T222      0.0649
     20  C4        21.2660   33.9270   36.8610 C.3   222  I7T222      0.1235
     21  N4        22.2910   33.0970   37.5760 N.3   222  I7T222     -0.2651
     22  C42       22.7570   33.9320   38.7130 C.3   222  I7T222      0.0900
     23  C43       23.4210   32.6430   36.7490 C.3   222  I7T222      0.0900
     24  C3        20.1350   33.1720   36.2330 C.2   222  I7T222      0.1948
     25  O3        19.6330   32.2160   36.9560 O.2   222  I7T222     -0.2897
     26  C2        19.5390   33.4900   35.0770 C.2   222  I7T222      0.1300
     27  C21       18.2880   32.8150   34.5690 C.2   222  I7T222      0.2899
     28  O21       17.5590   32.0670   35.2430 O.2   222  I7T222     -0.2665
     29  N21       17.8120   33.1530   33.3700 N.am  222  I7T222     -0.0835
     30  C5A       21.7450   37.5160   35.5350 C.3   222  I7T222      0.0329
     31  I7        20.2300   41.7670   37.1440 I     222  I7T222     -0.0428
@<TRIPOS>BOND
     1     5     4    2
     2     8     7    1
     3     1     2    1
     4    17    16    2
     5     4     6    1
     6     4     3    1
     7     7     9   ar
     8     7     6   ar
     9    29    27   am
    10     2     3    2
    11     2    15    1
    12     9    10   ar
    13     6    12   ar
    14     3    30    1
    15    18    15    1
    16    16    15    1
    17    16    26    1
    18    15    19    1
    19    27    26    1
    20    27    28    2
    21    10    11   ar
    22    12    11   ar
    23    12    13    1
    24    26    24    2
    25    11    31    1
    26    30    13    1
    27    30    14    1
    28    19    14    1
    29    19    20    1
    30    24    20    1
    31    24    25    1
    32    23    21    1
    33    20    21    1
    34    21    22    1
