@<TRIPOS>MOLECULE
2xb7_GUI_A_1.pdb
 42 46 0 0 0
SMALL
GASTEIGER

@<TRIPOS>ATOM
      1  C1         4.2870   15.4460   10.0290 C.2   1501  GUI1501     0.1241
      2  C2         4.7200   16.3370    9.0930 C.2   1501  GUI1501     0.2283
      3  N3         3.8990   17.4430    8.7810 N.2   1501  GUI1501    -0.3180
      4  C4         2.7730   17.6350    9.3430 C.1   1501  GUI1501     0.1711
      5  N5         2.3200   16.7180   10.3130 N.2   1501  GUI1501    -0.1674
      6  C6         3.0110   15.6870   10.6500 C.2   1501  GUI1501     0.1271
      7  N7         2.0020   18.7660    8.9820 N.pl3 1501  GUI1501    -0.1326
      8  C8         2.2960   19.9070    8.1640 C.ar  1501  GUI1501     0.1165
      9  C9         3.5850   20.2860    8.0120 C.ar  1501  GUI1501     0.0217
     10  C10        3.9490   21.4550    7.1890 C.ar  1501  GUI1501     0.0161
     11  C11        2.9890   22.1840    6.5630 C.ar  1501  GUI1501     0.0510
     12  C12        1.5600   21.7710    6.7270 C.ar  1501  GUI1501     0.0528
     13  C13        1.2160   20.6900    7.4820 C.ar  1501  GUI1501     0.1559
     14  O14       -0.1320   20.2700    7.6580 O.3   1501  GUI1501    -0.4700
     15  C15       -1.1550   21.0590    7.0330 C.3   1501  GUI1501     0.2525
     16  N16        3.3400   23.3290    5.7680 N.pl3 1501  GUI1501    -0.3073
     17  C17        4.7730   23.5600    5.4200 C.3   1501  GUI1501     0.0922
     18  C18        5.1220   25.0510    5.1920 C.3   1501  GUI1501     0.0374
     19  C19        4.0770   25.6840    4.2290 C.3   1501  GUI1501     0.0610
     20  C20        2.7400   25.7100    5.0190 C.3   1501  GUI1501     0.0374
     21  C21        2.2610   24.2620    5.3230 C.3   1501  GUI1501     0.0922
     22  N22        4.4800   27.0900    3.8370 N.3   1501  GUI1501    -0.2715
     23  C23        3.6020   27.6010    2.7240 C.3   1501  GUI1501     0.0896
     24  C24        3.9680   29.0810    2.4060 C.3   1501  GUI1501     0.0897
     25  N25        5.4250   29.2020    2.0740 N.3   1501  GUI1501    -0.2691
     26  C26        6.3110   28.6170    3.1280 C.3   1501  GUI1501     0.0897
     27  C27        5.9170   27.1390    3.3880 C.3   1501  GUI1501     0.0896
     28  C28        5.7680   30.6270    1.9080 C.3   1501  GUI1501     0.0897
     29  N29        5.9890   16.1340    8.4520 N.pl3 1501  GUI1501    -0.1807
     30  C30        6.5630   16.8860    7.3780 C.ar  1501  GUI1501     0.0902
     31  C31        7.9170   16.8330    7.2040 C.ar  1501  GUI1501     0.1208
     32  C32        8.5520   17.6050    6.0930 C.ar  1501  GUI1501     0.0197
     33  C33        7.7900   18.3610    5.2570 C.ar  1501  GUI1501     0.0014
     34  C34        6.3230   18.4210    5.4450 C.ar  1501  GUI1501     0.0014
     35  C35        5.7460   17.7210    6.4480 C.ar  1501  GUI1501     0.0179
     36  S36        8.9330   15.8540    8.3060 S.O2  1501  GUI1501     0.0082
     37  C37        9.7310   16.9320    9.5250 C.3   1501  GUI1501     0.1340
     38  C38        8.7090   17.9030   10.1480 C.3   1501  GUI1501     0.0257
     39  C39       10.8460   17.7380    8.8330 C.3   1501  GUI1501     0.0257
     40  O40       10.0460   15.1680    7.5310 O.2   1501  GUI1501    -0.1686
     41  O41        8.1120   14.8220    9.0490 O.2   1501  GUI1501    -0.1686
     42 CL          5.2040   14.0610   10.4860 Cl    1501  GUI1501    -0.0764
@<TRIPOS>BOND
     1    28    25    1
     2    25    24    1
     3    25    26    1
     4    24    23    1
     5    23    22    1
     6    26    27    1
     7    27    22    1
     8    22    19    1
     9    19    20    1
    10    19    18    1
    11    20    21    1
    12    18    17    1
    13    33    34   ar
    14    33    32   ar
    15    21    16    1
    16    17    16    1
    17    34    35   ar
    18    16    11    1
    19    32    31   ar
    20    35    30   ar
    21    11    12   ar
    22    11    10   ar
    23    12    13   ar
    24    15    14    1
    25    10     9   ar
    26    31    30   ar
    27    31    36    1
    28    30    29    1
    29    13    14    1
    30    13     8   ar
    31    40    36    2
    32     9     8   ar
    33     8     7    1
    34    36    41    2
    35    36    37    1
    36    29     2    1
    37     3     2    2
    38     3     4    2
    39    39    37    1
    40     7     4    1
    41     2     1    1
    42     4     5    2
    43    37    38    1
    44     1    42    1
    45     1     6    2
    46     5     6    1
