@<TRIPOS>MOLECULE
2xb8_XNW_A_1.pdb
 22 23 0 0 0
SMALL
GASTEIGER

@<TRIPOS>ATOM
      1  CAA       20.2440    1.6680   36.8330 C.3   1144  XNW1144     0.2525
      2  OAN       19.1300    1.4710   35.9620 O.3   1144  XNW1144    -0.4714
      3  CAR       17.9740    2.0160   36.4940 C.ar  1144  XNW1144     0.1387
      4  CAK       16.8010    1.6940   35.8640 C.ar  1144  XNW1144     0.0366
      5  CAI       15.5680    2.1550   36.2860 C.ar  1144  XNW1144    -0.0011
      6  CAJ       17.8850    2.8580   37.6010 C.ar  1144  XNW1144     0.0366
      7  CAH       16.6240    3.3330   38.0230 C.ar  1144  XNW1144    -0.0011
      8  CAQ       15.4490    2.9840   37.3600 C.ar  1144  XNW1144    -0.0215
      9  CAL       14.0320    3.4540   37.7030 C.3   1144  XNW1144     0.0368
     10  CAU       13.3690    2.7050   38.8520 C.3   1144  XNW1144     0.1032
     11  CAP       13.7620    3.3750   40.1680 C.2   1144  XNW1144     0.1862
     12  OAC       14.5280    4.3410   40.2000 O.2   1144  XNW1144    -0.2932
     13  CAT       13.1820    2.8490   41.4630 C.3   1144  XNW1144     0.2388
     14  OAF       13.4440    3.8120   42.5080 O.3   1144  XNW1144    -0.2124
     15  CAS       11.6670    2.7290   41.2950 C.3   1144  XNW1144     0.1924
     16  OAE       11.1380    2.0430   42.4370 O.3   1144  XNW1144    -0.2198
     17  CAM       11.2430    2.0270   39.9810 C.3   1144  XNW1144     0.0780
     18  CAV       11.8430    2.6660   38.7210 C.3   1144  XNW1144     0.2282
     19  CAO       11.4610    1.8070   37.4960 C.2   1144  XNW1144     0.3921
     20  OAD       11.5010    0.5520   37.6400 O.co2 1144  XNW1144    -0.2429
     21  OAB       11.0610    2.4200   36.4670 O.co2 1144  XNW1144    -0.2429
     22  OAG       11.2760    3.9950   38.5400 O.3   1144  XNW1144    -0.2136
@<TRIPOS>BOND
     1     4     5   ar
     2     4     3   ar
     3     2     3    1
     4     2     1    1
     5     5     8   ar
     6    21    19   ar
     7     3     6   ar
     8     8     9    1
     9     8     7   ar
    10    19    20   ar
    11    19    18    1
    12     6     7   ar
    13     9    10    1
    14    22    18    1
    15    18    10    1
    16    18    17    1
    17    10    11    1
    18    17    15    1
    19    11    12    2
    20    11    13    1
    21    15    13    1
    22    15    16    1
    23    13    14    1
