@<TRIPOS>MOLECULE
2xb9_CIT_C_1.pdb
 13 12 0 0 0
SMALL
GASTEIGER

@<TRIPOS>ATOM
      1  C1        -2.0260   39.0460   21.5560 C.2   201  CIT201      0.3680
      2  O1        -1.6770   39.7450   20.5920 O.co2 201  CIT201     -0.2455
      3  O2        -2.3750   37.8690   21.2330 O.co2 201  CIT201     -0.2455
      4  C2        -1.9900   39.6580   22.9620 C.3   201  CIT201      0.1560
      5  C3        -1.8780   38.6510   24.1140 C.3   201  CIT201      0.2402
      6  O7        -3.2100   38.4750   24.6260 O.3   201  CIT201     -0.2129
      7  C4        -1.1570   37.3430   23.7660 C.3   201  CIT201      0.1560
      8  C5        -2.1050   36.2120   23.9030 C.2   201  CIT201      0.3680
      9  O3        -1.8310   35.3490   24.7320 O.co2 201  CIT201     -0.2455
     10  O4        -3.1570   36.1050   23.2380 O.co2 201  CIT201     -0.2455
     11  C6        -1.0560   39.1320   25.2750 C.2   201  CIT201      0.3927
     12  O5         0.1800   39.1590   25.1640 O.co2 201  CIT201     -0.2429
     13  O6        -1.5780   39.4330   26.3510 O.co2 201  CIT201     -0.2429
@<TRIPOS>BOND
     1     2     1   ar
     2     3     1   ar
     3     1     4    1
     4     4     5    1
     5    10     8   ar
     6     7     8    1
     7     7     5    1
     8     8     9   ar
     9     5     6    1
    10     5    11    1
    11    12    11   ar
    12    11    13   ar
