@<TRIPOS>MOLECULE
2xb9_XNW_A_1.pdb
 22 23 0 0 0
SMALL
GASTEIGER

@<TRIPOS>ATOM
      1  CAA      -25.7840   50.9720   20.0910 C.3   201  XNW201      0.2525
      2  OAN      -25.3440   49.6590   19.7320 O.3   201  XNW201     -0.4714
      3  CAR      -25.3320   49.3550   18.3840 C.ar  201  XNW201      0.1387
      4  CAK      -24.5500   48.3120   17.9120 C.ar  201  XNW201      0.0366
      5  CAI      -24.5360   47.9630   16.5560 C.ar  201  XNW201     -0.0011
      6  CAJ      -26.0870   50.0560   17.4450 C.ar  201  XNW201      0.0366
      7  CAH      -26.0610   49.7220   16.0790 C.ar  201  XNW201     -0.0011
      8  CAQ      -25.2670   48.6720   15.5990 C.ar  201  XNW201     -0.0215
      9  CAL      -25.2710   48.2810   14.0750 C.3   201  XNW201      0.0368
     10  CAU      -24.1480   48.7800   13.2100 C.3   201  XNW201      0.1032
     11  CAP      -22.9400   48.0570   13.6940 C.2   201  XNW201      0.1862
     12  OAC      -23.0620   47.1330   14.5070 O.2   201  XNW201     -0.2932
     13  CAT      -21.6050   48.4160   12.9860 C.3   201  XNW201      0.2388
     14  OAF      -20.4790   47.7140   13.5780 O.3   201  XNW201     -0.2124
     15  CAS      -21.8160   48.1050   11.4780 C.3   201  XNW201      0.1924
     16  OAE      -20.6560   48.4410   10.7520 O.3   201  XNW201     -0.2198
     17  CAM      -23.0350   48.8630   10.9140 C.3   201  XNW201      0.0780
     18  CAV      -24.3000   48.4620   11.6770 C.3   201  XNW201      0.2282
     19  CAO      -25.4730   49.2550   11.1380 C.2   201  XNW201      0.3921
     20  OAD      -25.3330   50.4930   10.9930 O.co2 201  XNW201     -0.2429
     21  OAB      -26.5090   48.6050   10.9410 O.co2 201  XNW201     -0.2429
     22  OAG      -24.5540   47.0660   11.3660 O.3   201  XNW201     -0.2136
@<TRIPOS>BOND
     1    16    15    1
     2    17    15    1
     3    17    18    1
     4    21    19   ar
     5    20    19   ar
     6    19    18    1
     7    22    18    1
     8    15    13    1
     9    18    10    1
    10    13    14    1
    11    13    11    1
    12    10    11    1
    13    10     9    1
    14    11    12    2
    15     9     8    1
    16     8     7   ar
    17     8     5   ar
    18     7     6   ar
    19     5     4   ar
    20     6     3   ar
    21     4     3   ar
    22     3     2    1
    23     2     1    1
