@<TRIPOS>MOLECULE
2xba_571_A_1.pdb
 34 38 0 0 0
SMALL
GASTEIGER

@<TRIPOS>ATOM
      1  C16        4.6820   13.7800    9.8980 C.3   1501  5711501     0.1482
      2  N20        0.9430   26.6050    5.9270 N.3   1501  5711501    -0.2686
      3  C19        1.8540   25.9520    4.9950 C.3   1501  5711501     0.0938
      4  C18        1.6000   24.4180    4.8520 C.3   1501  5711501     0.1081
      5  N17        1.1200   23.7830    6.0910 N.pl3 1501  5711501    -0.3046
      6  C22        0.1620   24.4930    6.9420 C.3   1501  5711501     0.1081
      7  C21        0.5440   25.9700    7.1580 C.3   1501  5711501     0.0938
      8  C23        0.4420   27.9150    5.6210 C.3   1501  5711501     0.0897
      9  C24        1.5650   22.5010    6.4650 C.ar  1501  5711501     0.0479
     10  C10        2.8580   22.0440    6.0740 C.ar  1501  5711501     0.0147
     11  C9         3.2920   20.7510    6.4610 C.ar  1501  5711501     0.0082
     12  C7         2.4380   19.9130    7.2410 C.ar  1501  5711501     0.0821
     13  C12        1.1510   20.3610    7.6320 C.ar  1501  5711501     0.0082
     14  C11        0.7120   21.6420    7.2500 C.ar  1501  5711501     0.0147
     15  C6         2.8910   18.5990    7.6350 C.2   1501  5711501     0.3756
     16  N5         2.2720   17.9350    8.6380 N.am  1501  5711501     0.0385
     17  C3         2.5990   16.6350    9.2050 C.2   1501  5711501     0.3979
     18  N2         2.3810   14.7560   10.3330 N.2   1501  5711501    -0.0365
     19  N4         1.7790   15.9590    9.9250 N.2   1501  5711501     0.0844
     20  C13        3.5600   14.7400    9.8430 C.2   1501  5711501     0.1343
     21  C14        3.7930   15.8220    9.1470 C.2   1501  5711501     0.1225
     22  C15        5.1280   15.8840    8.5550 C.2   1501  5711501     0.0769
     23  N1         5.6430   14.5890    9.0590 N.am  1501  5711501    -0.2488
     24  C25        6.9540   14.1570    8.8070 C.2   1501  5711501     0.2645
     25  C20        7.9790   15.0640    8.1000 C.3   1501  5711501     0.2501
     26  C27        8.4280   16.1920    9.0410 C.ar  1501  5711501     0.0166
     27  O26        7.3130   13.0450    9.2030 O.2   1501  5711501    -0.2714
     28  O8         3.8400   18.0920    7.0360 O.2   1501  5711501    -0.2377
     29  C29        8.4860   17.5180    8.5450 C.ar  1501  5711501    -0.0013
     30  C33        8.8760   18.5790    9.4090 C.ar  1501  5711501    -0.0002
     31  C35        9.2020   18.3150   10.7710 C.ar  1501  5711501    -0.0000
     32  C31        9.1440   16.9880   11.2660 C.ar  1501  5711501    -0.0002
     33  C28        8.7610   15.9350   10.4100 C.ar  1501  5711501    -0.0013
     34  O34        9.1010   14.3230    7.7080 O.3   1501  5711501    -0.2083
@<TRIPOS>BOND
     1     4     3    1
     2     4     5    1
     3     3     2    1
     4     8     2    1
     5     2     7    1
     6    10    11   ar
     7    10     9   ar
     8     5     9    1
     9     5     6    1
    10    11    12   ar
    11     9    14   ar
    12     6     7    1
    13    28    15    2
    14    12    13   ar
    15    12    15    1
    16    14    13   ar
    17    15    16   am
    18    34    25    1
    19    25    24    1
    20    25    26    1
    21    29    26   ar
    22    29    30   ar
    23    22    23    1
    24    22    21    2
    25    16    17    1
    26    24    23   am
    27    24    27    2
    28    26    33   ar
    29    23     1    1
    30    21    17    1
    31    21    20    1
    32    17    19    2
    33    30    31   ar
    34    20     1    1
    35    20    18    2
    36    19    18    1
    37    33    32   ar
    38    31    32   ar
