@<TRIPOS>MOLECULE
2xbj_XBJ_A_1.pdb
 32 35 0 0 0
SMALL
GASTEIGER

@<TRIPOS>ATOM
      1  C01       -5.6570   49.1970    8.3030 C.2   1513  XBJ1513     0.0459
      2  C02       -5.0930   49.7040    9.6490 C.2   1513  XBJ1513     0.1688
      3  C03       -6.0390   50.1640   10.7390 C.2   1513  XBJ1513     0.1569
      4  C04       -7.5380   50.1220   10.5200 C.3   1513  XBJ1513     0.1270
      5  C05       -8.0920   49.6180    9.1760 C.2   1513  XBJ1513     0.1329
      6  N06       -9.5140   49.5970    9.0270 N.2   1513  XBJ1513    -0.3436
      7  C07      -10.0780   49.1710    7.7670 C.1   1513  XBJ1513     0.1422
      8  N08       -9.2180   48.6660    6.7030 N.2   1513  XBJ1513    -0.3230
      9  C09       -7.8380   48.6950    6.8440 C.2   1513  XBJ1513     0.2138
     10  C10       -7.2020   49.1650    8.0990 C.2   1513  XBJ1513     0.0761
     11  N11       -7.2250   48.1390    5.6580 N.pl3 1513  XBJ1513    -0.2091
     12  C12       -7.4610   47.3480    4.4390 C.3   1513  XBJ1513     0.1161
     13  C13       -6.3830   47.0240    3.4740 C.3   1513  XBJ1513     0.0668
     14  C14       -6.7070   45.6410    2.9860 C.3   1513  XBJ1513     0.0929
     15  N15       -8.1030   45.3460    3.4240 N.3   1513  XBJ1513    -0.2161
     16  C16       -8.2530   46.1110    4.6940 C.3   1513  XBJ1513     0.1104
     17  C17       -6.2000   48.1170    2.4490 C.3   1513  XBJ1513     0.1297
     18  C18       -5.1380   47.7370    1.4370 C.3   1513  XBJ1513     0.0330
     19  C19       -7.5300   48.3100    1.7660 C.3   1513  XBJ1513     0.0330
     20  O20       -5.8590   49.2890    3.0840 O.3   1513  XBJ1513    -0.2256
     21  C21      -11.5370   49.0530    7.5400 C.ar  1513  XBJ1513     0.1266
     22  C22      -12.4270   49.2830    8.6090 C.ar  1513  XBJ1513     0.2071
     23  C23      -13.8760   49.0610    8.4030 C.ar  1513  XBJ1513     0.0451
     24  C24      -14.3410   48.6080    7.1160 C.ar  1513  XBJ1513     0.0330
     25  C25      -13.3570   48.3480    5.9830 C.ar  1513  XBJ1513     0.1411
     26  C26      -12.0100   48.5520    6.1740 C.ar  1513  XBJ1513     0.0449
     27  F27      -13.7770   47.9330    4.8020 F     1513  XBJ1513    -0.2041
     28  O28      -11.9090   49.7200    9.8140 O.3   1513  XBJ1513    -0.2858
     29  O29       -5.6130   50.6330   11.9800 O.2   1513  XBJ1513    -0.4722
     30  C30       -6.5600   50.6360   13.0110 C.3   1513  XBJ1513     0.2521
     31  O31       -3.7240   49.7410    9.8470 O.2   1513  XBJ1513    -0.4687
     32  C32       -2.8890   49.3220    8.8110 C.3   1513  XBJ1513     0.2526
@<TRIPOS>BOND
     1    18    17    1
     2    19    17    1
     3    17    20    1
     4    17    13    1
     5    14    15    1
     6    14    13    1
     7    15    16    1
     8    13    12    1
     9    12    16    1
    10    12    11    1
    11    27    25    1
    12    11     9    1
    13    25    26   ar
    14    25    24   ar
    15    26    21   ar
    16     8     9    2
    17     8     7    2
    18     9    10    1
    19    24    23   ar
    20    21     7    1
    21    21    22   ar
    22     7     6    2
    23    10     1    2
    24    10     5    1
    25     1     2    1
    26    23    22   ar
    27    22    28    1
    28    32    31    1
    29     6     5    2
    30     5     4    1
    31     2    31    1
    32     2     3    2
    33     4     3    1
    34     3    29    1
    35    29    30    1
