@<TRIPOS>MOLECULE
2xbk_HEM_A_1.pdb
 43 50 0 0 0
SMALL
GASTEIGER

@<TRIPOS>ATOM
      1  CHA       34.7830    3.8260    6.3860 C.2   1398  HEM1398     0.0000
      2  CHB       32.3170    0.5350    8.9930 C.2   1398  HEM1398     0.0000
      3  CHC       30.1970    4.0640   11.4490 C.2   1398  HEM1398     0.0000
      4  CHD       32.4920    7.4620    8.7960 C.2   1398  HEM1398     0.0000
      5  C1A       34.2920    2.6460    6.8830 C.2   1398  HEM1398     0.0000
      6  C2A       34.6930    1.3590    6.4230 C.2   1398  HEM1398     0.0000
      7  C3A       34.0070    0.4380    7.1330 C.2   1398  HEM1398     0.0000
      8  C4A       33.1600    1.1310    8.0760 C.2   1398  HEM1398     0.0000
      9  CMA       34.1140   -1.1210    6.9120 C.3   1398  HEM1398     0.0000
     10  CAA       35.6410    1.0670    5.2540 C.3   1398  HEM1398     0.0000
     11  CBA       34.7840    1.2600    3.9760 C.3   1398  HEM1398     0.0000
     12  CGA       35.5130    0.7920    2.6990 C.2   1398  HEM1398     0.0000
     13  O1A       34.8560    0.6790    1.6470 O.co2 1398  HEM1398     0.0000
     14  O2A       36.7450    0.5020    2.6790 O.co2 1398  HEM1398     0.0000
     15  C1B       31.4750    1.2050    9.8580 C.ar  1398  HEM1398     0.0000
     16  C2B       30.5510    0.5830   10.7950 C.ar  1398  HEM1398     0.0000
     17  C3B       29.9940    1.5810   11.4870 C.ar  1398  HEM1398     0.0000
     18  C4B       30.4810    2.8240   10.9710 C.ar  1398  HEM1398     0.0000
     19  CMB       30.3100   -0.9540   10.8980 C.3   1398  HEM1398     0.0000
     20  CAB       28.9050    1.4570   12.5840 C.2   1398  HEM1398     0.0000
     21  CBB       29.1880    0.6190   13.5840 C.2   1398  HEM1398     0.0000
     22  C1C       30.6730    5.2850   10.9860 C.2   1398  HEM1398     0.0000
     23  C2C       30.2870    6.5890   11.5080 C.2   1398  HEM1398     0.0000
     24  C3C       30.9260    7.4820   10.7640 C.2   1398  HEM1398     0.0000
     25  C4C       31.6940    6.8360    9.7530 C.2   1398  HEM1398     0.0000
     26  CMC       29.3860    6.8250   12.7410 C.3   1398  HEM1398     0.0000
     27  CAC       30.9460    9.0260   10.7460 C.2   1398  HEM1398     0.0000
     28  CBC       30.4840    9.8120   11.6330 C.2   1398  HEM1398     0.0000
     29  C1D       33.2630    6.7610    7.8630 C.ar  1398  HEM1398     0.0000
     30  C2D       33.9850    7.4250    6.7780 C.ar  1398  HEM1398     0.0000
     31  C3D       34.7130    6.3110    6.0790 C.ar  1398  HEM1398     0.0000
     32  C4D       34.3220    5.0770    6.7360 C.ar  1398  HEM1398     0.0000
     33  CMD       34.0250    8.9740    6.4990 C.3   1398  HEM1398     0.0000
     34  CAD       35.5780    6.4630    4.8210 C.3   1398  HEM1398     0.0000
     35  CBD       36.9770    6.6220    5.3650 C.3   1398  HEM1398     0.0000
     36  CGD       37.9580    6.6260    4.1860 C.2   1398  HEM1398     0.0000
     37  O1D       39.0390    5.9080    4.2410 O.co2 1398  HEM1398     0.0000
     38  O2D       37.6390    7.3470    3.1740 O.co2 1398  HEM1398     0.0000
     39  NA        33.4000    2.4500    7.9570 N.2   1398  HEM1398     0.0000
     40  NB        31.4100    2.5920   10.0070 N.ar  1398  HEM1398     0.0000
     41  NC        31.5440    5.4790    9.9220 N.2   1398  HEM1398     0.0000
     42  ND        33.5060    5.3700    7.8010 N.ar  1398  HEM1398     0.0000
     43 FE         32.5670    3.9740    9.0270 Fe    1398  HEM1398     0.0000
@<TRIPOS>BOND
     1    13    12   ar
     2    14    12   ar
     3    12    11    1
     4    38    36   ar
     5    11    10    1
     6    36    37   ar
     7    36    35    1
     8    34    35    1
     9    34    31    1
    10    10     6    1
    11    31    32   ar
    12    31    30   ar
    13     1    32    2
    14     1     5    1
    15     6     5    1
    16     6     7    2
    17    33    30    1
    18    32    42   ar
    19    30    29   ar
    20     5    39    2
    21     9     7    1
    22     7     8    1
    23    42    29   ar
    24    42    43    1
    25    29     4    2
    26    39     8    1
    27    39    43    1
    28     8     2    2
    29     4    25    1
    30     2    15    1
    31    43    41    1
    32    43    40    1
    33    25    41    2
    34    25    24    1
    35    15    40   ar
    36    15    16   ar
    37    41    22    1
    38    40    18   ar
    39    27    24    1
    40    27    28    2
    41    24    23    2
    42    16    19    1
    43    16    17   ar
    44    18     3    1
    45    18    17   ar
    46    22     3    2
    47    22    23    1
    48    17    20    1
    49    23    26    1
    50    20    21    2
