@<TRIPOS>MOLECULE
2xbk_XBK_A_1.pdb
 46 48 0 0 0
SMALL
GASTEIGER

@<TRIPOS>ATOM
      1  O9        32.6470    5.0620    1.4430 O.2   1399  XBK1399    -0.2449
      2  C24       32.4170    5.3480    2.5950 C.2   1399  XBK1399     0.3413
      3  C25       32.3180    4.4330    3.7360 C.2   1399  XBK1399     0.0819
      4  C26       31.6460    3.3250    3.5930 C.2   1399  XBK1399     0.0063
      5  C27       31.4900    2.4140    4.7380 C.2   1399  XBK1399    -0.0043
      6  C28       30.8250    1.2870    4.5400 C.2   1399  XBK1399    -0.0235
      7  C29       30.6670    0.3240    5.6700 C.3   1399  XBK1399     0.0591
      8  C30       29.2090    0.0200    5.8950 C.3   1399  XBK1399     0.1613
      9  C31       29.0520   -0.8540    7.1660 C.3   1399  XBK1399     0.0924
     10  C32       27.6570   -1.5160    7.0910 C.3   1399  XBK1399     0.2238
     11  O12       27.6480   -2.1800    5.8550 O.3   1399  XBK1399    -0.3336
     12  C33       27.3730   -2.4490    8.2630 C.3   1399  XBK1399     0.0927
     13  O11       26.5820   -0.5550    7.0120 O.3   1399  XBK1399    -0.1951
     14  O10       28.5400    1.2950    5.9710 O.3   1399  XBK1399    -0.2226
     15  O8        32.1800    6.6820    2.8960 O.3   1399  XBK1399    -0.4489
     16  C22       31.7570    7.4390    1.7600 C.3   1399  XBK1399     0.1736
     17  C23       32.2250    8.8670    2.1110 C.3   1399  XBK1399     0.0477
     18  C21       30.2380    7.2430    1.3580 C.3   1399  XBK1399     0.0696
     19  C20       29.5240    5.9480    1.7820 C.2   1399  XBK1399    -0.0224
     20  C19       29.3560    4.7320    1.1900 C.2   1399  XBK1399    -0.0045
     21  C18       28.5750    3.7060    1.9090 C.2   1399  XBK1399    -0.0003
     22  C17       28.4850    2.4050    1.6230 C.2   1399  XBK1399    -0.0003
     23  C16       27.6710    1.5210    2.4400 C.2   1399  XBK1399    -0.0046
     24  C15       27.6400    0.2440    2.1490 C.2   1399  XBK1399    -0.0261
     25  C14       26.8520   -0.6510    2.9520 C.3   1399  XBK1399     0.0285
     26  C13       26.8920   -1.8400    2.4480 C.3   1399  XBK1399     0.0344
     27  C6        26.1820   -3.0620    2.9820 C.3   1399  XBK1399     0.1206
     28  C5        26.8610   -3.7190    4.2030 C.3   1399  XBK1399     0.0599
     29  C4        26.4980   -3.0370    5.5270 C.3   1399  XBK1399     0.1333
     30  C2        26.4160   -4.0990    6.6030 C.3   1399  XBK1399     0.1609
     31  C3        25.3210   -5.0770    6.2850 C.2   1399  XBK1399     0.3692
     32  O2        24.1660   -4.7210    6.2200 O.co2 1399  XBK1399    -0.2455
     33  O3        25.5580   -6.3470    6.0570 O.co2 1399  XBK1399    -0.2455
     34  C1        26.1940   -3.3760    7.9490 C.3   1399  XBK1399     0.1700
     35  O1        26.0950   -4.3420    9.0140 O.3   1399  XBK1399    -0.2223
     36  O4        24.7570   -2.8160    3.0000 O.3   1399  XBK1399    -0.3310
     37  C7        24.1360   -3.8910    2.2530 C.3   1399  XBK1399     0.2682
     38  O7        23.7090   -3.4870    0.9400 O.3   1399  XBK1399    -0.3284
     39  C11       23.1540   -4.5820    0.1730 C.3   1399  XBK1399     0.1497
     40  C12       22.6440   -3.9590   -1.1100 C.3   1399  XBK1399     0.0349
     41  C10       22.0250   -5.2880    0.9160 C.3   1399  XBK1399     0.1990
     42  O6        21.5110   -6.3730    0.1510 O.3   1399  XBK1399    -0.2189
     43  C9        22.4440   -5.7700    2.3110 C.3   1399  XBK1399     0.1598
     44  N         21.2830   -6.1460    3.0600 N.3   1399  XBK1399    -0.1273
     45  C8        23.0760   -4.6050    3.0970 C.3   1399  XBK1399     0.2278
     46  O5        22.0760   -3.6910    3.5520 O.3   1399  XBK1399    -0.2161
@<TRIPOS>BOND
     1    40    39    1
     2    42    41    1
     3    39    41    1
     4    39    38    1
     5    41    43    1
     6    38    37    1
     7    20    19    2
     8    20    21    1
     9    18    16    1
    10    18    19    1
    11     1     2    2
    12    22    21    2
    13    22    23    1
    14    16    17    1
    15    16    15    1
    16    24    23    2
    17    24    25    1
    18    37    36    1
    19    37    45    1
    20    43    44    1
    21    43    45    1
    22    26    25    1
    23    26    27    1
    24     2    15    1
    25     2     3    1
    26    27    36    1
    27    27    28    1
    28    45    46    1
    29     4     3    2
    30     4     5    1
    31    28    29    1
    32     6     5    2
    33     6     7    1
    34    29    11    1
    35    29    30    1
    36     7     8    1
    37    11    10    1
    38     8    14    1
    39     8     9    1
    40    33    31   ar
    41    32    31   ar
    42    31    30    1
    43    30    34    1
    44    13    10    1
    45    10     9    1
    46    10    12    1
    47    34    12    1
    48    34    35    1
