@<TRIPOS>MOLECULE
2xbm_SAH_A_1.pdb
 26 28 0 0 0
SMALL
GASTEIGER

@<TRIPOS>ATOM
      1  N        -20.0560  -12.4490    5.3700 N.3   268  SAH268     -0.1159
      2  CA       -20.4660  -13.5450    6.2550 C.3   268  SAH268      0.2168
      3  CB       -20.5190  -14.8250    5.5060 C.2   268  SAH268      0.0105
      4  CG       -21.9200  -15.2990    4.8190 C.2   268  SAH268      0.0284
      5  SD       -21.7830  -16.5920    3.5610 S.3   268  SAH268     -0.1108
      6  C        -19.6530  -13.5520    7.5500 C.2   268  SAH268      0.3860
      7  O        -18.7150  -12.6650    7.7340 O.co2 268  SAH268     -0.2437
      8  OXT      -19.9040  -14.3900    8.4450 O.co2 268  SAH268     -0.2437
      9  C5'      -23.3170  -16.2390    2.6650 C.3   268  SAH268      0.0945
     10  C4'      -24.5050  -16.2090    3.5520 C.3   268  SAH268      0.1634
     11  O4'      -25.5350  -16.0900    2.6800 O.3   268  SAH268     -0.3152
     12  C3'      -24.6330  -17.5900    4.0520 C.3   268  SAH268      0.2168
     13  O3'      -24.7810  -17.4550    5.4140 O.3   268  SAH268     -0.2175
     14  C2'      -25.9470  -18.0450    3.5550 C.3   268  SAH268      0.2569
     15  O2'      -26.5690  -18.5660    4.6900 O.3   268  SAH268     -0.2130
     16  C1'      -26.5830  -16.7430    3.2240 C.3   268  SAH268      0.3185
     17  N9       -27.3240  -16.7870    2.0040 N.pl3 268  SAH268     -0.1439
     18  C8       -27.0520  -17.5150    0.9620 C.3   268  SAH268      0.3377
     19  N7       -27.9380  -17.2700    0.0280 N.2   268  SAH268     -0.2095
     20  C5       -28.7550  -16.3750    0.4830 C.2   268  SAH268      0.2526
     21  C6       -29.8450  -15.7560   -0.0130 C.2   268  SAH268      0.4393
     22  N6       -30.2690  -16.0050   -1.1990 N.pl3 268  SAH268      0.2180
     23  N1       -30.4750  -14.8760    0.7010 N.2   268  SAH268      0.0021
     24  C2       -30.0600  -14.5990    1.8860 C.3   268  SAH268      0.5254
     25  N3       -29.0290  -15.1840    2.3860 N.2   268  SAH268     -0.0055
     26  C4       -28.3580  -16.0670    1.7200 C.2   268  SAH268      0.3518
@<TRIPOS>BOND
     1    22    21    1
     2    21    20    1
     3    21    23    2
     4    19    20    2
     5    19    18    1
     6    20    26    1
     7    23    24    1
     8    18    17    1
     9    26    17    1
    10    26    25    2
    11    24    25    1
    12    17    16    1
    13     9    10    1
    14     9     5    1
    15    11    16    1
    16    11    10    1
    17    16    14    1
    18    10    12    1
    19    14    12    1
    20    14    15    1
    21     5     4    1
    22    12    13    1
    23     4     3    2
    24     1     2    1
    25     3     2    1
    26     2     6    1
    27     6     7   ar
    28     6     8   ar
