@<TRIPOS>MOLECULE
2xbn_PMP_A_1.pdb
 16 16 0 0 0
SMALL
GASTEIGER

@<TRIPOS>ATOM
      1  N1         9.7320   13.3090   30.1050 N.ar  1420  PMP1420    -0.2452
      2  C2         9.7220   13.5180   31.4650 C.ar  1420  PMP1420     0.0978
      3  C2A       10.8950   13.0470   32.2610 C.3   1420  PMP1420     0.0555
      4  C3         8.6470   14.1860   32.0430 C.ar  1420  PMP1420     0.2063
      5  O3         8.6590   14.4170   33.3870 O.3   1420  PMP1420    -0.2856
      6  C4         7.5660   14.5990   31.2520 C.ar  1420  PMP1420     0.0369
      7  C4A        6.3340   15.2510   31.8610 C.3   1420  PMP1420     0.1386
      8  N4A        6.5800   15.6800   33.2170 N.3   1420  PMP1420    -0.1261
      9  C5         7.6050   14.3670   29.8790 C.ar  1420  PMP1420     0.0275
     10  C6         8.6990   13.7020   29.3250 C.ar  1420  PMP1420     0.0965
     11  C5A        6.4860   14.8040   28.9610 C.3   1420  PMP1420     0.1816
     12  O4P        6.6050   16.1820   28.7170 O.3   1420  PMP1420    -0.2653
     13  P          5.3180   17.0890   28.3850 P.3   1420  PMP1420     0.5329
     14  O1P        5.8970   18.1320   27.4680 O.2   1420  PMP1420    -0.2224
     15  O2P        4.7640   17.7130   29.6530 O.3   1420  PMP1420    -0.1145
     16  O3P        4.3070   16.2680   27.6500 O.3   1420  PMP1420    -0.1145
@<TRIPOS>BOND
     1    14    13    2
     2    16    13    1
     3    13    12    1
     4    13    15    1
     5    12    11    1
     6    11     9    1
     7    10     9   ar
     8    10     1   ar
     9     9     6   ar
    10     1     2   ar
    11     6     7    1
    12     6     4   ar
    13     2     4   ar
    14     2     3    1
    15     7     8    1
    16     4     5    1
