@<TRIPOS>MOLECULE
2xbp_ATP_A_1.pdb
 31 33 0 0 0
SMALL
GASTEIGER

@<TRIPOS>ATOM
      1  PG        47.5150  -18.9310   58.8850 P.3   1114  ATP1114     0.5373
      2  O1G       47.5810  -19.9710   57.8100 O.2   1114  ATP1114    -0.2221
      3  O2G       48.0950  -19.3750   60.1840 O.3   1114  ATP1114    -0.1143
      4  O3G       47.9800  -17.5680   58.4340 O.3   1114  ATP1114    -0.1143
      5  PB        45.1140  -17.4420   59.6570 P.3   1114  ATP1114     0.2277
      6  O1B       46.0610  -16.4100   60.1810 O.2   1114  ATP1114    -0.5168
      7  O2B       44.0290  -17.8890   60.5570 O.3   1114  ATP1114    -0.4368
      8  O3B       45.8940  -18.7500   59.1770 O.3   1114  ATP1114    -0.2258
      9  PA        45.1880  -16.2620   57.0200 P.3   1114  ATP1114     0.2189
     10  O1A       46.2940  -15.3740   57.5120 O.3   1114  ATP1114    -0.4371
     11  O2A       45.5110  -17.2770   56.0280 O.2   1114  ATP1114    -0.5170
     12  O3A       44.4570  -16.8920   58.3160 O.3   1114  ATP1114    -0.2700
     13  O5'       43.9820  -15.3270   56.5450 O.3   1114  ATP1114    -0.3112
     14  C5'       43.8560  -15.0490   55.1210 C.3   1114  ATP1114     0.1813
     15  C4'       42.8570  -13.9270   54.9590 C.3   1114  ATP1114     0.1821
     16  O4'       41.5550  -14.3860   55.3620 O.3   1114  ATP1114    -0.3135
     17  C3'       43.0720  -12.6490   55.7260 C.3   1114  ATP1114     0.2184
     18  O3'       44.0470  -11.8040   55.1740 O.3   1114  ATP1114    -0.2174
     19  C2'       41.7030  -12.0590   55.7580 C.3   1114  ATP1114     0.2570
     20  O2'       41.4040  -11.4730   54.4930 O.3   1114  ATP1114    -0.2130
     21  C1'       40.8470  -13.2980   55.9610 C.3   1114  ATP1114     0.3186
     22  N9        40.5480  -13.6320   57.3600 N.pl3 1114  ATP1114    -0.1439
     23  C8        41.2830  -14.4650   58.1730 C.3   1114  ATP1114     0.3377
     24  N7        40.7010  -14.6240   59.3540 N.2   1114  ATP1114    -0.2095
     25  C5        39.5390  -13.8680   59.2720 C.2   1114  ATP1114     0.2526
     26  C6        38.4240  -13.6800   60.1420 C.2   1114  ATP1114     0.4393
     27  N6        38.3500  -14.2640   61.3540 N.pl3 1114  ATP1114     0.2180
     28  N1        37.4180  -12.8730   59.7410 N.2   1114  ATP1114     0.0021
     29  C2        37.4640  -12.3380   58.5120 C.3   1114  ATP1114     0.5254
     30  N3        38.4520  -12.4560   57.6010 N.2   1114  ATP1114    -0.0055
     31  C4        39.4600  -13.2550   58.0340 C.2   1114  ATP1114     0.3518
@<TRIPOS>BOND
     1    20    19    1
     2    15    14    1
     3    15    16    1
     4    15    17    1
     5    14    13    1
     6    18    17    1
     7    16    21    1
     8    17    19    1
     9    19    21    1
    10    21    22    1
    11    11     9    2
    12    13     9    1
    13     9    10    1
    14     9    12    1
    15    22    31    1
    16    22    23    1
    17    30    31    2
    18    30    29    1
    19     2     1    2
    20    31    25    1
    21    23    24    1
    22    12     5    1
    23     4     1    1
    24    29    28    1
    25     1     8    1
    26     1     3    1
    27     8     5    1
    28    25    24    2
    29    25    26    1
    30     5     6    2
    31     5     7    1
    32    28    26    2
    33    26    27    1
