@<TRIPOS>MOLECULE
2xbu_5GP_A_1.pdb
 24 26 0 0 0
SMALL
GASTEIGER

@<TRIPOS>ATOM
      1  P         -3.4630    8.9130   13.5060 P.3   1220  5GP1220     0.5327
      2  O1P       -3.0390    8.6480   14.9320 O.3   1220  5GP1220    -0.1145
      3  O2P       -4.9500    8.7240   13.2760 O.3   1220  5GP1220    -0.1145
      4  O3P       -2.9060   10.1830   12.9100 O.2   1220  5GP1220    -0.2224
      5  O5'       -2.7320    7.7540   12.6610 O.3   1220  5GP1220    -0.2675
      6  C5'       -3.3360    7.2470   11.4720 C.3   1220  5GP1220     0.1859
      7  C4'       -2.4540    6.1420   10.8940 C.3   1220  5GP1220     0.1801
      8  O4'       -1.2890    6.6380   10.2370 O.3   1220  5GP1220    -0.3326
      9  C3'       -1.9170    5.1830   11.9330 C.3   1220  5GP1220     0.2158
     10  O3'       -2.8990    4.2240   12.3320 O.3   1220  5GP1220    -0.2175
     11  C2'       -0.8080    4.5280   11.1520 C.3   1220  5GP1220     0.2310
     12  O2'       -1.3940    3.5570   10.2740 O.3   1220  5GP1220    -0.2158
     13  C1'       -0.2660    5.6450   10.2900 C.3   1220  5GP1220     0.2293
     14  N9         0.9210    6.2280   10.9580 N.pl3 1220  5GP1220    -0.2354
     15  C8         0.9790    7.4010   11.6070 C.3   1220  5GP1220     0.2246
     16  N7         2.2420    7.5950   12.0590 N.2   1220  5GP1220    -0.2322
     17  C5         2.9740    6.5250   11.6890 C.2   1220  5GP1220     0.2182
     18  C6         4.3010    6.1640   11.8740 C.1   1220  5GP1220     0.2372
     19  O6         5.1080    6.9040   12.4910 O.2   1220  5GP1220    -0.2069
     20  N1         4.7290    5.0110   11.3660 N.2   1220  5GP1220    -0.2485
     21  C2         3.9110    4.1920   10.6920 C.1   1220  5GP1220     0.2531
     22  N2         4.4090    3.0380   10.1990 N.pl3 1220  5GP1220    -0.0226
     23  N3         2.6080    4.5030   10.5020 N.2   1220  5GP1220    -0.3074
     24  C4         2.1340    5.6740   10.9870 C.2   1220  5GP1220     0.2300
@<TRIPOS>BOND
     1    22    21    1
     2     8    13    1
     3     8     7    1
     4    12    11    1
     5    13    14    1
     6    13    11    1
     7    23    21    2
     8    23    24    2
     9    21    20    2
    10     7     6    1
    11     7     9    1
    12    14    24    1
    13    14    15    1
    14    24    17    1
    15    11     9    1
    16    20    18    2
    17     6     5    1
    18    15    16    1
    19    17    18    1
    20    17    16    2
    21    18    19    2
    22     9    10    1
    23     5     1    1
    24     4     1    2
    25     3     1    1
    26     1     2    1
