@<TRIPOS>MOLECULE
2xbv_XBV_A_1.pdb
 36 39 0 0 0
SMALL
GASTEIGER

@<TRIPOS>ATOM
      1  C1        10.4390   66.7500    4.0020 C.3   1245  XBV1245     0.1045
      2  C2         9.6930   66.3310    2.7260 C.3   1245  XBV1245     0.1045
      3  C3         8.9300   67.6000    2.2890 C.3   1245  XBV1245     0.0819
      4  N4         9.8580   68.6860    2.7360 N.3   1245  XBV1245    -0.2670
      5  C5        10.4080   68.2910    4.0560 C.3   1245  XBV1245     0.0819
      6  C6        11.8290   66.1690    4.0750 C.2   1245  XBV1245     0.2483
      7  C7         8.7410   65.1940    3.0300 C.2   1245  XBV1245     0.2470
      8  N8         9.2500   64.0040    2.8570 N.am  1245  XBV1245    -0.1769
      9  O9         7.6110   65.3690    3.4600 O.2   1245  XBV1245    -0.2729
     10  O10       12.5110   65.9800    3.0790 O.2   1245  XBV1245    -0.2729
     11  N11       12.3170   65.9790    5.3220 N.am  1245  XBV1245    -0.1603
     12  C12       13.4790   65.3160    5.7100 C.ar  1245  XBV1245     0.1545
     13  N13       14.0290   64.4140    4.8800 N.ar  1245  XBV1245    -0.2264
     14  C14       15.5570   63.6920    6.5820 C.ar  1245  XBV1245     0.0769
     15  C15       14.9800   64.6160    7.4750 C.ar  1245  XBV1245     0.0159
     16  C16       15.0620   63.6180    5.2650 C.ar  1245  XBV1245     0.1117
     17  C17       13.9220   65.4170    7.0370 C.ar  1245  XBV1245     0.0371
     18 CL1        16.8030   62.6230    7.1470 Cl    1245  XBV1245    -0.0806
     19  C19        8.5620   62.7810    3.0130 C.ar  1245  XBV1245     0.1008
     20  C20        7.7350   62.4770    4.1000 C.ar  1245  XBV1245     0.0204
     21  C21        7.4550   60.2760    3.1560 C.ar  1245  XBV1245     0.0692
     22  C22        8.2910   60.5860    2.0730 C.ar  1245  XBV1245     0.0486
     23  C23        7.1530   61.2070    4.1550 C.ar  1245  XBV1245     0.0191
     24  C24        8.8070   61.8870    2.0080 C.ar  1245  XBV1245     0.1568
     25  N25        6.9000   58.9610    3.1550 N.ar  1245  XBV1245    -0.2731
     26  C26        7.4010   57.9920    4.0380 C.ar  1245  XBV1245     0.0829
     27  C27        5.8730   56.3680    3.1560 C.ar  1245  XBV1245     0.0064
     28  C28        5.3630   57.3040    2.2830 C.ar  1245  XBV1245     0.0611
     29  C29        6.9060   56.7230    4.0320 C.ar  1245  XBV1245     0.0192
     30  C30        5.8690   58.6530    2.2590 C.ar  1245  XBV1245     0.2648
     31  O31        5.4450   59.5080    1.4710 O.2   1245  XBV1245    -0.2666
     32  F32        9.6300   62.2060    0.9980 F     1245  XBV1245    -0.2027
     33  C33        9.1530   69.9740    2.8400 C.3   1245  XBV1245     0.1453
     34  C34       10.1310   71.1500    2.8390 C.3   1245  XBV1245     0.3343
     35  F35       11.1320   71.0170    3.8060 F     1245  XBV1245    -0.1969
     36  F36       10.7900   71.1220    1.6280 F     1245  XBV1245    -0.1969
@<TRIPOS>BOND
     1    32    24    1
     2    31    30    2
     3    36    34    1
     4    24    22   ar
     5    24    19   ar
     6    22    21   ar
     7    30    28   ar
     8    30    25   ar
     9    28    27   ar
    10     3     2    1
    11     3     4    1
    12     2     7    1
    13     2     1    1
    14     4    33    1
    15     4     5    1
    16    34    33    1
    17    34    35    1
    18     8    19    1
    19     8     7   am
    20    19    20   ar
    21     7     9    2
    22    10     6    2
    23    25    21    1
    24    25    26   ar
    25    21    23   ar
    26    27    29   ar
    27     1     5    1
    28     1     6    1
    29    29    26   ar
    30     6    11   am
    31    20    23   ar
    32    13    16   ar
    33    13    12   ar
    34    16    14   ar
    35    11    12    1
    36    12    17   ar
    37    14    18    1
    38    14    15   ar
    39    17    15   ar
