@<TRIPOS>MOLECULE
2xbw_455_A_1.pdb
 36 39 0 0 0
SMALL
GASTEIGER

@<TRIPOS>ATOM
      1  S1         9.2600   70.4290    3.4600 S.O2  1245  4551245     0.1327
      2  C2         9.3870   66.4710    3.2300 C.3   1245  4551245     0.1063
      3  C3        10.1820   66.7570    4.4920 C.3   1245  4551245     0.1063
      4  N4         9.6160   68.7380    3.3110 N.3   1245  4551245    -0.1420
      5  C5         8.4580   65.3450    3.3880 C.2   1245  4551245     0.2471
      6  N6         6.8250   58.9940    3.3950 N.ar  1245  4551245    -0.2731
      7  C7        11.4680   66.0080    4.4820 C.2   1245  4551245     0.2470
      8  C8        10.3720   68.3190    4.5000 C.3   1245  4551245     0.1066
      9  C9         8.6050   67.7520    2.9760 C.3   1245  4551245     0.1066
     10  C10        5.7050   58.6230    2.5810 C.ar  1245  4551245     0.2648
     11  C11        7.3050   60.3490    3.3010 C.ar  1245  4551245     0.0692
     12  N12        9.0420   64.1820    3.0350 N.am  1245  4551245    -0.1769
     13  C13        8.1220   60.6790    2.2470 C.ar  1245  4551245     0.0486
     14  N14       12.1630   66.0350    5.7030 N.am  1245  4551245    -0.1792
     15  C15        8.4100   62.8870    3.2730 C.ar  1245  4551245     0.1008
     16  C16        8.6600   61.9690    2.2760 C.ar  1245  4551245     0.1568
     17  O17        8.2170   70.5090    4.4670 O.2   1245  4551245    -0.1383
     18  O18       10.4920   71.0500    3.9080 O.2   1245  4551245    -0.1383
     19  C19        7.4230   58.0760    4.3050 C.ar  1245  4551245     0.0829
     20  O20        7.3060   65.4260    3.8870 O.2   1245  4551245    -0.2729
     21  O21       11.8150   65.2590    3.5680 O.2   1245  4551245    -0.2729
     22  C22        5.3160   57.2230    2.5810 C.ar  1245  4551245     0.0611
     23  O23        5.3260   59.5080    1.7610 O.2   1245  4551245    -0.2666
     24  C24        6.9790   61.2430    4.3190 C.ar  1245  4551245     0.0191
     25  C25        7.5390   62.5480    4.2950 C.ar  1245  4551245     0.0204
     26  C26        6.8680   56.8400    4.4250 C.ar  1245  4551245     0.0192
     27  C27        5.8310   56.3840    3.5330 C.ar  1245  4551245     0.0064
     28  C28       13.3530   65.3200    6.0680 C.ar  1245  4551245     0.0734
     29  N29        8.7910   70.8880    2.0050 N.3   1245  4551245     0.0516
     30  F30        9.4220   62.3630    1.2390 F     1245  4551245    -0.2027
     31  C31       15.4810   63.8500    6.9430 C.ar  1245  4551245     0.0578
     32 CL         16.6960   62.7040    7.4940 Cl    1245  4551245    -0.0822
     33  C33       13.6670   65.3420    7.4150 C.ar  1245  4551245     0.0175
     34  C34       14.0410   64.5420    5.1180 C.ar  1245  4551245     0.0175
     35  C35       15.1370   63.7790    5.5690 C.ar  1245  4551245     0.0127
     36  C36       14.7550   64.5910    7.8880 C.ar  1245  4551245     0.0127
@<TRIPOS>BOND
     1    30    16    1
     2    23    10    2
     3    29     1    1
     4    13    16   ar
     5    13    11   ar
     6    16    15   ar
     7    22    10   ar
     8    22    27   ar
     9    10     6   ar
    10     9     2    1
    11     9     4    1
    12    12    15    1
    13    12     5   am
    14     2     5    1
    15     2     3    1
    16    15    25   ar
    17    11     6    1
    18    11    24   ar
    19     4     1    1
    20     4     8    1
    21     5    20    2
    22     6    19   ar
    23     1    18    2
    24     1    17    2
    25    27    26   ar
    26    21     7    2
    27    25    24   ar
    28    19    26   ar
    29     7     3    1
    30     7    14   am
    31     3     8    1
    32    34    35   ar
    33    34    28   ar
    34    35    31   ar
    35    14    28    1
    36    28    33   ar
    37    31    32    1
    38    31    36   ar
    39    33    36   ar
