@<TRIPOS>MOLECULE
2xbx_RR8_A_1.pdb
 36 39 0 0 0
SMALL
GASTEIGER

@<TRIPOS>ATOM
      1  S1         9.1560   70.2050    2.7760 S.O2  1245  RR81245     0.0457
      2  C2         9.5790   66.3220    2.6170 C.3   1245  RR81245     0.1063
      3  C3        10.1310   66.6000    4.0140 C.3   1245  RR81245     0.1063
      4  N4         9.6270   68.5610    2.8280 N.3   1245  RR81245    -0.1584
      5  C5         8.8080   65.0470    2.3840 C.2   1245  RR81245     0.2471
      6  N6         6.8600   58.8990    3.0480 N.ar  1245  RR81245    -0.2731
      7  C7        11.4700   65.9120    4.1040 C.2   1245  RR81245     0.2470
      8  C8        10.2760   68.1260    4.0480 C.3   1245  RR81245     0.1051
      9  C9         8.7270   67.5540    2.3150 C.3   1245  RR81245     0.1051
     10  C10        5.7550   58.5690    2.1910 C.ar  1245  RR81245     0.2648
     11  C11        7.3430   60.2100    3.0040 C.ar  1245  RR81245     0.0692
     12  N12        9.0090   64.0560    3.1350 N.am  1245  RR81245    -0.1769
     13  C13        8.1540   60.5430    1.9470 C.ar  1245  RR81245     0.0486
     14  N14       12.1710   65.9950    5.2990 N.am  1245  RR81245    -0.1792
     15  C15        8.3560   62.7490    3.0380 C.ar  1245  RR81245     0.1008
     16  C16        8.6500   61.8500    1.9940 C.ar  1245  RR81245     0.1568
     17  O17       10.2900   70.9980    3.3660 O.2   1245  RR81245    -0.1572
     18  O18        8.7570   70.5200    1.3810 O.2   1245  RR81245    -0.1572
     19  C19        7.4320   57.9600    3.9870 C.ar  1245  RR81245     0.0829
     20  O20        7.9920   64.9220    1.4220 O.2   1245  RR81245    -0.2729
     21  O21       11.8310   65.1250    3.2380 O.2   1245  RR81245    -0.2729
     22  C22        5.3060   57.2250    2.2240 C.ar  1245  RR81245     0.0611
     23  O23        5.3770   59.4290    1.3520 O.2   1245  RR81245    -0.2666
     24  C24        6.9800   61.0620    4.0340 C.ar  1245  RR81245     0.0191
     25  C25        7.4990   62.3760    4.0660 C.ar  1245  RR81245     0.0204
     26  C26        6.9140   56.6950    4.0070 C.ar  1245  RR81245     0.0192
     27  C27        5.8340   56.3470    3.1190 C.ar  1245  RR81245     0.0064
     28  C28       13.3500   65.2380    5.6910 C.ar  1245  RR81245     0.0734
     29  C29        7.8170   70.2470    3.8950 C.3   1245  RR81245     0.1960
     30  F30        9.4710   62.2150    0.9720 F     1245  RR81245    -0.2027
     31  C31       15.4740   63.7690    6.5750 C.ar  1245  RR81245     0.0578
     32 CL3        16.6610   62.6960    7.1880 Cl    1245  RR81245    -0.0822
     33  C34       13.7780   65.3470    7.0160 C.ar  1245  RR81245     0.0175
     34  C33       14.0020   64.4110    4.7780 C.ar  1245  RR81245     0.0175
     35  C36       15.1010   63.6660    5.2060 C.ar  1245  RR81245     0.0127
     36  C35       14.8630   64.5980    7.4570 C.ar  1245  RR81245     0.0127
@<TRIPOS>BOND
     1    30    16    1
     2    23    10    2
     3    18     1    2
     4    20     5    2
     5    13    16   ar
     6    13    11   ar
     7    16    15   ar
     8    10    22   ar
     9    10     6   ar
    10    22    27   ar
    11     9     2    1
    12     9     4    1
    13     5     2    1
    14     5    12   am
    15     2     3    1
    16     1     4    1
    17     1    17    2
    18     1    29    1
    19     4     8    1
    20    11     6    1
    21    11    24   ar
    22    15    12    1
    23    15    25   ar
    24     6    19   ar
    25    27    26   ar
    26    21     7    2
    27    19    26   ar
    28     3     8    1
    29     3     7    1
    30    24    25   ar
    31     7    14   am
    32    34    35   ar
    33    34    28   ar
    34    35    31   ar
    35    14    28    1
    36    28    33   ar
    37    31    32    1
    38    31    36   ar
    39    33    36   ar
