@<TRIPOS>MOLECULE
2xby_63C_A_1.pdb
 33 36 0 0 0
SMALL
GASTEIGER

@<TRIPOS>ATOM
      1  C2         9.9050   66.8490    2.6330 C.3   1245  63C1245     0.1045
      2  C3        10.4670   67.2420    4.0240 C.3   1245  63C1245     0.1045
      3  N4         9.7180   69.2400    2.9650 N.3   1245  63C1245    -0.2706
      4  C5         8.9860   65.6380    2.8770 C.2   1245  63C1245     0.2470
      5  N6         6.9490   59.3820    3.3170 N.ar  1245  63C1245    -0.2731
      6  C7        11.7710   66.5660    4.1990 C.2   1245  63C1245     0.2470
      7  C8        10.6220   68.7990    4.0200 C.3   1245  63C1245     0.0818
      8  C9         9.0680   68.1180    2.1990 C.3   1245  63C1245     0.0818
      9  C10        5.9610   59.0490    2.3370 C.ar  1245  63C1245     0.2648
     10  C11        7.5350   60.7180    3.2820 C.ar  1245  63C1245     0.0692
     11  N12        9.4510   64.3710    3.0020 N.am  1245  63C1245    -0.1769
     12  C13        8.3360   61.0280    2.1710 C.ar  1245  63C1245     0.0486
     13  N14       12.4160   66.4280    5.4590 N.am  1245  63C1245    -0.1792
     14  C15        8.5350   63.2990    3.1020 C.ar  1245  63C1245     0.1008
     15  C16        8.8140   62.3350    2.1320 C.ar  1245  63C1245     0.1568
     16  C19        7.4010   58.4090    4.2920 C.ar  1245  63C1245     0.0829
     17  O20        7.8450   65.7430    3.3360 O.2   1245  63C1245    -0.2729
     18  O21       12.3570   66.2080    3.1990 O.2   1245  63C1245    -0.2729
     19  C22        5.4390   57.6910    2.3760 C.ar  1245  63C1245     0.0611
     20  O23        5.6050   59.9500    1.5200 O.2   1245  63C1245    -0.2666
     21  C24        7.2480   61.6680    4.2900 C.ar  1245  63C1245     0.0191
     22  C25        7.7450   63.0130    4.2190 C.ar  1245  63C1245     0.0204
     23  C26        6.9400   57.1290    4.2150 C.ar  1245  63C1245     0.0192
     24  C27        5.9270   56.7600    3.2600 C.ar  1245  63C1245     0.0064
     25  C28       13.6960   65.7590    5.7870 C.ar  1245  63C1245     0.0734
     26  F30        9.6210   62.7450    1.1390 F     1245  63C1245    -0.2027
     27  C31       15.8290   64.1670    6.6820 C.ar  1245  63C1245     0.0578
     28  C33       14.1880   65.9100    7.1060 C.ar  1245  63C1245     0.0175
     29  C34       14.3120   64.8670    4.9080 C.ar  1245  63C1245     0.0175
     30  C35       15.3980   64.0440    5.3330 C.ar  1245  63C1245     0.0127
     31  C36       15.2530   65.1070    7.5580 C.ar  1245  63C1245     0.0127
     32  C1         9.3680   70.6500    2.7930 C.3   1245  63C1245     0.0897
     33 CL         17.0000   63.0550    7.3340 Cl    1245  63C1245    -0.0822
@<TRIPOS>BOND
     1    26    15    1
     2    20     9    2
     3    15    12   ar
     4    15    14   ar
     5    12    10   ar
     6     8     1    1
     7     8     3    1
     8     9    19   ar
     9     9     5   ar
    10    19    24   ar
    11     1     4    1
    12     1     2    1
    13    32     3    1
    14     4    11   am
    15     4    17    2
    16     3     7    1
    17    11    14    1
    18    14    22   ar
    19    18     6    2
    20    24    23   ar
    21    10     5    1
    22    10    21   ar
    23     5    16   ar
    24     7     2    1
    25     2     6    1
    26     6    13   am
    27    23    16   ar
    28    22    21   ar
    29    29    30   ar
    30    29    25   ar
    31    30    27   ar
    32    13    25    1
    33    25    28   ar
    34    27    33    1
    35    27    31   ar
    36    28    31   ar
