@<TRIPOS>MOLECULE
2xc0_8NC_A_1.pdb
 38 41 0 0 0
SMALL
GASTEIGER

@<TRIPOS>ATOM
      1  S1         8.2440   70.3370    2.7020 S.O2  1246  8NC1246     0.0457
      2  C2         8.9930   66.4940    2.6590 C.3   1246  8NC1246     0.1063
      3  C3         9.7050   66.9950    3.9520 C.3   1246  8NC1246     0.1063
      4  N4         8.9480   68.8530    2.6600 N.3   1246  8NC1246    -0.1584
      5  C5         8.1710   65.2490    2.9200 C.2   1246  8NC1246     0.2471
      6  N6         6.7750   58.8400    3.0600 N.ar  1246  8NC1246    -0.2731
      7  C7        11.0630   66.3590    4.0220 C.2   1246  8NC1246     0.2470
      8  C8         8.1200   67.7040    2.2680 C.3   1246  8NC1246     0.1051
      9  C9         9.8060   68.5100    3.7910 C.3   1246  8NC1246     0.1051
     10  C10        5.8150   58.4860    2.1870 C.ar  1246  8NC1246     0.2648
     11  C11        7.2490   60.1590    3.0490 C.ar  1246  8NC1246     0.0692
     12  N12        8.7610   64.0620    2.7470 N.am  1246  8NC1246    -0.1769
     13  C13        8.0550   60.5510    2.0030 C.ar  1246  8NC1246     0.0486
     14  N14       11.6470   66.1740    5.2030 N.am  1246  8NC1246    -0.1791
     15  C15        8.1880   62.7810    2.9250 C.ar  1246  8NC1246     0.1008
     16  C16        8.5120   61.8550    1.9570 C.ar  1246  8NC1246     0.1568
     17  C17       14.7540   64.3340    4.4280 C.ar  1246  8NC1246     0.1751
     18  C18       13.5710   65.0330    4.2120 C.ar  1246  8NC1246     0.0494
     19  O19        7.6500   70.4110    1.4110 O.2   1246  8NC1246    -0.1572
     20  O20        9.3240   71.1870    3.0760 O.2   1246  8NC1246    -0.1572
     21  C21        7.2970   57.9240    3.9290 C.ar  1246  8NC1246     0.0829
     22  C22       12.8680   65.5150    5.3280 C.ar  1246  8NC1246     0.0758
     23  O23        7.0150   65.3130    3.2990 O.2   1246  8NC1246    -0.2729
     24  O24       11.6300   66.0170    3.0120 O.2   1246  8NC1246    -0.2729
     25  C25        5.3130   57.1700    2.1880 C.ar  1246  8NC1246     0.0611
     26  C26       15.1850   64.0920    5.7280 C.ar  1246  8NC1246     0.1660
     27  O27        5.3530   59.3220    1.4200 O.2   1246  8NC1246    -0.2666
     28  C28        6.8980   61.0850    4.0300 C.ar  1246  8NC1246     0.0191
     29  C29        7.3880   62.4000    3.9920 C.ar  1246  8NC1246     0.0204
     30  C30        6.8180   56.6670    3.9690 C.ar  1246  8NC1246     0.0192
     31  C31        5.7990   56.2750    3.0870 C.ar  1246  8NC1246     0.0064
     32  C32       14.4680   64.5530    6.8210 C.ar  1246  8NC1246     0.0406
     33  C33        7.0290   70.1850    4.0370 C.3   1246  8NC1246     0.1960
     34  F34        9.3150   62.2610    0.9500 F     1246  8NC1246    -0.2027
     35  F35       15.4930   63.8570    3.3840 F     1246  8NC1246    -0.2009
     36  C36       13.2960   65.2550    6.6140 C.ar  1246  8NC1246     0.0199
     37  O37       16.3370   63.3930    5.9560 O.3   1246  8NC1246    -0.4692
     38  C38       16.4570   62.7470    7.2150 C.3   1246  8NC1246     0.2526
@<TRIPOS>BOND
     1    34    16    1
     2    19     1    2
     3    27    10    2
     4    16    13   ar
     5    16    15   ar
     6    13    11   ar
     7    10    25   ar
     8    10     6   ar
     9    25    31   ar
    10     8     2    1
    11     8     4    1
    12     2     5    1
    13     2     3    1
    14     4     1    1
    15     4     9    1
    16     1    20    2
    17     1    33    1
    18    12     5   am
    19    12    15    1
    20     5    23    2
    21    15    29   ar
    22    24     7    2
    23    11     6    1
    24    11    28   ar
    25     6    21   ar
    26    31    30   ar
    27    35    17    1
    28     9     3    1
    29    21    30   ar
    30     3     7    1
    31    29    28   ar
    32     7    14   am
    33    18    17   ar
    34    18    22   ar
    35    17    26   ar
    36    14    22    1
    37    22    36   ar
    38    26    37    1
    39    26    32   ar
    40    37    38    1
    41    36    32   ar
