@<TRIPOS>MOLECULE
2xc3_HEM_A_1.pdb
 43 50 0 0 0
SMALL
GASTEIGER

@<TRIPOS>ATOM
      1  CHA       11.6730   47.8430   35.4750 C.2   1433  HEM1433     0.0000
      2  CHB       15.7550   46.1770   37.6280 C.2   1433  HEM1433     0.0000
      3  CHC       13.6680   41.7680   38.1360 C.2   1433  HEM1433     0.0000
      4  CHD        9.7580   43.3030   35.6500 C.2   1433  HEM1433     0.0000
      5  C1A       12.9350   47.7890   36.0620 C.2   1433  HEM1433     0.0000
      6  C2A       13.9130   48.8750   36.0970 C.2   1433  HEM1433     0.0000
      7  C3A       15.0390   48.3960   36.7010 C.2   1433  HEM1433     0.0000
      8  C4A       14.8180   46.9900   37.0260 C.2   1433  HEM1433     0.0000
      9  CMA       16.3330   49.1710   36.9460 C.3   1433  HEM1433     0.0000
     10  CAA       13.6520   50.3080   35.5300 C.3   1433  HEM1433     0.0000
     11  CBA       13.3790   51.1790   36.7440 C.3   1433  HEM1433     0.0000
     12  CGA       13.2740   52.6650   36.4010 C.2   1433  HEM1433     0.0000
     13  O1A       13.4660   53.0170   35.2320 O.co2 1433  HEM1433     0.0000
     14  O2A       13.0330   53.4680   37.4190 O.co2 1433  HEM1433     0.0000
     15  C1B       15.5280   44.8470   37.9250 C.ar  1433  HEM1433     0.0000
     16  C2B       16.4510   44.0220   38.6600 C.ar  1433  HEM1433     0.0000
     17  C3B       15.8990   42.8090   38.8190 C.ar  1433  HEM1433     0.0000
     18  C4B       14.6110   42.8310   38.2080 C.ar  1433  HEM1433     0.0000
     19  CMB       17.8400   44.4930   39.1540 C.3   1433  HEM1433     0.0000
     20  CAB       16.4830   41.5390   39.4770 C.2   1433  HEM1433     0.0000
     21  CBB       17.2540   41.5920   40.5640 C.2   1433  HEM1433     0.0000
     22  C1C       12.4430   41.8330   37.5010 C.2   1433  HEM1433     0.0000
     23  C2C       11.4840   40.7300   37.4820 C.2   1433  HEM1433     0.0000
     24  C3C       10.4250   41.1270   36.7600 C.2   1433  HEM1433     0.0000
     25  C4C       10.6410   42.5320   36.3800 C.2   1433  HEM1433     0.0000
     26  CMC       11.7720   39.3940   38.1700 C.3   1433  HEM1433     0.0000
     27  CAC        9.1350   40.4200   36.4270 C.2   1433  HEM1433     0.0000
     28  CBC        9.0890   39.1120   36.2920 C.2   1433  HEM1433     0.0000
     29  C1D        9.9780   44.6410   35.3380 C.ar  1433  HEM1433     0.0000
     30  C2D        9.0370   45.4540   34.5870 C.ar  1433  HEM1433     0.0000
     31  C3D        9.6220   46.7940   34.5020 C.ar  1433  HEM1433     0.0000
     32  C4D       10.8410   46.7710   35.2820 C.ar  1433  HEM1433     0.0000
     33  CMD        7.7230   44.9700   33.9260 C.3   1433  HEM1433     0.0000
     34  CAD        8.9920   48.0000   33.8080 C.3   1433  HEM1433     0.0000
     35  CBD        8.2140   48.8900   34.7900 C.3   1433  HEM1433     0.0000
     36  CGD        7.6940   50.1870   34.1890 C.2   1433  HEM1433     0.0000
     37  O1D        8.2990   50.6270   33.1630 O.co2 1433  HEM1433     0.0000
     38  O2D        6.6950   50.7200   34.7000 O.co2 1433  HEM1433     0.0000
     39  NA        13.5300   46.6230   36.6460 N.2   1433  HEM1433     0.0000
     40  NB        14.3980   44.1090   37.6980 N.ar  1433  HEM1433     0.0000
     41  NC        11.8790   42.9590   36.8750 N.2   1433  HEM1433     0.0000
     42  ND        11.0220   45.4670   35.7630 N.ar  1433  HEM1433     0.0000
     43 FE         12.6550   44.8260   36.8380 Fe    1433  HEM1433     0.0000
@<TRIPOS>BOND
     1    37    36   ar
     2    34    31    1
     3    34    35    1
     4    33    30    1
     5    36    38   ar
     6    36    35    1
     7    31    30   ar
     8    31    32   ar
     9    30    29   ar
    10    13    12   ar
    11    32     1    2
    12    32    42   ar
    13    29     4    2
    14    29    42   ar
    15     1     5    1
    16    10     6    1
    17    10    11    1
    18     4    25    1
    19    42    43    1
    20     5     6    1
    21     5    39    2
    22     6     7    2
    23    28    27    2
    24    25    24    1
    25    25    41    2
    26    12    11    1
    27    12    14   ar
    28    27    24    1
    29    39    43    1
    30    39     8    1
    31     7     9    1
    32     7     8    1
    33    24    23    2
    34    43    41    1
    35    43    40    1
    36    41    22    1
    37     8     2    2
    38    23    22    1
    39    23    26    1
    40    22     3    2
    41     2    15    1
    42    40    15   ar
    43    40    18   ar
    44    15    16   ar
    45     3    18    1
    46    18    17   ar
    47    16    17   ar
    48    16    19    1
    49    17    20    1
    50    20    21    2
