@<TRIPOS>MOLECULE
2xc3_RT8_A_1.pdb
 30 33 0 0 0
SMALL
GASTEIGER

@<TRIPOS>ATOM
      1  O2        16.2880   43.5340   25.9460 O.2   1434  RT81434    -0.2711
      2  C6        15.7220   44.6170   25.7970 C.2   1434  RT81434     0.2657
      3  N2        15.3210   45.3980   26.7630 N.am  1434  RT81434    -0.1777
      4  C5        15.4410   45.2510   28.1110 C.ar  1434  RT81434     0.0765
      5  C4        16.1350   44.2320   28.7100 C.ar  1434  RT81434     0.0373
      6  C3        16.2350   44.1120   30.0870 C.ar  1434  RT81434     0.1002
      7  N1        15.6370   44.9580   30.8530 N.ar  1434  RT81434    -0.2422
      8  C2        14.9320   45.9700   30.3240 C.ar  1434  RT81434     0.1002
      9  C1        14.8180   46.1540   28.9230 C.ar  1434  RT81434     0.0373
     10  C7        15.4270   45.0600   24.3870 C.3   1434  RT81434     0.1771
     11  N3        14.1920   44.4440   23.8800 N.am  1434  RT81434    -0.1974
     12  C8        13.0940   45.1480   23.5580 C.2   1434  RT81434     0.2413
     13  O1        12.9480   46.3120   23.9000 O.2   1434  RT81434    -0.2733
     14  C9        12.0590   44.5240   22.6150 C.3   1434  RT81434     0.0782
     15  C15       12.3450   44.9720   21.1720 C.3   1434  RT81434     0.0091
     16  C14       11.3970   44.2240   20.1880 C.3   1434  RT81434     0.0005
     17  C12        9.9710   44.7110   20.3610 C.3   1434  RT81434     0.0000
     18  C13        9.0420   44.0330   19.3390 C.3   1434  RT81434     0.0000
     19  C11        9.6540   44.3170   21.7810 C.3   1434  RT81434     0.0005
     20  C10       10.6170   44.9330   22.8170 C.3   1434  RT81434     0.0091
     21  C16       16.6860   44.7980   23.5200 C.3   1434  RT81434     0.0554
     22  C17       16.4990   45.4500   22.1640 C.2   1434  RT81434    -0.0136
     23  C20       16.0320   44.8100   20.9090 C.3   1434  RT81434     0.0819
     24  C21       15.7850   43.4660   20.5850 C.2   1434  RT81434    -0.0164
     25  C22       15.3890   43.1640   19.3040 C.2   1434  RT81434    -0.0038
     26  C23       15.2600   44.1700   18.3110 C.2   1434  RT81434     0.0009
     27  C24       15.5330   45.5150   18.5540 C.2   1434  RT81434     0.0153
     28  C19       15.9100   45.8560   19.8630 C.2   1434  RT81434     0.0665
     29  N4        16.2360   46.9890   20.4610 N.2   1434  RT81434    -0.2482
     30  C18       16.5160   46.8120   21.8020 C.2   1434  RT81434     0.0907
@<TRIPOS>BOND
     1    26    27    2
     2    26    25    1
     3    27    28    1
     4    25    24    2
     5    18    17    1
     6    28    29    2
     7    28    23    1
     8    16    17    1
     9    16    15    1
    10    17    19    1
    11    29    30    1
    12    24    23    1
    13    23    22    1
    14    15    14    1
    15    19    20    1
    16    30    22    2
    17    22    21    1
    18    14    20    1
    19    14    12    1
    20    21    10    1
    21    12    11   am
    22    12    13    2
    23    11    10    1
    24    10     2    1
    25     2     1    2
    26     2     3   am
    27     3     4    1
    28     4     5   ar
    29     4     9   ar
    30     5     6   ar
    31     9     8   ar
    32     6     7   ar
    33     8     7   ar
