@<TRIPOS>MOLECULE
2xc4_IVK_A_1.pdb
 37 40 0 0 0
SMALL
GASTEIGER

@<TRIPOS>ATOM
      1  C1        -3.9090   11.8950   24.8310 C.3   1246  IVK1246     0.1045
      2  C2        -3.8030   12.0200   23.3060 C.3   1246  IVK1246     0.1045
      3  C3        -4.7210   13.2440   23.0170 C.3   1246  IVK1246     0.0820
      4  N4        -4.3020   14.1740   24.1020 N.3   1246  IVK1246    -0.2647
      5  C5        -3.8610   13.3480   25.2830 C.3   1246  IVK1246     0.0820
      6  C6        -2.7400   11.0360   25.2640 C.2   1246  IVK1246     0.2470
      7  C7        -4.1260   10.7380   22.5450 C.2   1246  IVK1246     0.2470
      8  N8        -5.1580   10.7090   21.6840 N.am  1246  IVK1246    -0.1769
      9  O9        -3.4270    9.7120   22.6660 O.2   1246  IVK1246    -0.2729
     10  O10       -1.6090   11.2460   24.8610 O.2   1246  IVK1246    -0.2729
     11  N11       -3.0440   10.0840   26.1430 N.am  1246  IVK1246    -0.1792
     12  C12       -2.2850    9.0370   26.6440 C.ar  1246  IVK1246     0.0734
     13  C14       -0.9600    6.7770   27.4370 C.ar  1246  IVK1246     0.0578
     14  C15       -1.9990    7.2350   28.2140 C.ar  1246  IVK1246     0.0127
     15  C16       -0.5750    7.4530   26.2720 C.ar  1246  IVK1246     0.0127
     16  C17       -2.6990    8.3530   27.7940 C.ar  1246  IVK1246     0.0175
     17 CL1        -0.0750    5.3720   27.9200 Cl    1246  IVK1246    -0.0822
     18  C19       -5.4960    9.5860   20.8900 C.ar  1246  IVK1246     0.1008
     19  C20       -6.7340    8.9570   20.9530 C.ar  1246  IVK1246     0.0204
     20  C21       -6.0800    7.4370   19.1720 C.ar  1246  IVK1246     0.0692
     21  C22       -4.8520    8.0840   19.0950 C.ar  1246  IVK1246     0.0486
     22  C23       -7.0080    7.8860   20.1100 C.ar  1246  IVK1246     0.0191
     23  C24       -4.5690    9.1370   19.9500 C.ar  1246  IVK1246     0.1568
     24  N25       -6.3720    6.3640   18.2930 N.ar  1246  IVK1246    -0.2731
     25  C26       -6.2610    5.0650   18.6570 C.ar  1246  IVK1246     0.0829
     26  C27       -6.9000    4.3420   16.4650 C.ar  1246  IVK1246     0.0064
     27  C28       -7.0400    5.6510   16.1050 C.ar  1246  IVK1246     0.0611
     28  C29       -6.4940    4.0550   17.7840 C.ar  1246  IVK1246     0.0192
     29  C30       -6.7570    6.6650   17.0250 C.ar  1246  IVK1246     0.2648
     30  O31       -6.8420    7.8290   16.6640 O.2   1246  IVK1246    -0.2666
     31  F32       -3.3820    9.7880   19.8760 F     1246  IVK1246    -0.2027
     32  C33       -5.3490   15.1010   24.5290 C.3   1246  IVK1246     0.1767
     33  C34       -4.6260   16.2930   25.1560 C.3   1246  IVK1246     0.4121
     34  F35       -5.5370   17.3350   25.3690 F     1246  IVK1246    -0.1685
     35  F36       -3.6040   16.7060   24.3030 F     1246  IVK1246    -0.1685
     36  F30       -4.0480   15.9250   26.3800 F     1246  IVK1246    -0.1685
     37  C35       -1.2620    8.5660   25.8520 C.ar  1246  IVK1246     0.0175
@<TRIPOS>BOND
     1    27    26   ar
     2    27    29   ar
     3    26    28   ar
     4    30    29    2
     5    29    24   ar
     6    28    25   ar
     7    24    25   ar
     8    24    20    1
     9    21    20   ar
    10    21    23   ar
    11    20    22   ar
    12    31    23    1
    13    23    18   ar
    14    22    19   ar
    15    18    19   ar
    16    18     8    1
    17     8     7   am
    18     7     9    2
    19     7     2    1
    20     3     2    1
    21     3     4    1
    22     2     1    1
    23     4    32    1
    24     4     5    1
    25    35    33    1
    26    32    33    1
    27     1     6    1
    28     1     5    1
    29    10     6    2
    30    33    34    1
    31    33    36    1
    32     6    11   am
    33    37    15   ar
    34    37    12   ar
    35    11    12    1
    36    15    13   ar
    37    12    16   ar
    38    13    17    1
    39    13    14   ar
    40    16    14   ar
