@<TRIPOS>MOLECULE
2xc5_OYJ_A_1.pdb
 37 40 0 0 0
SMALL
GASTEIGER

@<TRIPOS>ATOM
      1  S1         8.9620   70.4430    3.0640 S.O2  1245  OYJ1245     0.0457
      2  C2         9.3830   66.5500    2.8760 C.3   1245  OYJ1245     0.1063
      3  C3        10.1580   66.9180    4.1660 C.3   1245  OYJ1245     0.1063
      4  N4         9.5050   68.8810    3.0220 N.3   1245  OYJ1245    -0.1584
      5  C5         8.4600   65.4050    3.1840 C.2   1245  OYJ1245     0.2471
      6  N6         6.8230   59.1090    3.0970 N.ar  1245  OYJ1245    -0.2731
      7  C7        11.4290   66.1060    4.3200 C.2   1245  OYJ1245     0.2470
      8  C8         8.5930   67.8300    2.5430 C.3   1245  OYJ1245     0.1051
      9  C9        10.3670   68.4410    4.1130 C.3   1245  OYJ1245     0.1051
     10  C10        5.8090   58.7510    2.2880 C.ar  1245  OYJ1245     0.2648
     11  C11        7.3450   60.4060    3.0990 C.ar  1245  OYJ1245     0.0692
     12  N12        8.9820   64.2240    2.9250 N.am  1245  OYJ1245    -0.1769
     13  C13        8.1940   60.7720    2.0730 C.ar  1245  OYJ1245     0.0486
     14  N14       12.1610   66.3050    5.4220 N.am  1245  OYJ1245    -0.1791
     15  C15        8.3520   62.9650    3.0720 C.ar  1245  OYJ1245     0.1008
     16  C16        8.6830   62.0690    2.0810 C.ar  1245  OYJ1245     0.1568
     17  C17       14.9960   63.9830    5.2940 C.ar  1245  OYJ1245     0.1519
     18  C18       13.9520   64.7620    4.8230 C.ar  1245  OYJ1245     0.0471
     19  O19       10.1510   71.1500    3.4000 O.2   1245  OYJ1245    -0.1572
     20  O20        8.3320   70.5560    1.7910 O.2   1245  OYJ1245    -0.1572
     21  C21        7.3710   58.1930    3.9530 C.ar  1245  OYJ1245     0.0829
     22  C22       13.2800   65.5430    5.7530 C.ar  1245  OYJ1245     0.0757
     23  O23        7.3520   65.5510    3.6700 O.2   1245  OYJ1245    -0.2729
     24  O24       11.7570   65.2860    3.4730 O.2   1245  OYJ1245    -0.2729
     25  C25        5.3200   57.4300    2.3380 C.ar  1245  OYJ1245     0.0611
     26  C26       15.3640   63.9810    6.6330 C.ar  1245  OYJ1245     0.0851
     27  O27        5.3300   59.5710    1.4860 O.2   1245  OYJ1245    -0.2666
     28  C28        6.9800   61.3030    4.1130 C.ar  1245  OYJ1245     0.0191
     29  C29        7.4930   62.6010    4.1020 C.ar  1245  OYJ1245     0.0204
     30  C30        6.9200   56.9150    4.0130 C.ar  1245  OYJ1245     0.0192
     31  C31        5.8690   56.5190    3.1810 C.ar  1245  OYJ1245     0.0064
     32  C32       14.6670   64.7390    7.5540 C.ar  1245  OYJ1245     0.0150
     33  C33        7.7880   70.4110    4.4440 C.3   1245  OYJ1245     0.1960
     34  F34        9.5220   62.4450    1.1000 F     1245  OYJ1245    -0.2027
     35  F35       15.7030   63.2250    4.4220 F     1245  OYJ1245    -0.2032
     36  C36       13.6280   65.5050    7.0890 C.ar  1245  OYJ1245     0.0176
     37 CL         16.6520   62.9540    7.1960 Cl    1245  OYJ1245    -0.0799
@<TRIPOS>BOND
     1    34    16    1
     2    27    10    2
     3    20     1    2
     4    13    16   ar
     5    13    11   ar
     6    16    15   ar
     7    10    25   ar
     8    10     6   ar
     9    25    31   ar
    10     8     2    1
    11     8     4    1
    12     2     5    1
    13     2     3    1
    14    12    15    1
    15    12     5   am
    16     4     1    1
    17     4     9    1
    18     1    19    2
    19     1    33    1
    20    15    29   ar
    21     6    11    1
    22     6    21   ar
    23    11    28   ar
    24    31    30   ar
    25     5    23    2
    26    24     7    2
    27    21    30   ar
    28    29    28   ar
    29     9     3    1
    30     3     7    1
    31     7    14   am
    32    35    17    1
    33    18    17   ar
    34    18    22   ar
    35    17    26   ar
    36    14    22    1
    37    22    36   ar
    38    26    37    1
    39    26    32   ar
    40    36    32   ar
