@<TRIPOS>MOLECULE
2xca_DGT_A_1.pdb
 31 33 0 0 0
SMALL
GASTEIGER

@<TRIPOS>ATOM
      1  PG        23.0090   39.9100    3.1310 P.3   1000  DGT1000     0.5373
      2  O1G       23.0360   38.5670    2.2420 O.2   1000  DGT1000    -0.2221
      3  O2G       22.3360   39.4760    4.5250 O.3   1000  DGT1000    -0.1143
      4  O3G       22.2740   41.0050    2.4510 O.3   1000  DGT1000    -0.1143
      5  O3B       24.5400   40.2840    3.4390 O.3   1000  DGT1000    -0.2258
      6  PB        25.1120   40.4690    4.9330 P.3   1000  DGT1000     0.2277
      7  O1B       26.5030   40.9520    4.8000 O.2   1000  DGT1000    -0.5168
      8  O2B       24.1590   41.2940    5.7070 O.3   1000  DGT1000    -0.4368
      9  O3A       25.1170   38.9500    5.4700 O.3   1000  DGT1000    -0.2700
     10  PA        24.1890   38.4170    6.6670 P.3   1000  DGT1000     0.2189
     11  O1A       22.9610   39.3870    7.0330 O.3   1000  DGT1000    -0.4371
     12  O2A       24.1390   36.9770    7.0030 O.2   1000  DGT1000    -0.5170
     13  O5'       25.1790   38.9230    7.8280 O.3   1000  DGT1000    -0.3112
     14  C5'       25.1020   40.2530    8.3460 C.3   1000  DGT1000     0.1812
     15  C4'       26.4740   40.7180    8.8550 C.3   1000  DGT1000     0.1772
     16  O4'       27.0390   39.8560    9.8600 O.3   1000  DGT1000    -0.3347
     17  C3'       27.5330   40.7620    7.7580 C.3   1000  DGT1000     0.1857
     18  O3'       27.3480   41.9300    6.9710 O.3   1000  DGT1000    -0.2203
     19  C2'       28.7560   40.9480    8.6470 C.3   1000  DGT1000     0.0865
     20  C1'       28.4680   39.9040    9.7370 C.3   1000  DGT1000     0.1981
     21  N9        28.9530   38.5700    9.3060 N.pl3 1000  DGT1000    -0.2374
     22  C8        28.2570   37.6320    8.6600 C.3   1000  DGT1000     0.2245
     23  N7        29.0250   36.5600    8.4590 N.2   1000  DGT1000    -0.2322
     24  C5        30.2080   36.8020    9.0060 C.2   1000  DGT1000     0.2182
     25  C6        31.3910   36.0680    9.0940 C.1   1000  DGT1000     0.2372
     26  O6        31.4790   34.9230    8.6230 O.2   1000  DGT1000    -0.2069
     27  N1        32.5010   36.6490    9.7270 N.2   1000  DGT1000    -0.2485
     28  C2        32.3970   37.9390   10.2480 C.1   1000  DGT1000     0.2531
     29  N2        33.4590   38.5140   10.8140 N.pl3 1000  DGT1000    -0.0226
     30  N3        31.2440   38.6180   10.1470 N.2   1000  DGT1000    -0.3074
     31  C4        30.1700   38.0860    9.5350 C.2   1000  DGT1000     0.2299
@<TRIPOS>BOND
     1     2     1    2
     2     4     1    1
     3     1     5    1
     4     1     3    1
     5     5     6    1
     6     7     6    2
     7     6     9    1
     8     6     8    1
     9     9    10    1
    10    10    12    2
    11    10    11    1
    12    10    13    1
    13    18    17    1
    14    17    19    1
    15    17    15    1
    16    13    14    1
    17    14    15    1
    18    23    22    1
    19    23    24    2
    20    26    25    2
    21    19    20    1
    22    22    21    1
    23    15    16    1
    24    24    25    1
    25    24    31    1
    26    25    27    2
    27    21    31    1
    28    21    20    1
    29    31    30    2
    30    27    28    2
    31    20    16    1
    32    30    28    2
    33    28    29    1
