@<TRIPOS>MOLECULE
2xce_DUP_A_1.pdb
 28 29 0 0 0
SMALL
GASTEIGER

@<TRIPOS>ATOM
      1  O4        -7.3160   -5.0250  -38.5650 O.2   1131  DUP1131    -0.2085
      2  C4        -6.9390   -6.1750  -38.1480 C.1   1131  DUP1131     0.2182
      3  C5        -5.6640   -6.3700  -37.5710 C.2   1131  DUP1131     0.1242
      4  C6        -5.3430   -7.6700  -37.1040 C.2   1131  DUP1131     0.0928
      5  N3        -7.8050   -7.2150  -38.1910 N.2   1131  DUP1131    -0.2452
      6  C2        -7.4640   -8.4720  -37.7320 C.1   1131  DUP1131     0.2844
      7  O2        -8.3270   -9.3910  -37.8020 O.2   1131  DUP1131    -0.1918
      8  N1        -6.2490   -8.6830  -37.1820 N.am  1131  DUP1131    -0.1790
      9  C1'       -5.8940  -10.0500  -36.6440 C.3   1131  DUP1131     0.2090
     10  C2'       -4.4270  -10.4910  -36.9360 C.3   1131  DUP1131     0.0874
     11  C3'       -3.7390  -10.2890  -35.5950 C.3   1131  DUP1131     0.1857
     12  O3'       -2.7330  -11.2760  -35.3920 O.3   1131  DUP1131    -0.2203
     13  O4'       -5.9910   -9.8750  -35.2560 O.3   1131  DUP1131    -0.3339
     14  C4'       -4.8580  -10.4400  -34.5840 C.3   1131  DUP1131     0.1774
     15  C5'       -4.6420   -9.8170  -33.2230 C.3   1131  DUP1131     0.1848
     16  O5'       -3.6560  -10.6090  -32.4890 O.3   1131  DUP1131    -0.2775
     17  PA        -2.5990   -9.7840  -31.6240 P.3   1131  DUP1131     0.4623
     18  O1A       -3.3790   -8.9280  -30.6000 O.3   1131  DUP1131    -0.1255
     19  O2A       -1.6080  -10.8750  -31.2100 O.2   1131  DUP1131    -0.2354
     20  N3A       -1.8550   -8.6320  -32.5760 N.3   1131  DUP1131    -0.0179
     21  PB        -0.5270   -9.0190  -33.5590 P.3   1131  DUP1131     0.4700
     22  O1B       -0.6890  -10.3800  -34.2200 O.3   1131  DUP1131    -0.1252
     23  O2B       -0.3370   -7.8200  -34.4540 O.2   1131  DUP1131    -0.2350
     24  O3B        0.7330   -9.0650  -32.6020 O.3   1131  DUP1131    -0.1901
     25  PG         2.2750   -8.5100  -32.5760 P.3   1131  DUP1131     0.5397
     26  O2G        2.9160   -9.5760  -31.7000 O.3   1131  DUP1131    -0.1143
     27  O1G        2.7530   -8.5190  -34.0350 O.2   1131  DUP1131    -0.2220
     28  O3G        2.2120   -7.1090  -31.9360 O.3   1131  DUP1131    -0.1143
@<TRIPOS>BOND
     1     1     2    2
     2     5     2    2
     3     5     6    2
     4     2     3    1
     5     7     6    2
     6     6     8   am
     7     3     4    2
     8     8     4    1
     9     8     9    1
    10    10     9    1
    11    10    11    1
    12     9    13    1
    13    11    12    1
    14    11    14    1
    15    13    14    1
    16    14    15    1
    17    23    21    2
    18    22    21    1
    19    27    25    2
    20    21    24    1
    21    21    20    1
    22    15    16    1
    23    24    25    1
    24    20    17    1
    25    25    28    1
    26    25    26    1
    27    16    17    1
    28    17    19    2
    29    17    18    1
