@<TRIPOS>MOLECULE
2xcf_BBQ_A_1.pdb
 46 51 0 0 0
SMALL
GASTEIGER

@<TRIPOS>ATOM
      1  O9         6.8170   21.8450   14.1320 O.3   1182  BBQ1182     0.0000
      2  C32        7.4890   23.0130   13.6880 C.3   1182  BBQ1182     0.0000
      3  C30        8.4290   22.7730   12.5160 C.3   1182  BBQ1182     0.0000
      4  O6         9.0490   24.0110   12.3030 O.3   1182  BBQ1182     0.0000
      5  C31        8.3540   23.5480   14.8160 C.3   1182  BBQ1182     0.0000
      6  O8         8.8040   24.8210   14.3740 O.3   1182  BBQ1182     0.0000
      7  B          9.5160   24.8830   13.2290 B     1182  BBQ1182     0.0000
      8  O5        10.8300   24.6800   13.4770 O.3   1182  BBQ1182     0.0000
      9  C20       11.7570   25.4800   12.8060 C.3   1182  BBQ1182     0.0000
     10  C19       10.9680   26.7620   12.5860 C.3   1182  BBQ1182     0.0000
     11  C18        9.4990   26.3170   12.5700 C.3   1182  BBQ1182     0.0000
     12  N3         8.7170   27.2040   13.4100 N.am  1182  BBQ1182     0.0000
     13  C17        7.5880   27.7970   12.9840 C.2   1182  BBQ1182     0.0000
     14  O4         6.9120   27.5080   11.9920 O.2   1182  BBQ1182     0.0000
     15  C16        7.1830   29.0590   13.7590 C.3   1182  BBQ1182     0.0000
     16  N2         6.7700   30.0990   12.7880 N.am  1182  BBQ1182     0.0000
     17  C12        7.6360   30.6260   11.8760 C.2   1182  BBQ1182     0.0000
     18  C5         7.0640   31.4980   10.7220 C.3   1182  BBQ1182     0.0000
     19  N1         7.8850   32.7050   10.7250 N.am  1182  BBQ1182     0.0000
     20  C6         7.5450   33.7100   11.5410 C.2   1182  BBQ1182     0.0000
     21  O2         8.4400   34.6610   11.6560 O.3   1182  BBQ1182     0.0000
     22  C7         8.0820   35.8730   12.3280 C.3   1182  BBQ1182     0.0000
     23  C8         9.1000   36.9310   11.8940 C.3   1182  BBQ1182     0.0000
     24  C9        10.1730   36.8850   12.9850 C.3   1182  BBQ1182     0.0000
     25  C10        9.4060   36.6120   14.2770 C.3   1182  BBQ1182     0.0000
     26  C11        8.2280   35.7200   13.8620 C.3   1182  BBQ1182     0.0000
     27  O1         6.5570   33.7270   12.2090 O.2   1182  BBQ1182     0.0000
     28  C2         6.9790   30.8460    9.2960 C.3   1182  BBQ1182     0.0000
     29  C1         6.3930   31.8950    8.3140 C.3   1182  BBQ1182     0.0000
     30  C3         8.3340   30.3450    8.7230 C.3   1182  BBQ1182     0.0000
     31  C4         6.0150   29.6370    9.3340 C.3   1182  BBQ1182     0.0000
     32  O3         8.8490   30.4800   11.9590 O.2   1182  BBQ1182     0.0000
     33  C15        5.9090   28.8070   14.5860 C.3   1182  BBQ1182     0.0000
     34  C14        5.0670   30.0820   14.3730 C.3   1182  BBQ1182     0.0000
     35  C13        5.3670   30.4830   12.9360 C.3   1182  BBQ1182     0.0000
     36  O7         5.5850   31.1640   15.1370 O.3   1182  BBQ1182     0.0000
     37  C21        5.1330   31.3040   16.4550 C.ar  1182  BBQ1182     0.0000
     38  N4         4.1330   30.5150   16.9670 N.ar  1182  BBQ1182     0.0000
     39  C22        3.6170   30.7510   18.2040 C.ar  1182  BBQ1182     0.0000
     40  C23        4.1500   31.7430   19.0500 C.ar  1182  BBQ1182     0.0000
     41  C24        5.2170   32.5420   18.5810 C.ar  1182  BBQ1182     0.0000
     42  C29        5.7050   32.3310   17.2640 C.ar  1182  BBQ1182     0.0000
     43  C25        5.7540   33.5870   19.3880 C.ar  1182  BBQ1182     0.0000
     44  C26        6.7130   34.4690   18.8400 C.ar  1182  BBQ1182     0.0000
     45  C27        7.2420   34.2370   17.5450 C.ar  1182  BBQ1182     0.0000
     46  C28        6.7210   33.1870   16.7560 C.ar  1182  BBQ1182     0.0000
@<TRIPOS>BOND
     1    29    28    1
     2    30    28    1
     3    28    31    1
     4    28    18    1
     5    18    19    1
     6    18    17    1
     7    19    20   am
     8    20    21    1
     9    20    27    2
    10    21    22    1
    11    17    32    2
    12    17    16   am
    13    23    22    1
    14    23    24    1
    15    14    13    2
    16     4     3    1
    17     4     7    1
    18    22    26    1
    19     3     2    1
    20    11    10    1
    21    11     7    1
    22    11    12    1
    23    10     9    1
    24    16    35    1
    25    16    15    1
    26     9     8    1
    27    35    34    1
    28    13    12   am
    29    13    15    1
    30    24    25    1
    31     7     8    1
    32     7     6    1
    33     2     1    1
    34     2     5    1
    35    15    33    1
    36    26    25    1
    37    34    33    1
    38    34    36    1
    39     6     5    1
    40    36    37    1
    41    37    38   ar
    42    37    42   ar
    43    46    42   ar
    44    46    45   ar
    45    38    39   ar
    46    42    41   ar
    47    45    44   ar
    48    39    40   ar
    49    41    40   ar
    50    41    43   ar
    51    44    43   ar
