@<TRIPOS>MOLECULE
2xcg_C15_A_1.pdb
 22 21 0 0 0
SMALL
GASTEIGER

@<TRIPOS>ATOM
      1  C1        29.2910  154.0500   42.7710 C.3   603  C15603      0.1031
      2  C2        29.4810  155.5620   42.6340 C.3   603  C15603     -0.0007
      3  C3        28.8430  156.0670   41.3420 C.3   603  C15603     -0.0715
      4  C5        25.7830  161.8030   52.3220 C.3   603  C15603      0.0000
      5  C6        25.4280  160.6060   51.4520 C.3   603  C15603      0.0000
      6  C7        24.2890  160.8910   50.4590 C.3   603  C15603      0.0000
      7  C8        24.4320  160.0740   49.1600 C.3   603  C15603      0.0000
      8  N1        29.0610  157.5080   41.0800 N.4   603  C15603      0.3871
      9  C1N       30.5000  157.8390   41.0920 C.3   603  C15603     -0.0959
     10  C2N       28.5350  157.7180   39.7200 C.3   603  C15603     -0.0959
     11  C9        23.1260  159.9440   48.3610 C.3   603  C15603      0.0000
     12  C10       23.2790  160.3590   46.8950 C.3   603  C15603      0.0000
     13  C11       23.4700  159.1950   45.9170 C.3   603  C15603     -0.0000
     14  C12       24.8770  159.1840   45.3050 C.3   603  C15603     -0.0000
     15  C13       24.9300  158.6260   43.8800 C.3   603  C15603     -0.0001
     16  C14       26.1450  159.1820   43.1230 C.3   603  C15603     -0.0021
     17  C15       26.8440  158.1350   42.2330 C.3   603  C15603     -0.0223
     18  C16       28.3580  158.3910   42.0750 C.3   603  C15603     -0.0732
     19  S1        29.0600  153.6430   44.3750 S.3   603  C15603     -0.1961
     20  O1S       29.0440  152.1570   44.4940 O.3   603  C15603     -0.3075
     21  O2S       27.7510  154.2040   44.7890 O.3   603  C15603     -0.3075
     22  O3S       30.1490  154.1900   45.2300 O.3   603  C15603     -0.3075
@<TRIPOS>BOND
     1    10     8    1
     2     8     9    1
     3     8     3    1
     4     8    18    1
     5     3     2    1
     6    18    17    1
     7    17    16    1
     8     2     1    1
     9     1    19    1
    10    16    15    1
    11    15    14    1
    12    19    20    1
    13    19    21    1
    14    19    22    1
    15    14    13    1
    16    13    12    1
    17    12    11    1
    18    11     7    1
    19     7     6    1
    20     6     5    1
    21     5     4    1
