@<TRIPOS>MOLECULE
2xcg_3PL_A_1.pdb
 10 10 0 0 0
SMALL
GASTEIGER

@<TRIPOS>ATOM
      1  C         53.1250  149.8460   25.5380 C.2   601  3PL601      0.2077
      2  O         52.2310  149.0560   25.8670 O.2   601  3PL601     -0.2883
      3  CA        53.8610  149.6700   24.2220 C.3   601  3PL601      0.0769
      4  CB        55.1280  150.5730   24.0870 C.3   601  3PL601      0.0346
      5  CG        54.9900  152.0680   24.5080 C.ar  601  3PL601     -0.0217
      6  CD1       55.9440  152.6310   25.3890 C.ar  601  3PL601     -0.0043
      7  CE1       55.8540  153.9830   25.7480 C.ar  601  3PL601     -0.0003
      8  CZ        54.8070  154.7680   25.2380 C.ar  601  3PL601     -0.0000
      9  CE2       53.8670  154.2130   24.3550 C.ar  601  3PL601     -0.0003
     10  CD2       53.9700  152.8700   23.9860 C.ar  601  3PL601     -0.0043
@<TRIPOS>BOND
     1    10     9   ar
     2    10     5   ar
     3     4     3    1
     4     4     5    1
     5     3     1    1
     6     9     8   ar
     7     5     6   ar
     8     8     7   ar
     9     6     7   ar
    10     1     2    2
