@<TRIPOS>MOLECULE
2xcg_XCG_A_1.pdb
 14 16 0 0 0
SMALL
GASTEIGER

@<TRIPOS>ATOM
      1  CAE       50.1560  161.2080   32.4370 C.ar  602  XCG602      0.0510
      2  CAM       49.0500  160.8430   31.7560 C.ar  602  XCG602      0.0383
      3  CAC       47.7280  160.5860   32.1500 C.ar  602  XCG602      0.0032
      4  CAA       46.7660  160.2340   31.1960 C.ar  602  XCG602      0.0002
      5  CAB       47.1050  160.1550   29.8380 C.ar  602  XCG602      0.0031
      6  CAD       48.4310  160.4100   29.4440 C.ar  602  XCG602      0.0375
      7  CAN       49.3840  160.7550   30.4080 C.ar  602  XCG602      0.1463
      8  OAJ       50.7160  161.0670   30.3110 O.2   602  XCG602     -0.4436
      9  CAL       51.1880  161.3300   31.5680 C.ar  602  XCG602      0.2067
     10  CAK       52.5510  161.6680   31.7170 C.1   602  XCG602      0.0713
     11  NAH       53.2290  161.9300   32.8500 N.2   602  XCG602     -0.1881
     12  CAF       54.6490  162.2570   32.5830 C.2   602  XCG602      0.1311
     13  CAG       54.7760  162.0760   31.0530 C.2   602  XCG602      0.1311
     14  NAI       53.3620  161.7630   30.6670 N.2   602  XCG602     -0.1881
@<TRIPOS>BOND
     1     6     5   ar
     2     6     7   ar
     3     5     4   ar
     4     8     7   ar
     5     8     9   ar
     6     7     2   ar
     7    14    13    1
     8    14    10    2
     9    13    12    2
    10     4     3   ar
    11     9    10    1
    12     9     1   ar
    13    10    11    2
    14     2     3   ar
    15     2     1   ar
    16    12    11    1
