@<TRIPOS>MOLECULE
2xch_CKG_A_1.pdb
 30 34 0 0 0
SMALL
GASTEIGER

@<TRIPOS>ATOM
      1  O9       -45.1620   17.3950   10.8320 O.2   1360  CKG1360    -0.2649
      2  C8       -44.3920   18.1550   11.3860 C.2   1360  CKG1360     0.3033
      3  N24      -44.6700   19.4620   11.5330 N.am  1360  CKG1360    -0.0823
      4  C5       -43.0880   17.7000   11.9450 C.ar  1360  CKG1360     0.1548
      5  C4       -42.4930   16.4490   11.7980 C.ar  1360  CKG1360     0.0219
      6  C2       -42.9630   15.2100   11.0590 C.3   1360  CKG1360     0.0345
      7  N6       -42.2970   18.4730   12.7020 N.ar  1360  CKG1360    -0.1648
      8  N7       -41.1770   17.7010   13.0310 N.ar  1360  CKG1360    -0.2486
      9  C17      -40.1900   18.3530   13.8980 C.3   1360  CKG1360     0.1276
     10  C25      -39.2850   19.3540   13.1810 C.3   1360  CKG1360     0.0273
     11  C30      -38.9710   18.8840   11.7640 C.3   1360  CKG1360     0.0208
     12  C29      -38.1290   19.9240   11.0470 C.3   1360  CKG1360     0.0888
     13  N28      -38.6790   21.2690   11.1590 N.3   1360  CKG1360    -0.2180
     14  C27      -39.0910   21.7520   12.4720 C.3   1360  CKG1360     0.0888
     15  C26      -39.9840   20.7270   13.1480 C.3   1360  CKG1360     0.0208
     16  C3       -41.2980   16.4620   12.5140 C.ar  1360  CKG1360     0.1056
     17  C11      -40.4220   15.3860   12.5380 C.2   1360  CKG1360     0.1585
     18  N18      -39.1250   15.5270   12.8810 N.2   1360  CKG1360    -0.3349
     19  C12      -38.2640   14.4670   12.8250 C.1   1360  CKG1360     0.1697
     20  N13      -38.7170   13.2550   12.4260 N.2   1360  CKG1360    -0.1687
     21  C14      -39.9980   13.0930   12.0610 C.2   1360  CKG1360     0.1101
     22  C10      -40.8830   14.1520   12.1070 C.2   1360  CKG1360     0.0301
     23  C1       -42.3380   13.9620   11.7070 C.3   1360  CKG1360     0.0354
     24  N15      -36.9650   14.5230   13.1860 N.pl3 1360  CKG1360    -0.1358
     25  C16      -36.2230   15.5310   13.7280 C.ar  1360  CKG1360     0.0826
     26  C23      -36.7030   16.8210   13.9440 C.ar  1360  CKG1360     0.0173
     27  C22      -35.8420   17.7990   14.4930 C.ar  1360  CKG1360     0.0014
     28  C21      -34.5070   17.4990   14.8110 C.ar  1360  CKG1360     0.0001
     29  C20      -34.0290   16.2070   14.5860 C.ar  1360  CKG1360     0.0014
     30  C19      -34.8970   15.2380   14.0540 C.ar  1360  CKG1360     0.0173
@<TRIPOS>BOND
     1     1     2    2
     2    12    13    1
     3    12    11    1
     4     6    23    1
     5     6     5    1
     6    13    14    1
     7     2     3   am
     8     2     4    1
     9    23    22    1
    10    11    10    1
    11     5     4   ar
    12     5    16   ar
    13     4     7   ar
    14    21    22    2
    15    21    20    1
    16    22    17    1
    17    20    19    2
    18    14    15    1
    19    16    17    1
    20    16     8   ar
    21    17    18    2
    22     7     8   ar
    23    19    18    2
    24    19    24    1
    25     8     9    1
    26    15    10    1
    27    10     9    1
    28    24    25    1
    29    25    26   ar
    30    25    30   ar
    31    26    27   ar
    32    30    29   ar
    33    27    28   ar
    34    29    28   ar
