@<TRIPOS>MOLECULE
2xck_MH4_A_1.pdb
 39 44 0 0 0
SMALL
GASTEIGER

@<TRIPOS>ATOM
      1  O23      -38.1290  -30.6020   26.9080 O.2   1360  MH41360    -0.2666
      2  C21      -38.2280  -29.4050   27.1670 C.2   1360  MH41360     0.2843
      3  N22      -39.3700  -28.7030   26.9690 N.am  1360  MH41360    -0.1955
      4  C32      -40.6930  -29.1300   26.5360 C.3   1360  MH41360     0.1419
      5  C33      -41.3740  -29.5660   27.8230 C.ar  1360  MH41360     0.0022
      6  C38      -42.5320  -30.3370   27.7970 C.ar  1360  MH41360     0.0181
      7  C37      -43.1170  -30.7150   29.0090 C.ar  1360  MH41360     0.0982
      8  N36      -42.5700  -30.3250   30.1980 N.ar  1360  MH41360    -0.2482
      9  C35      -41.4590  -29.5490   30.2640 C.ar  1360  MH41360     0.0591
     10  C39      -40.8880  -29.1500   31.6010 C.3   1360  MH41360     0.0521
     11  C34      -40.8370  -29.1690   29.0780 C.ar  1360  MH41360     0.0122
     12  C20      -37.0870  -28.5800   27.6950 C.ar  1360  MH41360     0.1532
     13  C16      -35.7200  -28.7870   27.5740 C.ar  1360  MH41360     0.0218
     14  C8       -34.8940  -29.8820   26.8970 C.3   1360  MH41360     0.0345
     15  N19      -37.2710  -27.4410   28.3800 N.ar  1360  MH41360    -0.1648
     16  N18      -36.0340  -26.9220   28.7080 N.ar  1360  MH41360    -0.2465
     17  C24      -36.0760  -25.6660   29.5050 C.3   1360  MH41360     0.1538
     18  C17      -35.0870  -27.7430   28.2540 C.ar  1360  MH41360     0.1057
     19  C10      -33.6940  -27.6290   28.2710 C.2   1360  MH41360     0.1585
     20  N15      -33.1070  -26.4450   28.5090 N.2   1360  MH41360    -0.3349
     21  C14      -31.7780  -26.2990   28.4610 C.1   1360  MH41360     0.1697
     22  N13      -31.0320  -27.3700   28.1340 N.2   1360  MH41360    -0.1687
     23  C12      -31.5570  -28.5730   27.8720 C.2   1360  MH41360     0.1101
     24  C11      -32.9240  -28.7350   27.9140 C.2   1360  MH41360     0.0301
     25  C9       -33.5610  -30.0630   27.6350 C.3   1360  MH41360     0.0354
     26  N1       -31.1700  -25.0980   28.6880 N.pl3 1360  MH41360    -0.1358
     27  C2       -31.7370  -23.9630   29.1600 C.ar  1360  MH41360     0.0827
     28  C7       -30.9820  -23.1080   29.9770 C.ar  1360  MH41360     0.0186
     29  C6       -31.5630  -21.9350   30.4970 C.ar  1360  MH41360     0.0159
     30  C5       -32.9000  -21.6240   30.1760 C.ar  1360  MH41360     0.0480
     31  C4       -33.6220  -22.4810   29.3300 C.ar  1360  MH41360     0.0159
     32  C3       -33.0440  -23.6390   28.8340 C.ar  1360  MH41360     0.0186
     33  N25      -33.5280  -20.4200   30.6370 N.pl3 1360  MH41360    -0.3046
     34  C30      -32.8120  -19.5420   31.5750 C.3   1360  MH41360     0.1081
     35  C29      -33.8140  -19.2750   32.6880 C.3   1360  MH41360     0.0938
     36  N28      -34.8090  -18.4430   31.9780 N.3   1360  MH41360    -0.2686
     37  C31      -35.5470  -17.4640   32.8430 C.3   1360  MH41360     0.0897
     38  C27      -35.6830  -19.3640   31.2100 C.3   1360  MH41360     0.0938
     39  C26      -34.8630  -20.0730   30.1220 C.3   1360  MH41360     0.1081
@<TRIPOS>BOND
     1     4     3    1
     2     4     5    1
     3    14    13    1
     4    14    25    1
     5     1     2    2
     6     3     2   am
     7     2    12    1
     8    13    12   ar
     9    13    18   ar
    10    25    24    1
    11    12    15   ar
    12     6     5   ar
    13     6     7   ar
    14     5    11   ar
    15    23    24    2
    16    23    22    1
    17    24    19    1
    18    22    21    2
    19    18    19    1
    20    18    16   ar
    21    19    20    2
    22    15    16   ar
    23    21    20    2
    24    21    26    1
    25    26    27    1
    26    16    17    1
    27    32    27   ar
    28    32    31   ar
    29     7     8   ar
    30    11     9   ar
    31    27    28   ar
    32    31    30   ar
    33    28    29   ar
    34    39    33    1
    35    39    38    1
    36    30    29   ar
    37    30    33    1
    38     8     9   ar
    39     9    10    1
    40    33    34    1
    41    38    36    1
    42    34    35    1
    43    36    35    1
    44    36    37    1
