@<TRIPOS>MOLECULE
2xcl_ANP_A_1.pdb
 31 33 0 0 0
SMALL
GASTEIGER

@<TRIPOS>ATOM
      1  PG        15.4390   43.3150   36.5700 P.3   450  ANP450      0.4884
      2  O1G       15.7850   44.6590   37.0640 O.3   450  ANP450     -0.1240
      3  O2G       16.5670   42.4080   36.2840 O.2   450  ANP450     -0.2331
      4  O3G       14.4120   42.6750   37.4860 O.3   450  ANP450     -0.1240
      5  PB        14.0170   42.2300   34.3290 P.3   450  ANP450      0.4669
      6  O1B       14.9490   41.7370   33.2490 O.2   450  ANP450     -0.2351
      7  O2B       13.5290   41.2610   35.3600 O.3   450  ANP450     -0.1253
      8  N3B       14.7540   43.4780   35.0880 N.3   450  ANP450     -0.0163
      9  PA        11.8190   44.2580   33.8010 P.3   450  ANP450      0.2220
     10  O1A       11.0300   44.1190   35.0440 O.3   450  ANP450     -0.4370
     11  O2A       12.6140   45.5140   33.6030 O.2   450  ANP450     -0.5170
     12  O3A       12.7590   42.9370   33.6200 O.3   450  ANP450     -0.2360
     13  O5'       10.8120   44.1250   32.6090 O.3   450  ANP450     -0.3111
     14  C5'       11.5620   43.9860   31.4240 C.3   450  ANP450      0.1813
     15  C4'       10.8400   43.0270   30.5570 C.3   450  ANP450      0.1821
     16  O4'        9.8330   43.9140   29.9560 O.3   450  ANP450     -0.3135
     17  C3'       11.6800   42.5640   29.4040 C.3   450  ANP450      0.2184
     18  O3'       11.1150   41.3420   28.8800 O.3   450  ANP450     -0.2174
     19  C2'       11.6560   43.7490   28.5190 C.3   450  ANP450      0.2570
     20  O2'       12.0670   43.4100   27.2270 O.3   450  ANP450     -0.2130
     21  C1'       10.2050   44.2560   28.6010 C.3   450  ANP450      0.3186
     22  N9        10.1780   45.7210   28.3550 N.pl3 450  ANP450     -0.1439
     23  C8        10.4230   46.7610   29.2220 C.3   450  ANP450      0.3377
     24  N7        10.3290   47.9470   28.6850 N.2   450  ANP450     -0.2095
     25  C5         9.9970   47.6670   27.3770 C.2   450  ANP450      0.2526
     26  C6         9.7430   48.4990   26.2310 C.2   450  ANP450      0.4393
     27  N6         9.8110   49.8200   26.3020 N.pl3 450  ANP450      0.2180
     28  N1         9.4300   47.9010   25.0500 N.2   450  ANP450      0.0021
     29  C2         9.3730   46.5710   24.9830 C.3   450  ANP450      0.5254
     30  N3         9.5920   45.6910   25.9610 N.2   450  ANP450     -0.0055
     31  C4         9.9030   46.3180   27.1590 C.2   450  ANP450      0.3518
@<TRIPOS>BOND
     1    29    28    1
     2    29    30    1
     3    28    26    2
     4    30    31    2
     5    26    27    1
     6    26    25    1
     7    31    25    1
     8    31    22    1
     9    20    19    1
    10    25    24    2
    11    22    21    1
    12    22    23    1
    13    19    21    1
    14    19    17    1
    15    21    16    1
    16    24    23    1
    17    18    17    1
    18    17    15    1
    19    16    15    1
    20    15    14    1
    21    14    13    1
    22    13     9    1
    23     6     5    2
    24    11     9    2
    25    12     9    1
    26    12     5    1
    27     9    10    1
    28     5     8    1
    29     5     7    1
    30     8     1    1
    31     3     1    2
    32     1     2    1
    33     1     4    1
