@<TRIPOS>MOLECULE
2xcm_ADP_A_1.pdb
 27 29 0 0 0
SMALL
GASTEIGER

@<TRIPOS>ATOM
      1  PB       -30.8050  -35.6160  154.5170 P.3   1211  ADP1211     0.5373
      2  O1B      -30.7140  -36.7590  153.5280 O.2   1211  ADP1211    -0.2221
      3  O2B      -30.5050  -34.2650  153.9250 O.3   1211  ADP1211    -0.1143
      4  O3B      -32.0660  -35.6310  155.3400 O.3   1211  ADP1211    -0.1143
      5  PA       -29.5110  -36.3300  157.0600 P.3   1211  ADP1211     0.2231
      6  O1A      -30.4400  -35.5240  157.9020 O.3   1211  ADP1211    -0.4370
      7  O2A      -28.0630  -36.4430  157.5040 O.2   1211  ADP1211    -0.5169
      8  O3A      -29.5120  -35.8200  155.5150 O.3   1211  ADP1211    -0.2261
      9  O5'      -30.0620  -37.8330  156.9070 O.3   1211  ADP1211    -0.3111
     10  C5'      -29.3090  -38.7530  156.1180 C.3   1211  ADP1211     0.1813
     11  C4'      -30.1880  -39.9250  155.6950 C.3   1211  ADP1211     0.1821
     12  O4'      -30.4410  -40.8060  156.7930 O.3   1211  ADP1211    -0.3135
     13  C3'      -31.5670  -39.4990  155.2190 C.3   1211  ADP1211     0.2184
     14  O3'      -31.5590  -39.0800  153.8490 O.3   1211  ADP1211    -0.2174
     15  C2'      -32.3850  -40.7520  155.4360 C.3   1211  ADP1211     0.2570
     16  O2'      -32.2450  -41.6460  154.3110 O.3   1211  ADP1211    -0.2130
     17  C1'      -31.7410  -41.3820  156.6680 C.3   1211  ADP1211     0.3186
     18  N9       -32.5250  -41.0410  157.8890 N.pl3 1211  ADP1211    -0.1439
     19  C8       -32.2140  -40.1180  158.8300 C.3   1211  ADP1211     0.3377
     20  N7       -33.1590  -40.0780  159.8190 N.2   1211  ADP1211    -0.2095
     21  C5       -34.1000  -40.9960  159.5130 C.2   1211  ADP1211     0.2526
     22  C6       -35.3740  -41.4740  160.1120 C.2   1211  ADP1211     0.4393
     23  N6       -35.8460  -40.9570  161.2720 N.pl3 1211  ADP1211     0.2180
     24  N1       -36.0490  -42.4560  159.4610 N.2   1211  ADP1211     0.0021
     25  C2       -35.5960  -42.9750  158.3060 C.3   1211  ADP1211     0.5254
     26  N3       -34.4450  -42.5950  157.7090 N.2   1211  ADP1211    -0.0055
     27  C4       -33.6760  -41.6230  158.2470 C.2   1211  ADP1211     0.3518
@<TRIPOS>BOND
     1     2     1    2
     2    14    13    1
     3     3     1    1
     4    16    15    1
     5     1     4    1
     6     1     8    1
     7    13    15    1
     8    13    11    1
     9    15    17    1
    10     8     5    1
    11    11    10    1
    12    11    12    1
    13    10     9    1
    14    17    12    1
    15    17    18    1
    16     9     5    1
    17     5     7    2
    18     5     6    1
    19    26    27    2
    20    26    25    1
    21    18    27    1
    22    18    19    1
    23    27    21    1
    24    25    24    1
    25    19    20    1
    26    24    22    2
    27    21    20    2
    28    21    22    1
    29    22    23    1
