@<TRIPOS>MOLECULE
2xcn_C8D_A_1.pdb
 42 45 0 0 0
SMALL
GASTEIGER

@<TRIPOS>ATOM
      1  O1         6.5810   33.6180   11.8170 O.2   1181  C8D1181     0.0000
      2  C6         7.6760   33.5790   11.3440 C.2   1181  C8D1181     0.0000
      3  O2         8.5120   34.6260   11.3650 O.3   1181  C8D1181     0.0000
      4  C7         8.2110   35.8660   12.0330 C.3   1181  C8D1181     0.0000
      5  C8         9.4420   36.7590   11.9570 C.3   1181  C8D1181     0.0000
      6  C9        10.2020   36.5640   13.2730 C.3   1181  C8D1181     0.0000
      7  C10        9.1540   36.1830   14.3190 C.3   1181  C8D1181     0.0000
      8  C11        7.9260   35.6890   13.5370 C.3   1181  C8D1181     0.0000
      9  N1         8.1920   32.4690   10.7530 N.am  1181  C8D1181     0.0000
     10  C5         7.3730   31.2430   10.6820 C.3   1181  C8D1181     0.0000
     11  C2         7.0800   30.7510    9.2100 C.3   1181  C8D1181     0.0000
     12  C1         6.8940   29.2270    9.0000 C.3   1181  C8D1181     0.0000
     13  C3         5.8030   31.4870    8.7250 C.3   1181  C8D1181     0.0000
     14  C4         8.2180   31.1430    8.2690 C.3   1181  C8D1181     0.0000
     15  C12        8.0420   30.2140   11.6670 C.2   1181  C8D1181     0.0000
     16  O3         9.2590   30.0310   11.7230 O.2   1181  C8D1181     0.0000
     17  N2         7.1650   29.5420   12.4670 N.am  1181  C8D1181     0.0000
     18  C16        7.5670   28.5670   13.5010 C.3   1181  C8D1181     0.0000
     19  C17        8.1400   27.2510   12.9610 C.2   1181  C8D1181     0.0000
     20  N3         8.7130   26.4180   13.8770 N.am  1181  C8D1181     0.0000
     21  C18        9.2880   25.1240   13.4790 C.3   1181  C8D1181     0.0000
     22  C19       10.8240   25.1660   13.2120 C.3   1181  C8D1181     0.0000
     23  C20       11.1980   26.4370   12.4030 C.3   1181  C8D1181     0.0000
     24  O5        10.8740   26.2110   11.0350 O.3   1181  C8D1181     0.0000
     25  B          8.9780   23.9860   14.5500 B     1181  C8D1181     0.0000
     26  O6         7.7440   23.4990   14.7180 O.3   1181  C8D1181     0.0000
     27  O8         9.7250   22.7130   14.1490 O.3   1181  C8D1181     0.0000
     28  O4         8.0590   27.0200   11.7660 O.2   1181  C8D1181     0.0000
     29  C13        5.7220   29.7600   12.4040 C.3   1181  C8D1181     0.0000
     30  C14        5.3280   29.4510   13.8420 C.3   1181  C8D1181     0.0000
     31  C15        6.2260   28.2290   14.1550 C.3   1181  C8D1181     0.0000
     32  O7         5.7350   30.5990   14.5540 O.3   1181  C8D1181     0.0000
     33  C21        5.1320   30.8090   15.7940 C.ar  1181  C8D1181     0.0000
     34  N4         4.1120   30.0100   16.2530 N.ar  1181  C8D1181     0.0000
     35  C22        3.6000   30.1900   17.5040 C.ar  1181  C8D1181     0.0000
     36  C23        4.0690   31.1860   18.3780 C.ar  1181  C8D1181     0.0000
     37  C24        5.1090   32.0310   17.9360 C.ar  1181  C8D1181     0.0000
     38  C29        5.6490   31.8450   16.6300 C.ar  1181  C8D1181     0.0000
     39  C25        5.6050   33.0370   18.7910 C.ar  1181  C8D1181     0.0000
     40  C26        6.6400   33.8630   18.3330 C.ar  1181  C8D1181     0.0000
     41  C27        7.1710   33.6880   17.0380 C.ar  1181  C8D1181     0.0000
     42  C28        6.6950   32.6860   16.1800 C.ar  1181  C8D1181     0.0000
@<TRIPOS>BOND
     1    14    11    1
     2    13    11    1
     3    12    11    1
     4    11    10    1
     5    10     9    1
     6    10    15    1
     7     9     2   am
     8    24    23    1
     9     2     3    1
    10     2     1    2
    11     3     4    1
    12    15    16    2
    13    15    17   am
    14    28    19    2
    15     5     4    1
    16     5     6    1
    17     4     8    1
    18    23    22    1
    19    29    17    1
    20    29    30    1
    21    17    18    1
    22    19    18    1
    23    19    20   am
    24    22    21    1
    25     6     7    1
    26    21    20    1
    27    21    25    1
    28    18    31    1
    29     8     7    1
    30    30    31    1
    31    30    32    1
    32    27    25    1
    33    25    26    1
    34    32    33    1
    35    33    34   ar
    36    33    38   ar
    37    42    38   ar
    38    42    41   ar
    39    34    35   ar
    40    38    37   ar
    41    41    40   ar
    42    35    36   ar
    43    37    36   ar
    44    37    39   ar
    45    40    39   ar
