@<TRIPOS>MOLECULE
2xcp_DCP_A_1.pdb
 28 29 0 0 0
SMALL
GASTEIGER

@<TRIPOS>ATOM
      1  N1        -0.3880   -7.6090  -38.4080 N.am  5000  DCP5000    -0.1802
      2  C2        -1.6850   -7.7760  -38.9050 C.1   5000  DCP5000     0.2756
      3  N3        -2.4180   -8.9100  -38.5440 N.2   5000  DCP5000    -0.3024
      4  C4        -1.8540   -9.8660  -37.6910 C.2   5000  DCP5000     0.2346
      5  C5        -0.5640   -9.6960  -37.2010 C.2   5000  DCP5000     0.0687
      6  C6         0.1690   -8.5710  -37.5570 C.2   5000  DCP5000     0.0835
      7  O2        -2.1810   -6.9270  -39.6440 O.2   5000  DCP5000    -0.1925
      8  N4        -2.5660  -10.9320  -37.3420 N.pl3 5000  DCP5000    -0.0921
      9  C1'        0.3970   -6.4200  -38.8020 C.3   5000  DCP5000     0.2090
     10  C2'        0.2010   -5.2920  -37.7870 C.3   5000  DCP5000     0.0874
     11  C3'        1.2700   -5.6410  -36.7560 C.3   5000  DCP5000     0.1857
     12  C4'        2.4040   -5.9560  -37.7310 C.3   5000  DCP5000     0.1773
     13  O4'        1.7830   -6.7950  -38.7170 O.3   5000  DCP5000    -0.3339
     14  O3'        1.5880   -4.4700  -35.9990 O.3   5000  DCP5000    -0.2203
     15  C5'        3.5250   -6.7320  -37.0420 C.3   5000  DCP5000     0.1812
     16  O5'        2.9590   -7.9430  -36.5370 O.3   5000  DCP5000    -0.3112
     17  PA         3.6930   -8.7680  -35.3660 P.3   5000  DCP5000     0.2189
     18  O1A        4.7080   -9.6490  -35.9880 O.2   5000  DCP5000    -0.5170
     19  O2A        2.6750   -9.4170  -34.5130 O.3   5000  DCP5000    -0.4371
     20  O3A        4.4170   -7.5960  -34.5280 O.3   5000  DCP5000    -0.2700
     21  PB         3.6310   -6.6840  -33.4490 P.3   5000  DCP5000     0.2277
     22  O1B        2.1810   -6.7540  -33.7340 O.2   5000  DCP5000    -0.5168
     23  O2B        4.2500   -5.3440  -33.3540 O.3   5000  DCP5000    -0.4368
     24  O3B        3.8860   -7.4320  -32.0440 O.3   5000  DCP5000    -0.2258
     25  PG         5.3320   -7.4220  -31.3320 P.3   5000  DCP5000     0.5373
     26  O1G        5.8400   -8.9520  -31.3230 O.3   5000  DCP5000    -0.1143
     27  O2G        6.3820   -6.6730  -32.2950 O.2   5000  DCP5000    -0.2221
     28  O3G        5.3180   -6.8110  -29.9850 O.3   5000  DCP5000    -0.1143
@<TRIPOS>BOND
     1     7     2    2
     2     2     3    2
     3     2     1   am
     4     9    13    1
     5     9     1    1
     6     9    10    1
     7    13    12    1
     8     3     4    2
     9     1     6    1
    10    10    11    1
    11    12    15    1
    12    12    11    1
    13     4     8    1
    14     4     5    1
    15     6     5    2
    16    15    16    1
    17    11    14    1
    18    16    17    1
    19    18    17    2
    20    17    20    1
    21    17    19    1
    22    20    21    1
    23    22    21    2
    24    21    23    1
    25    21    24    1
    26    27    25    2
    27    24    25    1
    28    25    26    1
    29    25    28    1
