@<TRIPOS>MOLECULE
2xcr_RXV_E_1.pdb
 33 37 0 0 0
SMALL
GASTEIGER

@<TRIPOS>ATOM
      1  N11       40.4640    1.0940   11.9010 N.1   1021  RXV1021    -0.1911
      2  C10       41.0190    0.5960   11.0390 C.1   1021  RXV1021     0.0974
      3  C9        41.8350    0.0390   10.2550 C.2   1021  RXV1021     0.0634
      4  C12       41.2680   -0.5460    9.1790 C.2   1021  RXV1021    -0.0260
      5  C32       42.1120   -1.1170    8.2010 C.3   1021  RXV1021     0.0835
      6  C33       41.6080   -1.7540    7.0790 C.2   1021  RXV1021     0.0204
      7  C3        42.4170   -2.3090    6.1240 C.2   1021  RXV1021     0.1352
      8  O2        41.8410   -2.9300    5.0410 O.2   1021  RXV1021    -0.4717
      9  C1        40.4430   -2.7020    4.8250 C.3   1021  RXV1021     0.2525
     10  C4        43.7800   -2.2190    6.3040 C.2   1021  RXV1021     0.0378
     11  C5        44.3810   -1.6090    7.3840 C.2   1021  RXV1021     0.0180
     12  C6        43.4980   -1.0630    8.3190 C.2   1021  RXV1021     0.0618
     13  N7        44.0120   -0.4440    9.4070 N.2   1021  RXV1021    -0.2685
     14  C8        43.2630    0.1210   10.3990 C.3   1021  RXV1021     0.1610
     15  C13       39.7380   -0.5730    9.1050 C.3   1021  RXV1021     0.0404
     16  C14       39.1940   -0.2340    7.7230 C.3   1021  RXV1021     0.0765
     17  N15       37.7380   -0.4520    7.7060 N.3   1021  RXV1021    -0.2723
     18  C16       37.2300   -1.0780    8.9420 C.3   1021  RXV1021     0.0735
     19  C17       35.7380   -1.3560    8.7630 C.3   1021  RXV1021     0.0348
     20  C18       34.9700   -0.0810    8.4090 C.3   1021  RXV1021     0.0760
     21  C19       35.6070    0.5610    7.1800 C.3   1021  RXV1021     0.0348
     22  C20       37.0780    0.8340    7.4580 C.3   1021  RXV1021     0.0735
     23  N21       33.5580   -0.3470    8.1750 N.3   1021  RXV1021    -0.2133
     24  C22       32.7840    0.4110    7.2010 C.3   1021  RXV1021     0.1295
     25  C23       31.4790    0.8570    7.8360 C.2   1021  RXV1021     0.0545
     26  C24       30.3480    1.1630    7.0680 C.3   1021  RXV1021     0.0778
     27  C25       29.1920    1.5680    7.7330 C.2   1021  RXV1021     0.0438
     28  S26       27.7100    1.9820    7.0160 S.3   1021  RXV1021    -0.0683
     29  C27       27.0000    2.2840    8.6120 C.3   1021  RXV1021     0.2673
     30  O28       28.0020    2.0680    9.6080 O.2   1021  RXV1021    -0.4652
     31  C29       29.1930    1.6610    9.0930 C.2   1021  RXV1021     0.1439
     32  C30       30.3260    1.3580    9.8320 C.3   1021  RXV1021     0.1883
     33  N31       31.4330    0.9670    9.1870 N.2   1021  RXV1021    -0.2690
@<TRIPOS>BOND
     1     9     8    1
     2     8     7    1
     3     7    10    1
     4     7     6    2
     5    10    11    2
     6    28    27    1
     7    28    29    1
     8    26    27    1
     9    26    25    1
    10     6     5    1
    11    21    22    1
    12    21    20    1
    13    24    25    1
    14    24    23    1
    15    11    12    1
    16    22    17    1
    17    17    16    1
    18    17    18    1
    19    16    15    1
    20    27    31    2
    21    25    33    2
    22    23    20    1
    23     5    12    1
    24     5     4    1
    25    12    13    2
    26    20    19    1
    27    29    30    1
    28    19    18    1
    29    31    30    1
    30    31    32    1
    31    15     4    1
    32     4     3    2
    33    33    32    1
    34    13    14    1
    35     3    14    1
    36     3     2    1
    37     2     1    3
