@<TRIPOS>MOLECULE
2xcs_RXV_F_1.pdb
 34 38 0 0 0
SMALL
GASTEIGER

@<TRIPOS>ATOM
      1  N11        5.9710   49.0510   44.5670 N.1   1021  RXV1021    -0.1908
      2  N11        7.2780   48.5680   35.9450 N.3   1021  RXV1021    -0.0814
      3  C10        6.0870   49.5640   43.5200 C.1   1021  RXV1021     0.1017
      4  C9         6.2920   50.2440   42.4510 C.ar  1021  RXV1021     0.0836
      5  C12        6.4330   49.6200   41.2260 C.ar  1021  RXV1021    -0.0081
      6  C32        6.6500   50.4070   40.0980 C.ar  1021  RXV1021     0.0174
      7  C33        6.7960   49.8230   38.8430 C.ar  1021  RXV1021     0.0382
      8  C3         7.0100   50.6260   37.7300 C.ar  1021  RXV1021     0.1406
      9  O2         7.1600   50.0630   36.4900 O.3   1021  RXV1021    -0.4561
     10  C1         7.3220   48.6520   36.3600 C.3   1021  RXV1021     0.3166
     11  C4         7.0820   52.0060   37.8660 C.ar  1021  RXV1021     0.0385
     12  C5         6.9290   52.5930   39.1140 C.ar  1021  RXV1021     0.0222
     13  C6         6.7160   51.7930   40.2310 C.ar  1021  RXV1021     0.0812
     14  N7         6.5700   52.3730   41.4430 N.ar  1021  RXV1021    -0.2432
     15  C8         6.3630   51.6290   42.5340 C.ar  1021  RXV1021     0.1087
     16  C13        6.3600   48.1110   41.1120 C.3   1021  RXV1021     0.0444
     17  C14        7.7550   47.5550   40.8320 C.3   1021  RXV1021     0.0768
     18  N15        7.8260   46.0890   40.9960 N.3   1021  RXV1021    -0.2723
     19  C16        7.0510   45.6470   42.1680 C.3   1021  RXV1021     0.0735
     20  C17        7.1890   44.1340   42.3210 C.3   1021  RXV1021     0.0348
     21  C18        6.6470   43.4390   41.0780 C.3   1021  RXV1021     0.0760
     22  C19        7.4820   43.9180   39.8990 C.3   1021  RXV1021     0.0348
     23  C20        7.3280   45.4310   39.7760 C.3   1021  RXV1021     0.0735
     24  N21        6.6730   41.9930   41.2120 N.3   1021  RXV1021    -0.2133
     25  C22        5.5030   41.3140   41.7410 C.3   1021  RXV1021     0.1295
     26  C23        5.6990   39.8160   41.7240 C.2   1021  RXV1021     0.0545
     27  C24        4.9750   39.0340   40.8260 C.3   1021  RXV1021     0.0778
     28  C25        5.1820   37.6610   40.8410 C.2   1021  RXV1021     0.0438
     29  S26        4.4060   36.5300   39.8380 S.3   1021  RXV1021    -0.0683
     30  C27        5.3220   35.2190   40.6110 C.3   1021  RXV1021     0.2673
     31  O28        6.1790   35.7680   41.6210 O.2   1021  RXV1021    -0.4652
     32  C29        6.0770   37.1230   41.7220 C.2   1021  RXV1021     0.1439
     33  C30        6.7850   37.9240   42.6070 C.3   1021  RXV1021     0.1883
     34  N31        6.5800   39.2490   42.5880 N.2   1021  RXV1021    -0.2690
@<TRIPOS>BOND
     1     2    10    1
     2    10     9    1
     3     9     8    1
     4     8    11   ar
     5     8     7   ar
     6    11    12   ar
     7     7     6   ar
     8    12    13   ar
     9    23    22    1
    10    23    18    1
    11    29    30    1
    12    29    28    1
    13    22    21    1
    14     6    13   ar
    15     6     5   ar
    16    13    14   ar
    17    30    31    1
    18    27    28    1
    19    27    26    1
    20    17    18    1
    21    17    16    1
    22    28    32    2
    23    18    19    1
    24    21    24    1
    25    21    20    1
    26    16     5    1
    27    24    25    1
    28     5     4   ar
    29    14    15   ar
    30    31    32    1
    31    32    33    1
    32    26    25    1
    33    26    34    2
    34    19    20    1
    35     4    15   ar
    36     4     3    1
    37    34    33    1
    38     3     1    3
