@<TRIPOS>MOLECULE
2xct_CPF_G_1.pdb
 24 27 0 0 0
SMALL
GASTEIGER

@<TRIPOS>ATOM
      1  O2         3.4710   40.5350   73.0810 O.co2 1020  CPF1020    -0.2404
      2  C3         2.9970   41.9090   73.0340 C.2   1020  CPF1020     0.3921
      3  O1         2.7240   42.4920   74.0840 O.co2 1020  CPF1020    -0.2404
      4  C2         2.8510   42.5690   71.6880 C.2   1020  CPF1020     0.1331
      5  C1         2.4030   43.8890   71.5720 C.2   1020  CPF1020     0.0752
      6  N1         2.2870   44.4660   70.3630 N.pl3 1020  CPF1020    -0.2874
      7  C10        2.5820   43.7780   69.2480 C.2   1020  CPF1020     0.0523
      8  C9         2.4370   44.4080   68.0220 C.2   1020  CPF1020     0.0311
      9  C8         2.7360   43.7310   66.8560 C.2   1020  CPF1020     0.0731
     10  N2         2.5970   44.4380   65.6610 N.pl3 1020  CPF1020    -0.3030
     11  C17        2.2360   45.8450   65.7660 C.3   1020  CPF1020     0.1096
     12  C16        3.3020   46.5560   64.9430 C.3   1020  CPF1020     0.1101
     13  N3         3.1910   46.1330   63.5680 N.3   1020  CPF1020    -0.2144
     14  C15        2.5000   44.8870   63.3130 C.3   1020  CPF1020     0.1101
     15  C14        2.8590   43.8290   64.3550 C.3   1020  CPF1020     0.1096
     16  C7         3.1880   42.4240   66.9000 C.2   1020  CPF1020     0.1354
     17  F1         3.4910   41.7660   65.7640 F     1020  CPF1020    -0.2072
     18  C6         3.3330   41.7790   68.1220 C.3   1020  CPF1020     0.0886
     19  C5         3.0320   42.4580   69.3010 C.2   1020  CPF1020     0.0374
     20  C4         3.1650   41.8460   70.5460 C.2   1020  CPF1020     0.2009
     21  O3         3.6030   40.5430   70.6600 O.2   1020  CPF1020    -0.2866
     22  C11        1.8090   45.8460   70.2200 C.3   1020  CPF1020     0.0773
     23  C12        1.9450   46.5890   71.5390 C.3   1020  CPF1020     0.0218
     24  C13        2.9770   46.7880   70.4370 C.3   1020  CPF1020     0.0218
@<TRIPOS>BOND
     1    14    13    1
     2    14    15    1
     3    13    12    1
     4    15    10    1
     5    12    11    1
     6    10    11    1
     7    10     9    1
     8    17    16    1
     9     9    16    2
    10     9     8    1
    11    16    18    1
    12     8     7    2
    13    18    19    1
    14     7    19    1
    15     7     6    1
    16    19    20    2
    17    22     6    1
    18    22    24    1
    19    22    23    1
    20     6     5    1
    21    24    23    1
    22    20    21    1
    23    20     4    1
    24     5     4    2
    25     4     2    1
    26     2     1   ar
    27     2     3   ar
