@<TRIPOS>MOLECULE
2xcu_C5P_A_1.pdb
 21 22 0 0 0
SMALL
GASTEIGER

@<TRIPOS>ATOM
      1  O3P       21.4690    9.5240   43.0470 O.3   400  C5P400     -0.1145
      2  P         22.0100    9.1180   41.6950 P.3   400  C5P400      0.5327
      3  O1P       21.1520    9.7660   40.5530 O.2   400  C5P400     -0.2224
      4  O2P       23.4090    9.6230   41.5710 O.3   400  C5P400     -0.1145
      5  O5'       21.9420    7.6420   41.5730 O.3   400  C5P400     -0.2675
      6  C5'       22.3650    6.7660   42.5850 C.3   400  C5P400      0.1859
      7  C4'       21.5080    5.4950   42.5690 C.3   400  C5P400      0.1801
      8  O4'       22.0310    4.5780   43.6100 O.3   400  C5P400     -0.3320
      9  C3'       20.0720    5.7830   43.0030 C.3   400  C5P400      0.2158
     10  O3'       19.2270    4.7790   42.4140 O.3   400  C5P400     -0.2175
     11  C2'       20.0440    5.5920   44.5330 C.3   400  C5P400      0.2319
     12  O2'       18.8260    4.9380   44.9300 O.3   400  C5P400     -0.2157
     13  C1'       21.0870    4.4800   44.7490 C.3   400  C5P400      0.2400
     14  N1        21.7880    4.3670   46.0920 N.am  400  C5P400     -0.1778
     15  C2        21.6450    3.1990   46.8730 C.1   400  C5P400      0.2756
     16  O2        20.9550    2.2570   46.5070 O.2   400  C5P400     -0.1925
     17  N3        22.2980    3.0760   48.0830 N.2   400  C5P400     -0.3024
     18  C4        23.0790    4.1410   48.4900 C.2   400  C5P400      0.2346
     19  N4        23.6360    3.9140   49.6750 N.pl3 400  C5P400     -0.0921
     20  C5        23.2300    5.3300   47.7860 C.2   400  C5P400      0.0687
     21  C6        22.5840    5.4340   46.5590 C.2   400  C5P400      0.0836
@<TRIPOS>BOND
     1     3     2    2
     2     4     2    1
     3     5     2    1
     4     5     6    1
     5     2     1    1
     6    10     9    1
     7     7     6    1
     8     7     9    1
     9     7     8    1
    10     9    11    1
    11     8    13    1
    12    11    13    1
    13    11    12    1
    14    13    14    1
    15    14    21    1
    16    14    15   am
    17    16    15    2
    18    21    20    2
    19    15    17    2
    20    20    18    1
    21    17    18    2
    22    18    19    1
