@<TRIPOS>MOLECULE
2xcv_IMP_A_1.pdb
 23 25 0 0 0
SMALL
GASTEIGER

@<TRIPOS>ATOM
      1  P          6.8110   18.2440   42.9190 P.3   1491  IMP1491     0.5327
      2  O1P        7.8550   18.6330   41.8220 O.2   1491  IMP1491    -0.2224
      3  O2P        5.9030   19.4340   43.1610 O.3   1491  IMP1491    -0.1145
      4  O3P        7.6490   17.8280   44.1020 O.3   1491  IMP1491    -0.1145
      5  O5'        5.7840   17.0210   42.5970 O.3   1491  IMP1491    -0.2675
      6  C5'        5.2200   16.9460   41.3390 C.3   1491  IMP1491     0.1860
      7  C4'        4.8360   15.5430   40.9360 C.3   1491  IMP1491     0.1823
      8  O4'        3.7900   15.0720   41.7500 O.3   1491  IMP1491    -0.3135
      9  C3'        4.3070   15.6010   39.5140 C.3   1491  IMP1491     0.2184
     10  O3'        5.0450   14.6450   38.7790 O.3   1491  IMP1491    -0.2174
     11  C2'        2.8340   15.1950   39.6380 C.3   1491  IMP1491     0.2570
     12  O2'        2.3950   14.2290   38.7050 O.3   1491  IMP1491    -0.2130
     13  C1'        2.7580   14.5090   40.9650 C.3   1491  IMP1491     0.3186
     14  N9         1.4220   14.7140   41.5540 N.pl3 1491  IMP1491    -0.1435
     15  C8         0.9170   15.8630   42.1220 C.3   1491  IMP1491     0.3382
     16  N7        -0.3290   15.6180   42.5760 N.2   1491  IMP1491    -0.2054
     17  C5        -0.6260   14.3090   42.3760 C.2   1491  IMP1491     0.2446
     18  C6        -1.7500   13.5240   42.6630 C.1   1491  IMP1491     0.1792
     19  O6        -2.7490   13.9650   43.2750 O.2   1491  IMP1491    -0.2203
     20  N1        -1.7410   12.1910   42.3060 N.2   1491  IMP1491    -0.1458
     21  C2        -0.6400   11.6340   41.7030 C.3   1491  IMP1491     0.4017
     22  N3         0.4670   12.4070   41.4180 N.2   1491  IMP1491    -0.0334
     23  C4         0.4740   13.7340   41.7410 C.2   1491  IMP1491     0.3528
@<TRIPOS>BOND
     1    12    11    1
     2    10     9    1
     3     9    11    1
     4     9     7    1
     5    11    13    1
     6     7     6    1
     7     7     8    1
     8    13    14    1
     9    13     8    1
    10     6     5    1
    11    22    21    1
    12    22    23    2
    13    14    23    1
    14    14    15    1
    15    21    20    1
    16    23    17    1
    17     2     1    2
    18    15    16    1
    19    20    18    2
    20    17    16    2
    21    17    18    1
    22     5     1    1
    23    18    19    2
    24     1     3    1
    25     1     4    1
