@<TRIPOS>MOLECULE
2xcv_DG2_A_1.pdb
 15 14 0 0 0
SMALL
GASTEIGER

@<TRIPOS>ATOM
      1  C3         0.2720   20.4480   66.5700 C.3   1489  DG21489     0.2583
      2  C4        -0.5470   20.5410   65.2820 C.3   1489  DG21489     0.1954
      3  O2         1.4990   21.1620   66.3900 O.3   1489  DG21489    -0.2584
      4  O5        -0.5080   21.8480   64.6740 O.3   1489  DG21489    -0.2670
      5  O7        -0.4330   22.2320   67.9750 O.co2 1489  DG21489    -0.2428
      6  O8        -1.3200   20.2590   68.3030 O.co2 1489  DG21489    -0.2428
      7  O9         3.0130   19.1670   66.6470 O.3   1489  DG21489    -0.1145
      8  O10        3.8940   21.4830   66.1310 O.2   1489  DG21489    -0.2224
      9  O11        2.8750   21.0000   68.4020 O.3   1489  DG21489    -0.1145
     10  P1         2.9180   20.6440   66.9310 P.3   1489  DG21489     0.5331
     11  C7        -0.5450   21.0200   67.6940 C.2   1489  DG21489     0.3945
     12  P6        -1.3080   22.0790   63.2840 P.3   1489  DG21489     0.5327
     13  O15       -1.1540   20.7310   62.5960 O.3   1489  DG21489    -0.1145
     14  O14       -2.6930   22.3800   63.7900 O.3   1489  DG21489    -0.1145
     15  O13       -0.6380   23.2370   62.5330 O.2   1489  DG21489    -0.2224
@<TRIPOS>BOND
     1    15    12    2
     2    13    12    1
     3    12    14    1
     4    12     4    1
     5     4     2    1
     6     2     1    1
     7     8    10    2
     8     3     1    1
     9     3    10    1
    10     1    11    1
    11     7    10    1
    12    10     9    1
    13    11     5   ar
    14    11     6   ar
