@<TRIPOS>MOLECULE
2xcw_ATP_A_1.pdb
 31 33 0 0 0
SMALL
GASTEIGER

@<TRIPOS>ATOM
      1  PG        -2.7520   23.1720   64.2420 P.3   1489  ATP1489     0.5373
      2  O1G       -3.7370   23.6470   65.3100 O.3   1489  ATP1489    -0.1143
      3  O2G       -2.8700   23.7280   62.8100 O.2   1489  ATP1489    -0.2221
      4  O3G       -1.3130   23.1870   64.7130 O.3   1489  ATP1489    -0.1143
      5  PB        -2.2280   20.4540   63.4080 P.3   1489  ATP1489     0.2277
      6  O1B       -0.9950   20.3740   64.2760 O.3   1489  ATP1489    -0.4368
      7  O2B       -2.0470   20.5730   61.9510 O.2   1489  ATP1489    -0.5168
      8  O3B       -3.2060   21.6220   63.9360 O.3   1489  ATP1489    -0.2258
      9  PA        -4.4520   18.6470   63.4950 P.3   1489  ATP1489     0.2189
     10  O1A       -4.7540   17.6150   64.5970 O.3   1489  ATP1489    -0.4371
     11  O2A       -5.4340   19.7990   63.3340 O.2   1489  ATP1489    -0.5170
     12  O3A       -2.9360   19.0720   63.7590 O.3   1489  ATP1489    -0.2700
     13  O5'       -4.2440   17.8940   62.0710 O.3   1489  ATP1489    -0.3112
     14  C5'       -4.4820   16.5050   61.9420 C.3   1489  ATP1489     0.1813
     15  C4'       -3.5070   15.9120   60.9710 C.3   1489  ATP1489     0.1821
     16  O4'       -3.5220   16.6400   59.7140 O.3   1489  ATP1489    -0.3135
     17  C3'       -2.0850   15.9640   61.4850 C.3   1489  ATP1489     0.2184
     18  O3'       -1.4720   14.7130   61.1850 O.3   1489  ATP1489    -0.2174
     19  C2'       -1.4260   17.0740   60.6760 C.3   1489  ATP1489     0.2570
     20  O2'       -0.0390   16.9100   60.4010 O.3   1489  ATP1489    -0.2130
     21  C1'       -2.1670   16.9590   59.3840 C.3   1489  ATP1489     0.3186
     22  N9        -2.1690   18.2180   58.5920 N.pl3 1489  ATP1489    -0.1439
     23  C8        -2.0470   19.4870   59.0300 C.3   1489  ATP1489     0.3377
     24  N7        -2.1470   20.3390   57.9900 N.2   1489  ATP1489    -0.2095
     25  C5        -2.3600   19.5880   56.8930 C.2   1489  ATP1489     0.2526
     26  C6        -2.5560   19.8620   55.4740 C.2   1489  ATP1489     0.4393
     27  N6        -2.4980   21.1640   55.1140 N.pl3 1489  ATP1489     0.2180
     28  N1        -2.7230   18.8220   54.6270 N.2   1489  ATP1489     0.0021
     29  C2        -2.7390   17.5420   55.0490 C.3   1489  ATP1489     0.5254
     30  N3        -2.5500   17.2160   56.3430 N.2   1489  ATP1489    -0.0055
     31  C4        -2.3780   18.1850   57.2790 C.2   1489  ATP1489     0.3518
@<TRIPOS>BOND
     1    28    29    1
     2    28    26    2
     3    29    30    1
     4    27    26    1
     5    26    25    1
     6    30    31    2
     7    25    31    1
     8    25    24    2
     9    31    22    1
    10    24    23    1
    11    22    23    1
    12    22    21    1
    13    21    16    1
    14    21    19    1
    15    16    15    1
    16    20    19    1
    17    19    17    1
    18    15    17    1
    19    15    14    1
    20    18    17    1
    21    14    13    1
    22     7     5    2
    23    13     9    1
    24     3     1    2
    25    11     9    2
    26     5    12    1
    27     5     8    1
    28     5     6    1
    29     9    12    1
    30     9    10    1
    31     8     1    1
    32     1     4    1
    33     1     2    1
