@<TRIPOS>MOLECULE
2xcw_IMP_A_1.pdb
 23 25 0 0 0
SMALL
GASTEIGER

@<TRIPOS>ATOM
      1  P          6.9980   18.4220   42.7940 P.3   1490  IMP1490     0.5327
      2  O1P        8.0750   18.7930   41.7550 O.2   1490  IMP1490    -0.2224
      3  O2P        7.7640   17.9800   44.0320 O.3   1490  IMP1490    -0.1145
      4  O3P        6.0580   19.5560   43.0120 O.3   1490  IMP1490    -0.1145
      5  O5'        6.1950   17.0900   42.3370 O.3   1490  IMP1490    -0.2675
      6  C5'        5.0910   17.0580   41.5080 C.3   1490  IMP1490     0.1860
      7  C4'        4.8510   15.6350   41.0350 C.3   1490  IMP1490     0.1823
      8  O4'        3.8000   15.1220   41.8380 O.3   1490  IMP1490    -0.3135
      9  C3'        4.4120   15.5450   39.5890 C.3   1490  IMP1490     0.2184
     10  O3'        5.0330   14.4320   38.9840 O.3   1490  IMP1490    -0.2174
     11  C2'        2.9340   15.2240   39.7070 C.3   1490  IMP1490     0.2570
     12  O2'        2.5480   14.3950   38.6610 O.3   1490  IMP1490    -0.2130
     13  C1'        2.8040   14.5410   41.0490 C.3   1490  IMP1490     0.3186
     14  N9         1.4930   14.7610   41.6910 N.pl3 1490  IMP1490    -0.1435
     15  C8         1.0110   15.9190   42.2290 C.3   1490  IMP1490     0.3382
     16  N7        -0.2190   15.7040   42.6790 N.2   1490  IMP1490    -0.2054
     17  C5        -0.4900   14.3920   42.4890 C.2   1490  IMP1490     0.2446
     18  C6        -1.5830   13.5920   42.7570 C.1   1490  IMP1490     0.1792
     19  O6        -2.5690   14.0260   43.3100 O.2   1490  IMP1490    -0.2203
     20  N1        -1.5790   12.2670   42.4010 N.2   1490  IMP1490    -0.1458
     21  C2        -0.4900   11.7440   41.7800 C.3   1490  IMP1490     0.4017
     22  N3         0.5950   12.5130   41.4700 N.2   1490  IMP1490    -0.0334
     23  C4         0.5740   13.8150   41.8500 C.2   1490  IMP1490     0.3528
@<TRIPOS>BOND
     1    12    11    1
     2    10     9    1
     3     9    11    1
     4     9     7    1
     5    11    13    1
     6     7     6    1
     7     7     8    1
     8    13    14    1
     9    13     8    1
    10    22    21    1
    11    22    23    2
    12     6     5    1
    13    14    23    1
    14    14    15    1
    15     2     1    2
    16    21    20    1
    17    23    17    1
    18    15    16    1
    19     5     1    1
    20    20    18    2
    21    17    16    2
    22    17    18    1
    23    18    19    2
    24     1     4    1
    25     1     3    1
