@<TRIPOS>MOLECULE
2xd1_CEF_A_1.pdb
 26 27 0 0 0
SMALL
GASTEIGER

@<TRIPOS>ATOM
      1  S1        36.8660   21.4630   62.6950 S.3   1460  CEF1460    -0.1145
      2  C2        36.2310   22.7000   61.6530 C.3   1460  CEF1460     0.0656
      3  C3        35.1550   22.0880   60.7960 C.3   1460  CEF1460     0.0574
      4  C3'       33.9920   22.9680   60.5820 C.3   1460  CEF1460     0.0074
      5  C4        35.2480   20.8500   60.2560 C.2   1460  CEF1460     0.1345
      6  C4'       34.5450   20.5530   58.9960 C.2   1460  CEF1460     0.4007
      7  O4A       34.8960   21.1720   57.9590 O.co2 1460  CEF1460    -0.2392
      8  O4B       33.6190   19.6850   58.9850 O.co2 1460  CEF1460    -0.2392
      9  N5        35.9800   19.8620   60.8330 N.2   1460  CEF1460    -0.2568
     10  C6        36.3260   19.8630   62.2470 C.3   1460  CEF1460     0.1777
     11  C7        37.4930   18.9440   62.5210 C.3   1460  CEF1460     0.1920
     12  C8        37.3490   17.9030   61.4770 C.2   1460  CEF1460     0.2316
     13  O9        38.0440   17.8310   60.4730 O.2   1460  CEF1460    -0.2863
     14  N10       38.7930   19.6130   62.3940 N.am  1460  CEF1460    -0.1946
     15  C11       39.8020   19.3350   63.2200 C.2   1460  CEF1460     0.2668
     16  O12       39.6890   18.5660   64.1290 O.2   1460  CEF1460    -0.2713
     17  C13       41.1140   19.9470   63.1400 C.3   1460  CEF1460     0.2286
     18  N16       41.1450   21.2580   62.5590 N.4   1460  CEF1460    -0.0687
     19  O17       40.5420   22.4740   63.1290 O.3   1460  CEF1460    -0.2626
     20  C18       40.7790   23.8800   62.6600 C.3   1460  CEF1460     0.2025
     21  C14       42.0170   18.9800   62.5220 C.2   1460  CEF1460     0.1275
     22  C15       41.5230   17.7230   62.2730 C.3   1460  CEF1460     0.1223
     23  S16       42.8620   16.7420   61.6430 S.3   1460  CEF1460    -0.0567
     24  C17       43.9100   18.0470   61.7290 C.2   1460  CEF1460     0.2458
     25  N18       45.1580   17.9270   61.3590 N.pl3 1460  CEF1460    -0.0867
     26  N19       43.3440   19.1420   62.2220 N.2   1460  CEF1460    -0.3836
@<TRIPOS>BOND
     1     7     6   ar
     2     8     6   ar
     3     6     5    1
     4     5     3    1
     5     5     9    2
     6    13    12    2
     7     4     3    1
     8     3     2    1
     9     9    10    1
    10    25    24    1
    11    12    11    1
    12    23    24    1
    13    23    22    1
    14     2     1    1
    15    24    26    2
    16    26    21    2
    17    10    11    1
    18    10     1    1
    19    22    21    1
    20    14    11    1
    21    14    15   am
    22    21    17    1
    23    18    19    1
    24    18    17    1
    25    20    19    1
    26    17    15    1
    27    15    16    2
