@<TRIPOS>MOLECULE
2xd3_GLC_A_1.pdb
 12 12 0 0 0
SMALL
GASTEIGER

@<TRIPOS>ATOM
      1  C1        17.8700  -18.7850   52.4080 C.3   1417  GLC1417     0.3024
      2  C2        19.2190  -18.0900   52.2090 C.3   1417  GLC1417     0.2434
      3  C3        20.1700  -18.9400   51.3780 C.3   1417  GLC1417     0.2199
      4  C4        20.2530  -20.3900   51.8730 C.3   1417  GLC1417     0.2144
      5  C5        18.8550  -20.9830   52.0620 C.3   1417  GLC1417     0.1836
      6  C6        18.9310  -22.3580   52.7250 C.3   1417  GLC1417     0.2142
      7  O1        17.1570  -18.7620   51.1950 O.3   1417  GLC1417    -0.1869
      8  O2        19.0350  -16.8990   51.4960 O.3   1417  GLC1417    -0.2148
      9  O3        21.4430  -18.3190   51.4190 O.3   1417  GLC1417    -0.2174
     10  O4        20.9140  -21.1450   50.8850 O.3   1417  GLC1417    -0.2176
     11  O5        18.0530  -20.1280   52.8550 O.3   1417  GLC1417    -0.3236
     12  O6        17.8120  -23.1180   52.3200 O.3   1417  GLC1417    -0.2176
@<TRIPOS>BOND
     1    10     4    1
     2     7     1    1
     3     3     9    1
     4     3     4    1
     5     3     2    1
     6     8     2    1
     7     4     5    1
     8     5     6    1
     9     5    11    1
    10     2     1    1
    11    12     6    1
    12     1    11    1
