@<TRIPOS>MOLECULE
2xd4_ADP_A_1.pdb
 27 29 0 0 0
SMALL
GASTEIGER

@<TRIPOS>ATOM
      1  PB        12.3090   45.4410   35.4400 P.3   461  ADP461      0.5373
      2  O1B       11.0660   45.0470   36.0600 O.3   461  ADP461     -0.1143
      3  O2B       13.0060   44.3910   34.7820 O.2   461  ADP461     -0.2221
      4  O3B       13.1800   46.1160   36.4350 O.3   461  ADP461     -0.1143
      5  PA        12.3510   46.5380   32.6750 P.3   461  ADP461      0.2231
      6  O1A       12.2280   47.9390   32.3370 O.3   461  ADP461     -0.4370
      7  O2A       13.6310   45.9950   32.2920 O.2   461  ADP461     -0.5169
      8  O3A       12.0190   46.4770   34.2380 O.3   461  ADP461     -0.2261
      9  O5'       11.1900   45.7200   32.0110 O.3   461  ADP461     -0.3111
     10  C5'       11.0210   44.3030   32.0920 C.3   461  ADP461      0.1813
     11  C4'       11.0420   43.6580   30.7460 C.3   461  ADP461      0.1821
     12  O4'        9.9900   44.2150   29.8730 O.3   461  ADP461     -0.3135
     13  C3'       12.2810   43.8740   29.9320 C.3   461  ADP461      0.2184
     14  O3'       13.3630   43.0320   30.2330 O.3   461  ADP461     -0.2174
     15  C2'       11.7900   43.7550   28.4670 C.3   461  ADP461      0.2570
     16  O2'       11.7760   42.4230   28.0500 O.3   461  ADP461     -0.2130
     17  C1'       10.3890   44.4270   28.5470 C.3   461  ADP461      0.3186
     18  N9        10.2560   45.8920   28.2510 N.pl3 461  ADP461     -0.1439
     19  C8        10.3800   46.9670   29.1080 C.3   461  ADP461      0.3377
     20  N7        10.2100   48.1500   28.5640 N.2   461  ADP461     -0.2095
     21  C5         9.9460   47.8990   27.2310 C.2   461  ADP461      0.2526
     22  C6         9.6730   48.6930   26.1000 C.2   461  ADP461      0.4393
     23  N6         9.6070   49.9400   26.0820 N.pl3 461  ADP461      0.2180
     24  N1         9.4440   48.0960   24.8570 N.2   461  ADP461      0.0021
     25  C2         9.4930   46.7410   24.7760 C.3   461  ADP461      0.5254
     26  N3         9.7440   45.9170   25.7910 N.2   461  ADP461     -0.0055
     27  C4         9.9670   46.5340   27.0110 C.2   461  ADP461      0.3518
@<TRIPOS>BOND
     1    25    24    1
     2    25    26    1
     3    24    22    2
     4    26    27    2
     5    23    22    1
     6    22    21    1
     7    27    21    1
     8    27    18    1
     9    21    20    2
    10    16    15    1
    11    18    17    1
    12    18    19    1
    13    15    17    1
    14    15    13    1
    15    17    12    1
    16    20    19    1
    17    12    11    1
    18    13    14    1
    19    13    11    1
    20    11    10    1
    21     9    10    1
    22     9     5    1
    23     7     5    2
    24     6     5    1
    25     5     8    1
    26     8     1    1
    27     3     1    2
    28     1     2    1
    29     1     4    1
