@<TRIPOS>MOLECULE
2xd5_S2D_B_1.pdb
 13 13 0 0 0
SMALL
GASTEIGER

@<TRIPOS>ATOM
      1  O2        12.4690   34.8220   59.8590 O.2   1791  S2D1791    -0.2684
      2  C4        12.4120   33.8140   60.5550 C.2   1791  S2D1791     0.2651
      3  C27       12.7050   32.5030   59.7890 C.ar  1791  S2D1791     0.0551
      4  C32       12.5260   32.4310   58.3710 C.ar  1791  S2D1791     0.0046
      5  C31       12.7850   31.2550   57.6370 C.ar  1791  S2D1791     0.0001
      6  C30       13.2590   30.1160   58.3200 C.ar  1791  S2D1791     0.0000
      7  C29       13.4720   30.1740   59.7100 C.ar  1791  S2D1791     0.0001
      8  C28       13.2000   31.3510   60.4460 C.ar  1791  S2D1791     0.0046
      9  N1        12.2010   33.7990   61.9450 N.am  1791  S2D1791    -0.1954
     10  C2        11.2510   34.3170   63.0100 C.3   1791  S2D1791     0.1600
     11  C3        10.4100   33.3030   63.8780 C.3   1791  S2D1791     0.0319
     12  C1        10.4780   35.5840   62.7130 C.2   1791  S2D1791     0.2287
     13  O1         9.3980   35.6880   62.0380 O.2   1791  S2D1791    -0.2864
@<TRIPOS>BOND
     1     5     6   ar
     2     5     4   ar
     3     6     7   ar
     4     4     3   ar
     5     7     8   ar
     6     3     8   ar
     7     3     2    1
     8     1     2    2
     9     2     9   am
    10     9    10    1
    11    13    12    2
    12    12    10    1
    13    10    11    1
