@<TRIPOS>MOLECULE
2xd6_XD6_A_1.pdb
 25 26 0 0 0
SMALL
GASTEIGER

@<TRIPOS>ATOM
      1  C1       -18.8570    2.3090   -5.9370 C.2   1215  XD61215     0.3441
      2  C2       -18.8500    3.2050   -4.7530 C.ar  1215  XD61215     0.1119
      3  C3       -19.8360    4.3840   -4.7180 C.ar  1215  XD61215     0.2048
      4  C4       -19.8370    5.3300   -3.5590 C.ar  1215  XD61215     0.0851
      5  C5       -18.9020    5.1160   -2.4930 C.ar  1215  XD61215     0.2090
      6  C6       -17.8910    3.9030   -2.5390 C.ar  1215  XD61215     0.0933
      7  C7       -17.8900    2.9860   -3.6450 C.ar  1215  XD61215     0.0083
      8  C8       -16.9000    1.8330   -3.6940 C.3   1215  XD61215     0.0920
      9  C9       -15.4430    2.1980   -3.8190 C.2   1215  XD61215     0.1551
     10  C10      -14.3840    1.1680   -3.4700 C.3   1215  XD61215     0.0649
     11  C11      -13.1140    1.1130   -4.3050 C.3   1215  XD61215     0.0081
     12  C12      -13.2160    0.8620   -5.7960 C.3   1215  XD61215     0.0049
     13  C13      -13.1920    2.0850   -6.7430 C.3   1215  XD61215     0.0243
     14  C14      -14.3520    2.2420   -7.6980 C.2   1215  XD61215    -0.0158
     15  C15      -15.2220    1.1770   -7.8560 C.2   1215  XD61215    -0.0283
     16  C16      -16.5000    1.4090   -8.5470 C.3   1215  XD61215     0.0729
     17  C17      -17.7300    1.3060   -7.7060 C.3   1215  XD61215     0.2134
     18  O1       -17.7390    2.0470   -6.5110 O.3   1215  XD61215    -0.4450
     19  O2       -19.9310    1.7580   -6.2830 O.2   1215  XD61215    -0.2448
     20  O3       -20.7320    4.5080   -5.7720 O.3   1215  XD61215    -0.2862
     21  O4       -18.8300    5.9760   -1.4070 O.3   1215  XD61215    -0.2856
     22 CL1       -16.8490    3.6760   -1.1850 Cl    1215  XD61215    -0.0792
     23  O5       -15.1340    3.3100   -4.2850 O.2   1215  XD61215    -0.2957
     24  C21      -14.7050    3.6060   -8.4050 C.3   1215  XD61215     0.2041
     25  O22      -13.7380    4.5890   -8.5730 O.3   1215  XD61215    -0.2155
@<TRIPOS>BOND
     1    25    24    1
     2    16    15    1
     3    16    17    1
     4    24    14    1
     5    15    14    2
     6    17    18    1
     7    14    13    1
     8    13    12    1
     9    18     1    1
    10    19     1    2
    11     1     2    1
    12    12    11    1
    13    20     3    1
    14     2     3   ar
    15     2     7   ar
    16     3     4   ar
    17    11    10    1
    18    23     9    2
    19     9     8    1
    20     9    10    1
    21     8     7    1
    22     7     6   ar
    23     4     5   ar
    24     6     5   ar
    25     6    22    1
    26     5    21    1
