@<TRIPOS>MOLECULE
2xd9_XD9_A_1.pdb
 18 19 0 0 0
SMALL
GASTEIGER

@<TRIPOS>ATOM
      1  CAA      -26.8140   48.3580   18.9240 C.3   200  XD9200      0.0307
      2  CAG      -25.7720   48.2530   17.7820 C.2   200  XD9200     -0.0253
      3  CAH      -26.0810   48.2810   16.4240 C.2   200  XD9200      0.0019
      4  CAM      -25.1040   48.2110   15.4260 C.ar  200  XD9200      0.0287
      5  CAI      -25.3320   48.2550   14.0870 C.ar  200  XD9200      0.0053
      6  SAK      -23.4050   47.9920   15.6880 S.2   200  XD9200     -0.0890
      7  CAO      -23.0490   48.0310   14.0180 C.ar  200  XD9200      0.0386
      8  CAN      -24.2250   48.1720   13.2780 C.ar  200  XD9200      0.0205
      9  CAR      -24.1500   48.2120   11.7190 C.3   200  XD9200      0.2403
     10  CAL      -25.3120   49.1050   11.2690 C.2   200  XD9200      0.3956
     11  OAC      -25.1320   50.3390   11.0160 O.co2 200  XD9200     -0.2426
     12  OAB      -26.4170   48.5140   11.2210 O.co2 200  XD9200     -0.2426
     13  OAF      -24.3510   46.9460   11.1440 O.3   200  XD9200     -0.2095
     14  CAJ      -22.7790   48.7240   11.2060 C.3   200  XD9200      0.0818
     15  CAP      -21.6130   47.9280   11.8750 C.3   200  XD9200      0.1902
     16  OAD      -20.3620   48.5350   11.5310 O.3   200  XD9200     -0.2199
     17  CAQ      -21.6530   47.9420   13.4340 C.3   200  XD9200      0.2101
     18  OAE      -20.8670   46.9130   14.1780 O.3   200  XD9200     -0.2150
@<TRIPOS>BOND
     1    11    10   ar
     2    13     9    1
     3    14     9    1
     4    14    15    1
     5    12    10   ar
     6    10     9    1
     7    16    15    1
     8     9     8    1
     9    15    17    1
    10     8     7   ar
    11     8     5   ar
    12    17     7    1
    13    17    18    1
    14     7     6   ar
    15     5     4   ar
    16     4     6   ar
    17     4     3    1
    18     3     2    2
    19     2     1    1
