@<TRIPOS>MOLECULE
2xda_JPS_A_1.pdb
 20 22 0 0 0
SMALL
GASTEIGER

@<TRIPOS>ATOM
      1  CAA        1.0330   18.5770   26.5630 C.3   1151  JPS1151     0.0004
      2  CAG        1.1820   17.4800   25.4960 C.3   1151  JPS1151     0.0052
      3  CAH        2.3770   16.5370   25.7270 C.3   1151  JPS1151     0.0329
      4  CAM        2.2390   15.3590   24.7630 C.ar  1151  JPS1151     0.0068
      5  CAI        2.0960   14.0500   25.0410 C.ar  1151  JPS1151     0.0010
      6  SAK        2.2610   15.5580   23.1290 S.2   1151  JPS1151    -0.0933
      7  CAO        2.0760   13.9370   22.7770 C.ar  1151  JPS1151     0.0383
      8  CAN        2.0010   13.2210   23.9740 C.ar  1151  JPS1151     0.0202
      9  CAR        1.8090   11.6790   23.9580 C.3   1151  JPS1151     0.2403
     10  CAL        0.9480   11.2750   25.1550 C.2   1151  JPS1151     0.3956
     11  OAC        1.5710   11.1780   26.2130 O.co2 1151  JPS1151    -0.2426
     12  OAB       -0.2760   11.0620   25.0200 O.co2 1151  JPS1151    -0.2426
     13  OAF        3.0760   10.9940   24.1390 O.3   1151  JPS1151    -0.2095
     14  CAJ        1.2290   11.1970   22.6140 C.3   1151  JPS1151     0.0818
     15  CAP        2.0610   11.8050   21.4570 C.3   1151  JPS1151     0.1902
     16  OAD        1.5430   11.3300   20.2010 O.3   1151  JPS1151    -0.2199
     17  CAQ        1.9390   13.3210   21.4230 C.3   1151  JPS1151     0.2101
     18  OAE        2.8510   13.9730   20.5060 O.3   1151  JPS1151    -0.2150
     19  CA0       -0.3070   19.3200   26.5630 C.3   1151  JPS1151     0.0000
     20  CA1        0.9320   20.0080   26.0390 C.3   1151  JPS1151     0.0000
@<TRIPOS>BOND
     1    16    15    1
     2    18    17    1
     3    17    15    1
     4    17     7    1
     5    15    14    1
     6    14     9    1
     7     7     6   ar
     8     7     8   ar
     9     6     4   ar
    10     9     8    1
    11     9    13    1
    12     9    10    1
    13     8     5   ar
    14     4     5   ar
    15     4     3    1
    16    12    10   ar
    17    10    11   ar
    18     2     3    1
    19     2     1    1
    20    20    19    1
    21    20     1    1
    22    19     1    1
