@<TRIPOS>MOLECULE
2xde_1B0_A_1.pdb
 32 35 0 0 0
SMALL
GASTEIGER

@<TRIPOS>ATOM
      1  O24        1.1970    4.6210   18.6350 O.2   1148  1B01148    -0.2733
      2  C23        0.0920    4.1490   18.4170 C.2   1148  1B01148     0.2425
      3  N4        -0.1120    2.8540   18.1640 N.am  1148  1B01148    -0.1974
      4  C5         0.9840    1.9240   17.9150 C.3   1148  1B01148     0.1759
      5  C13        1.4780    2.0460   16.4950 C.2   1148  1B01148     0.2496
      6  N15        2.8010    2.0990   16.2580 N.am  1148  1B01148    -0.2555
      7  C17        3.7260    1.9350   17.3050 C.ar  1148  1B01148     0.0539
      8  C22        4.1510    0.6480   17.6590 C.ar  1148  1B01148     0.0149
      9  C21        5.0650    0.4890   18.6900 C.ar  1148  1B01148     0.0013
     10  C20        5.5620    1.6070   19.3640 C.ar  1148  1B01148     0.0001
     11  C19        5.1510    2.8890   19.0110 C.ar  1148  1B01148     0.0013
     12  C18        4.2300    3.0580   17.9770 C.ar  1148  1B01148     0.0149
     13  C16        3.3740    2.3470   14.9390 C.3   1148  1B01148     0.1201
     14  O14        0.6690    2.1180   15.5870 O.2   1148  1B01148    -0.2727
     15  C6         0.5610    0.4810   18.2020 C.3   1148  1B01148     0.0574
     16  C7         0.2680    0.3300   19.6780 C.ar  1148  1B01148    -0.0200
     17  C12        1.2810    0.0130   20.5840 C.ar  1148  1B01148    -0.0042
     18  C11        1.0030   -0.1170   21.9410 C.ar  1148  1B01148    -0.0003
     19  C10       -0.2960    0.0810   22.4060 C.ar  1148  1B01148    -0.0000
     20  C9        -1.3050    0.4000   21.5030 C.ar  1148  1B01148    -0.0003
     21  C8        -1.0310    0.5220   20.1430 C.ar  1148  1B01148    -0.0042
     22  C25       -1.1250    5.0430   18.4380 C.3   1148  1B01148     0.0979
     23  C1        -1.0650    5.8400   19.7220 C.3   1148  1B01148     0.0817
     24  C26       -1.0220    5.2950   21.1000 C.2   1148  1B01148     0.0099
     25  C31       -1.0310    3.9810   21.5670 C.2   1148  1B01148    -0.0228
     26  C30       -0.9850    3.7570   22.9430 C.3   1148  1B01148     0.0518
     27  C29       -0.9290    4.8410   23.8240 C.2   1148  1B01148    -0.0188
     28  C28       -0.9210    6.1490   23.3350 C.2   1148  1B01148     0.0275
     29  C27       -0.9620    6.3790   21.9600 C.2   1148  1B01148     0.1264
     30  N3        -0.9650    7.5120   21.2070 N.2   1148  1B01148    -0.4105
     31  C2        -1.0230    7.2260   19.8770 C.2   1148  1B01148     0.0913
     32  C32       -1.0390    8.2540   18.7750 C.3   1148  1B01148     0.0618
@<TRIPOS>BOND
     1    13     6    1
     2    14     5    2
     3     6     5   am
     4     6     7    1
     5     5     4    1
     6     7     8   ar
     7     7    12   ar
     8     8     9   ar
     9     4     3    1
    10     4    15    1
    11    12    11   ar
    12     3     2   am
    13    15    16    1
    14     2    22    1
    15     2     1    2
    16    22    23    1
    17     9    10   ar
    18    32    31    1
    19    11    10   ar
    20    16    21   ar
    21    16    17   ar
    22    23    31    1
    23    23    24    1
    24    31    30    2
    25    21    20   ar
    26    17    18   ar
    27    24    25    2
    28    24    29    1
    29    30    29    2
    30    20    19   ar
    31    25    26    1
    32    18    19   ar
    33    29    28    1
    34    26    27    1
    35    28    27    2
