@<TRIPOS>MOLECULE
2xdk_XDK_A_1.pdb
 13 14 0 0 0
SMALL
GASTEIGER

@<TRIPOS>ATOM
      1  C7A        6.2120    4.1810    9.3060 C.ar  1226  XDK1226     0.0208
      2  C3A        5.8060    4.2540    7.9860 C.ar  1226  XDK1226     0.0989
      3  N2A        5.8580    3.2030    7.1600 N.ar  1226  XDK1226    -0.2422
      4  C1A        6.3050    2.0380    7.6540 C.ar  1226  XDK1226     0.1014
      5  C5A        6.7250    1.8730    8.9730 C.ar  1226  XDK1226     0.0497
      6  C4         7.2110    0.5550    9.4690 C.2   1226  XDK1226     0.1472
      7  N3         6.7280    0.1430   10.6520 N.2   1226  XDK1226    -0.3351
      8  C5         8.1040   -0.2210    8.7530 C.2   1226  XDK1226     0.0546
      9  C6         8.4900   -1.4350    9.2720 C.2   1226  XDK1226     0.1145
     10  N1         8.0230   -1.8670   10.4440 N.2   1226  XDK1226    -0.1673
     11  C2         7.1480   -1.0650   11.0960 C.1   1226  XDK1226     0.1864
     12  N7         6.6440   -1.5080   12.2960 N.pl3 1226  XDK1226    -0.0345
     13  C9         6.6690    2.9810    9.8090 C.ar  1226  XDK1226     0.0057
@<TRIPOS>BOND
     1     3     4   ar
     2     3     2   ar
     3     4     5   ar
     4     2     1   ar
     5     8     9    2
     6     8     6    1
     7     5     6    1
     8     5    13   ar
     9     9    10    1
    10     1    13   ar
    11     6     7    2
    12    10    11    2
    13     7    11    2
    14    11    12    1
