@<TRIPOS>MOLECULE
2xdl_2DL_A_1.pdb
 16 16 0 0 0
SMALL
GASTEIGER

@<TRIPOS>ATOM
      1  C1        64.9910   33.1470   27.7090 C.ar  1225  2DL1225     0.2293
      2  C2        66.0820   33.4500   26.8880 C.ar  1225  2DL1225     0.1775
      3  C3        65.8810   34.1640   25.7290 C.ar  1225  2DL1225     0.0447
      4  C4        64.6130   34.5720   25.3420 C.ar  1225  2DL1225     0.0568
      5  C5        63.5170   34.2650   26.1560 C.ar  1225  2DL1225     0.0080
      6  C6        63.7040   33.5570   27.3290 C.ar  1225  2DL1225     0.0454
      7  O7        65.1940   32.4660   28.8720 O.3   1225  2DL1225    -0.2833
      8  C9        65.1120   38.5490   25.2530 C.3   1225  2DL1225     0.0233
      9  C10       65.7340   37.1830   25.0660 C.3   1225  2DL1225     0.0938
     10  C12       65.2710   37.1500   22.6150 C.3   1225  2DL1225     0.0938
     11  C13       66.7140   37.4160   22.2250 C.3   1225  2DL1225     0.0233
     12  C14       64.4420   35.3230   24.0650 C.2   1225  2DL1225     0.2491
     13  O15       63.7100   34.8850   23.2070 O.2   1225  2DL1225    -0.2699
     14  O16       67.3140   33.0280   27.3160 O.3   1225  2DL1225    -0.4682
     15  N3        65.1750   36.4640   23.9030 N.am  1225  2DL1225    -0.2761
     16  C15       68.4560   33.8620   26.9850 C.3   1225  2DL1225     0.2526
@<TRIPOS>BOND
     1    11    10    1
     2    10    15    1
     3    13    12    2
     4    15    12   am
     5    15     9    1
     6    12     4    1
     7     9     8    1
     8     4     3   ar
     9     4     5   ar
    10     3     2   ar
    11     5     6   ar
    12     2    14    1
    13     2     1   ar
    14    16    14    1
    15     6     1   ar
    16     1     7    1
