@<TRIPOS>MOLECULE
2xdm_BO8_B_1.pdb
 17 16 0 0 0
SMALL
GASTEIGER

@<TRIPOS>ATOM
      1  O1        63.8440   20.0370   34.5000 O.2   500  BO8500      0.0000
      2  C1        63.5790   20.1770   33.3060 C.2   500  BO8500      0.0000
      3  N         62.5850   20.9420   32.8580 N.am  500  BO8500      0.0000
      4  CA        61.8080   21.5930   33.7270 C.3   500  BO8500      0.0000
      5  B         61.7630   23.0560   33.4660 B     500  BO8500      0.0000
      6  OB1       61.4530   23.3040   31.9900 O.3   500  BO8500      0.0000
      7  OB2       63.0980   23.7490   33.7820 O.3   500  BO8500      0.0000
      8  CB        60.4230   20.9350   33.7040 C.3   500  BO8500      0.0000
      9  CA1       64.3860   19.4540   32.2510 C.3   500  BO8500      0.0000
     10  CB1       63.4880   18.3390   31.7210 C.3   500  BO8500      0.0000
     11  CG1       64.2720   17.2760   30.9570 C.3   500  BO8500      0.0000
     12  CD1       63.3480   16.0990   30.6480 C.3   500  BO8500      0.0000
     13  CE1       63.7840   15.2540   29.4570 C.3   500  BO8500      0.0000
     14  NZ1       62.7830   14.2250   29.3150 N.3   500  BO8500      0.0000
     15  CZ1       63.8290   16.0420   28.1750 C.2   500  BO8500      0.0000
     16  O         64.9400   16.3830   27.7220 O.co2 500  BO8500      0.0000
     17  OH1       62.7610   16.3240   27.5870 O.co2 500  BO8500      0.0000
@<TRIPOS>BOND
     1    17    15   ar
     2    16    15   ar
     3    15    13    1
     4    14    13    1
     5    13    12    1
     6    12    11    1
     7    11    10    1
     8    10     9    1
     9     6     5    1
    10     9     2    1
    11     3     2   am
    12     3     4    1
    13     2     1    2
    14     5     4    1
    15     5     7    1
    16     8     4    1
