@<TRIPOS>MOLECULE
2xdr_NDP_A_1.pdb
 27 29 0 0 0
SMALL
GASTEIGER

@<TRIPOS>ATOM
      1  PA        51.5600  -49.9600   75.4170 P.3   5502  NDP5502     0.5327
      2  O1A       50.3790  -50.3680   74.3520 O.2   5502  NDP5502    -0.2224
      3  O2A       50.9560  -49.8840   76.9150 O.3   5502  NDP5502    -0.1145
      4  O5B       52.1420  -48.4750   75.0380 O.3   5502  NDP5502    -0.2675
      5  C5B       52.8500  -48.1910   73.8630 C.3   5502  NDP5502     0.1860
      6  C4B       52.7620  -46.7130   73.4980 C.3   5502  NDP5502     0.1822
      7  O4B       51.3710  -46.1330   73.5190 O.3   5502  NDP5502    -0.3136
      8  C3B       53.5520  -45.6640   74.4500 C.3   5502  NDP5502     0.2157
      9  O3B       54.3670  -44.6230   73.8840 O.3   5502  NDP5502    -0.2175
     10  C2B       52.4350  -45.3040   75.4260 C.3   5502  NDP5502     0.2314
     11  O2B       52.6450  -44.3970   76.5020 O.3   5502  NDP5502    -0.2630
     12  C1B       51.3240  -45.0820   74.4850 C.3   5502  NDP5502     0.3158
     13  N9A       50.0460  -45.1020   75.2320 N.pl3 5502  NDP5502    -0.1439
     14  C8A       49.7240  -45.8960   76.2710 C.3   5502  NDP5502     0.3377
     15  N7A       48.3770  -45.5650   76.6830 N.2   5502  NDP5502    -0.2095
     16  C5A       47.9190  -44.5630   75.8580 C.2   5502  NDP5502     0.2526
     17  C6A       46.6950  -43.8790   75.8090 C.2   5502  NDP5502     0.4393
     18  N6A       45.6270  -44.2130   76.7590 N.pl3 5502  NDP5502     0.2180
     19  N1A       46.5020  -42.8970   74.8650 N.2   5502  NDP5502     0.0021
     20  C2A       47.4830  -42.5860   73.9710 C.3   5502  NDP5502     0.5254
     21  N3A       48.7320  -43.2800   74.0180 N.2   5502  NDP5502    -0.0055
     22  C4A       48.9230  -44.2480   74.9550 C.2   5502  NDP5502     0.3518
     23  O3        52.6090  -50.9670   75.3770 O.3   5502  NDP5502    -0.1145
     24  P2B       53.5860  -44.8960   77.7750 P.3   5502  NDP5502     0.5328
     25  O1X       55.0660  -44.2260   77.6050 O.2   5502  NDP5502    -0.2224
     26  O2X       52.8950  -44.4190   79.2170 O.3   5502  NDP5502    -0.1145
     27  O3X       53.7070  -46.3370   77.7520 O.3   5502  NDP5502    -0.1145
@<TRIPOS>BOND
     1     6     7    1
     2     6     5    1
     3     6     8    1
     4     7    12    1
     5     5     4    1
     6     9     8    1
     7    20    21    1
     8    20    19    1
     9    21    22    2
    10     2     1    2
    11     8    10    1
    12    12    13    1
    13    12    10    1
    14    19    17    2
    15    22    13    1
    16    22    16    1
    17     4     1    1
    18    13    14    1
    19    23     1    1
    20     1     3    1
    21    10    11    1
    22    17    16    1
    23    17    18    1
    24    16    15    2
    25    14    15    1
    26    11    24    1
    27    25    24    2
    28    27    24    1
    29    24    26    1
