@<TRIPOS>MOLECULE
2xds_MT0_A_1.pdb
 12 13 0 0 0
SMALL
GASTEIGER

@<TRIPOS>ATOM
      1  C1         6.3920   11.2960   23.3700 C.3   1225  MT01225     0.0540
      2  C2         5.1760   12.1250   23.6770 C.ar  1225  MT01225     0.0810
      3  N3         4.0010   11.6360   23.2310 N.ar  1225  MT01225    -0.1516
      4  N4         2.8560   12.3210   23.4290 N.ar  1225  MT01225    -0.1367
      5  C5         2.8850   13.4870   24.0900 C.ar  1225  MT01225     0.1598
      6 CL6         1.3640   14.2950   24.2760 Cl    1225  MT01225    -0.0594
      7  C7         4.0580   14.0610   24.5720 C.ar  1225  MT01225     0.0314
      8  C8         4.0880   15.2850   25.2460 C.ar  1225  MT01225     0.0025
      9  C9         5.2790   15.7940   25.7230 C.ar  1225  MT01225     0.0001
     10  C10        6.4550   15.1130   25.5100 C.ar  1225  MT01225     0.0000
     11  C11        6.4440   13.9050   24.8390 C.ar  1225  MT01225     0.0013
     12  C12        5.2460   13.3720   24.3510 C.ar  1225  MT01225     0.0177
@<TRIPOS>BOND
     1     3     4   ar
     2     3     2   ar
     3     1     2    1
     4     4     5   ar
     5     2    12   ar
     6     5     6    1
     7     5     7   ar
     8    12     7   ar
     9    12    11   ar
    10     7     8   ar
    11    11    10   ar
    12     8     9   ar
    13    10     9   ar
