@<TRIPOS>MOLECULE
2xdu_MT0_A_1.pdb
 12 13 0 0 0
SMALL
GASTEIGER

@<TRIPOS>ATOM
      1  C1         7.3960   11.0660   23.4140 C.3   1228  MT01228     0.0540
      2  C2         6.1240   11.8290   23.6770 C.ar  1228  MT01228     0.0810
      3  N3         4.9840   11.2900   23.1850 N.ar  1228  MT01228    -0.1516
      4  N4         3.7950   11.8970   23.3600 N.ar  1228  MT01228    -0.1367
      5  C5         3.7430   13.0610   24.0540 C.ar  1228  MT01228     0.1598
      6 CL6         2.1800   13.7890   24.2420 Cl    1228  MT01228    -0.0594
      7  C7         4.8690   13.6720   24.5930 C.ar  1228  MT01228     0.0314
      8  C8         4.8110   14.8720   25.3100 C.ar  1228  MT01228     0.0025
      9  C9         5.9490   15.4280   25.8260 C.ar  1228  MT01228     0.0001
     10  C10        7.1620   14.8120   25.6420 C.ar  1228  MT01228     0.0000
     11  C11        7.2450   13.6260   24.9410 C.ar  1228  MT01228     0.0013
     12  C12        6.1000   13.0430   24.4060 C.ar  1228  MT01228     0.0177
@<TRIPOS>BOND
     1     3     4   ar
     2     3     2   ar
     3     4     5   ar
     4     1     2    1
     5     2    12   ar
     6     5     6    1
     7     5     7   ar
     8    12     7   ar
     9    12    11   ar
    10     7     8   ar
    11    11    10   ar
    12     8     9   ar
    13    10     9   ar
