@<TRIPOS>MOLECULE
2xdw_III_P_1.pdb
 25 27 0 0 0
SMALL
GASTEIGER

@<TRIPOS>ATOM
      1  C1        41.8040   37.5250   85.2350 C.2   791  PHQ791      0.4055
      2  O1        42.3650   37.2600   84.1690 O.2   791  PHQ791     -0.2262
      3  O2        42.5510   38.0930   86.3090 O.3   791  PHQ791     -0.4295
      4  C2        43.9710   38.2880   86.1530 C.3   791  PHQ791      0.2367
      5  C3        44.6350   37.1820   86.9300 C.ar  791  PHQ791      0.0213
      6  C4        45.1100   37.4500   88.2230 C.ar  791  PHQ791     -0.0007
      7  C5        45.7190   36.4260   88.9420 C.ar  791  PHQ791     -0.0002
      8  C6        45.8460   35.1560   88.3670 C.ar  791  PHQ791     -0.0000
      9  C7        45.4000   34.8960   87.0770 C.ar  791  PHQ791     -0.0002
     10  C8        44.7800   35.9200   86.3600 C.ar  791  PHQ791     -0.0007
     11  N         40.4980   37.3490   85.4990 N.am  792  PRO792     -0.2392
     12  CA        39.5960   36.8000   84.5140 C.3   792  PRO792      0.1550
     13  C         39.2830   37.8560   83.4850 C.2   792  PRO792      0.2439
     14  O         39.6890   39.0340   83.6500 O.2   792  PRO792     -0.2731
     15  CB        38.3480   36.5200   85.3550 C.3   792  PRO792      0.0311
     16  CG        38.4110   37.5160   86.4960 C.3   792  PRO792      0.0238
     17  CD        39.8920   37.6880   86.7900 C.3   792  PRO792      0.0972
     18  C         36.7440   39.0120   81.7070 C.3   793  YCP793      0.2017
     19  N         38.5630   37.5020   82.4160 N.am  793  YCP793     -0.2772
     20  O         35.8670   37.8970   81.9070 O.3   793  YCP793     -0.2186
     21  CA        38.1990   38.5680   81.4270 C.3   793  YCP793      0.1083
     22  CB        38.3260   38.0370   79.9700 C.3   793  YCP793      0.0226
     23  CD        38.2230   35.6820   80.7310 C.3   793  YCP793      0.0216
     24  CE        38.0240   36.1230   82.1780 C.3   793  YCP793      0.0935
     25  CG        37.6530   36.6850   79.7300 C.3   793  YCP793      0.0035
@<TRIPOS>BOND
     1    25    22    1
     2    25    23    1
     3    22    21    1
     4    23    24    1
     5    21    18    1
     6    21    19    1
     7    18    20    1
     8    24    19    1
     9    19    13   am
    10    13    14    2
    11    13    12    1
    12     2     1    2
    13    12    15    1
    14    12    11    1
    15     1    11   am
    16     1     3    1
    17    15    16    1
    18    11    17    1
    19     4     3    1
    20     4     5    1
    21    10     5   ar
    22    10     9   ar
    23    16    17    1
    24     5     6   ar
    25     9     8   ar
    26     6     7   ar
    27     8     7   ar
