@<TRIPOS>MOLECULE
2xdx_WOE_A_1.pdb
 16 17 0 0 0
SMALL
GASTEIGER

@<TRIPOS>ATOM
      1  C1         7.8430    1.1960   11.3880 C.3   1224  WOE1224     0.2525
      2  O2         7.1520    0.0690   10.8440 O.3   1224  WOE1224    -0.4714
      3  C3         6.6110    0.1980    9.5910 C.ar  1224  WOE1224     0.1408
      4  C4         6.0840    1.3720    9.0780 C.ar  1224  WOE1224     0.0370
      5  C5         5.5590    1.3950    7.8060 C.ar  1224  WOE1224     0.0031
      6  C6         5.5890    0.2530    7.0220 C.ar  1224  WOE1224     0.0003
      7  C7         6.1200   -0.9240    7.5200 C.ar  1224  WOE1224     0.0053
      8  C8         6.6510   -0.9650    8.8020 C.ar  1224  WOE1224     0.0608
      9  C9         7.2110   -2.2400    9.3090 C.2   1224  WOE1224     0.1336
     10  C10        8.1140   -2.9860    8.5920 C.3   1224  WOE1224     0.1320
     11  C11        8.5540   -4.1750    9.1470 C.2   1224  WOE1224     0.1866
     12 CL1         9.6710   -5.1730    8.2680 Cl    1224  WOE1224    -0.0511
     13  N13        8.1690   -4.6230   10.3490 N.2   1224  WOE1224    -0.3182
     14  C14        7.2720   -3.8210   11.0000 C.1   1224  WOE1224     0.2417
     15  N15        6.8410   -4.2230   12.2520 N.pl3 1224  WOE1224    -0.0232
     16  N16        6.7980   -2.6350   10.5260 N.2   1224  WOE1224    -0.3297
@<TRIPOS>BOND
     1     6     7   ar
     2     6     5   ar
     3     7     8   ar
     4     5     4   ar
     5    12    11    1
     6    10    11    1
     7    10     9    1
     8     8     9    1
     9     8     3   ar
    10     4     3   ar
    11    11    13    2
    12     9    16    2
    13     3     2    1
    14    13    14    2
    15    16    14    2
    16     2     1    1
    17    14    15    1
