@<TRIPOS>MOLECULE
2xe4_III_B_1.pdb
 43 43 0 0 0
SMALL
GASTEIGER

@<TRIPOS>ATOM
      1  C1        -5.0930   26.4850   70.6370 C.2     1  FC01        0.3401
      2  O1        -4.1030   26.8640   71.3010 O.2     1  FC01       -0.2492
      3  N         -5.0430   26.5660   69.2790 N.am    1  FC01       -0.1770
      4  CA        -3.8270   27.0900   68.5840 C.3     1  FC01        0.2037
      5  C         -3.7760   28.6370   68.8900 C.2     1  FC01        0.3846
      6  O         -3.5640   29.0220   70.0930 O.co2   1  FC01       -0.2437
      7  CB        -3.7720   26.7790   67.0450 C.3     1  FC01        0.0597
      8  CG        -3.9970   25.2840   66.6640 C.ar    1  FC01       -0.0199
      9  CD1       -3.5310   24.2540   67.4760 C.ar    1  FC01       -0.0042
     10  CD2       -4.6640   24.9470   65.4650 C.ar    1  FC01       -0.0042
     11  CE1       -3.7450   22.9060   67.1500 C.ar    1  FC01       -0.0003
     12  CE2       -4.8680   23.5960   65.1230 C.ar    1  FC01       -0.0003
     13  CZ        -4.4130   22.5740   65.9770 C.ar    1  FC01       -0.0000
     14  OXT       -4.0210   29.3910   67.9320 O.co2   1  FC01       -0.2437
     15  N         -6.2240   25.9640   71.2350 N.am    2  ARG2       -0.1796
     16  CA        -6.4750   25.8520   72.7050 C.3     2  ARG2        0.1745
     17  C         -5.7520   24.5030   73.1310 C.2     2  ARG2        0.2617
     18  O         -6.3630   23.4780   73.5020 O.2     2  ARG2       -0.2715
     19  CB        -7.9670   25.6240   72.9410 C.3     2  ARG2        0.0349
     20  CG        -8.7800   26.8910   72.7380 C.3     2  ARG2        0.0492
     21  CD       -10.3340   26.5640   72.8860 C.3     2  ARG2        0.2205
     22  NE       -10.8520   25.9250   74.2530 N.pl3   2  ARG2       -0.0865
     23  CZ       -11.1950   24.7790   75.0580 C.cat   2  ARG2        0.5346
     24  NH1      -11.6200   23.3510   74.7900 N.pl3   2  ARG2        0.1354
     25  NH2      -11.3460   25.3200   76.3390 N.pl3   2  ARG2        0.1354
     26  N         -4.4400   24.4790   73.0300 N.am    3  VAL3       -0.1963
     27  CA        -3.6670   23.2590   73.2650 C.3     3  VAL3        0.1727
     28  C         -2.8530   23.4040   74.5240 C.2     3  VAL3        0.2612
     29  O         -2.5020   24.4950   74.9430 O.2     3  VAL3       -0.2715
     30  CB        -2.7600   22.9390   71.9890 C.3     3  VAL3        0.0290
     31  CG1       -3.7730   22.5520   70.7830 C.3     3  VAL3        0.0023
     32  CG2       -1.7700   24.1130   71.6820 C.3     3  VAL3        0.0023
     33  N         -2.4120   22.2230   74.9770 N.am    4  RGL4       -0.2031
     34  CA        -1.4650   22.1680   76.1230 C.3     4  RGL4        0.1283
     35  C         -0.0800   22.3510   75.4320 C.3     4  RGL4        0.2036
     36  O          0.2710   21.2790   74.5170 O.3     4  RGL4       -0.2185
     37  CB        -1.4950   20.8250   76.8900 C.3     4  RGL4        0.0281
     38  CG        -2.9840   20.7780   77.5020 C.3     4  RGL4        0.0488
     39  CD        -3.0690   19.4630   78.3310 C.3     4  RGL4        0.2205
     40  NE        -4.4500   19.0820   78.5430 N.pl3   4  RGL4       -0.0865
     41  CZ        -5.2000   19.2860   79.6930 C.cat   4  RGL4        0.5346
     42  NH1       -4.7650   20.1190   80.6800 N.pl3   4  RGL4        0.1354
     43  NH2       -6.3570   18.5760   79.6780 N.pl3   4  RGL4        0.1354
@<TRIPOS>BOND
     1    12    10   ar
     2    12    13   ar
     3    10     8   ar
     4    13    11   ar
     5     8     7    1
     6     8     9   ar
     7     7     4    1
     8    11     9   ar
     9    14     5   ar
    10     4     5    1
    11     4     3    1
    12     5     6   ar
    13     3     1   am
    14     1    15   am
    15     1     2    2
    16    31    30    1
    17    15    16    1
    18    32    30    1
    19    30    27    1
    20    16    19    1
    21    16    17    1
    22    20    21    1
    23    20    19    1
    24    21    22    1
    25    26    17   am
    26    26    27    1
    27    17    18    2
    28    27    28    1
    29    22    23    2
    30    36    35    1
    31    28    29    2
    32    28    33   am
    33    24    23    1
    34    33    34    1
    35    23    25    1
    36    35    34    1
    37    34    37    1
    38    37    38    1
    39    38    39    1
    40    39    40    1
    41    40    41    2
    42    43    41    1
    43    41    42    1
