@<TRIPOS>MOLECULE
2xe5_C8E_A_1.pdb
 21 20 0 0 0
SMALL
GASTEIGER

@<TRIPOS>ATOM
      1  C1       -42.3950    7.1800   -4.2620 C.3   1344  C8E1344     0.0000
      2  C2       -42.6050    5.9850   -3.3230 C.3   1344  C8E1344     0.0000
      3  C3       -42.3700    6.2700   -1.8330 C.3   1344  C8E1344     0.0000
      4  C4       -42.6810    5.0350   -0.9960 C.3   1344  C8E1344     0.0000
      5  C5       -42.8160    5.2900    0.4970 C.3   1344  C8E1344     0.0001
      6  C6       -42.8380    3.9380    1.2110 C.3   1344  C8E1344     0.0026
      7  C7       -42.6200    3.9990    2.7190 C.3   1344  C8E1344     0.0321
      8  C8       -42.1220    2.6440    3.2110 C.3   1344  C8E1344     0.1423
      9  O9       -41.7050    2.6650    4.5740 O.3   1344  C8E1344    -0.3511
     10  C10      -42.4650    1.8270    5.4210 C.3   1344  C8E1344     0.1741
     11  C11      -41.5880    0.8600    6.2120 C.3   1344  C8E1344     0.1742
     12  O12      -42.3120    0.2970    7.3020 O.3   1344  C8E1344    -0.3484
     13  C13      -43.4020   -0.5800    6.9780 C.3   1344  C8E1344     0.1742
     14  C14      -43.0040   -1.9280    6.3560 C.3   1344  C8E1344     0.1742
     15  O15      -43.6640   -2.1490    5.1130 O.3   1344  C8E1344    -0.3484
     16  C16      -42.8570   -2.3630    3.9600 C.3   1344  C8E1344     0.1742
     17  C17      -43.4410   -1.5580    2.8000 C.3   1344  C8E1344     0.1742
     18  O18      -42.6940   -1.5990    1.5850 O.3   1344  C8E1344    -0.3483
     19  C19      -42.3920   -0.3100    1.0400 C.3   1344  C8E1344     0.1777
     20  C20      -42.6230   -0.2420   -0.4730 C.3   1344  C8E1344     0.2140
     21  O21      -42.0730    0.9430   -1.0290 O.3   1344  C8E1344    -0.2176
@<TRIPOS>BOND
     1     1     2    1
     2     2     3    1
     3     3     4    1
     4    21    20    1
     5     4     5    1
     6    20    19    1
     7     5     6    1
     8    19    18    1
     9     6     7    1
    10    18    17    1
    11     7     8    1
    12    17    16    1
    13     8     9    1
    14    16    15    1
    15     9    10    1
    16    15    14    1
    17    10    11    1
    18    11    12    1
    19    14    13    1
    20    13    12    1
