@<TRIPOS>MOLECULE
2xe6_3PG_A_1.pdb
 11 10 0 0 0
SMALL
GASTEIGER

@<TRIPOS>ATOM
      1  C1         2.9430   23.3200   25.8570 C.2   1417  3PG1417     0.3972
      2  O1         2.1080   22.9440   26.7190 O.co2 1417  3PG1417    -0.2427
      3  O2         2.6610   23.6570   24.6570 O.co2 1417  3PG1417    -0.2427
      4  C2         4.3960   23.3110   26.2060 C.3   1417  3PG1417     0.2838
      5  O3         4.6670   22.8990   27.5850 O.3   1417  3PG1417    -0.2081
      6  C3         4.9850   24.6990   26.0140 C.3   1417  3PG1417     0.1983
      7  O1P        4.3920   25.6330   26.8120 O.3   1417  3PG1417    -0.2669
      8  P          4.3490   27.2270   26.4110 P.3   1417  3PG1417     0.5327
      9  O2P        3.9580   27.9030   27.7020 O.3   1417  3PG1417    -0.1145
     10  O3P        5.7870   27.5180   25.9890 O.3   1417  3PG1417    -0.1145
     11  O4P        3.3700   27.4070   25.2970 O.2   1417  3PG1417    -0.2224
@<TRIPOS>BOND
     1     3     1   ar
     2    11     8    2
     3     1     4    1
     4     1     2   ar
     5    10     8    1
     6     6     4    1
     7     6     7    1
     8     4     5    1
     9     8     7    1
    10     8     9    1
