@<TRIPOS>MOLECULE
2xe7_3PG_A_1.pdb
 11 10 0 0 0
SMALL
GASTEIGER

@<TRIPOS>ATOM
      1  C1         3.3430  -23.1820  -25.9480 C.2   1417  3PG1417     0.3972
      2  O1         2.4690  -22.8820  -26.8030 O.co2 1417  3PG1417    -0.2427
      3  O2         3.0760  -23.4410  -24.7450 O.co2 1417  3PG1417    -0.2427
      4  C2         4.7760  -23.2420  -26.3840 C.3   1417  3PG1417     0.2838
      5  O3         4.9270  -22.9100  -27.7850 O.3   1417  3PG1417    -0.2081
      6  C3         5.2910  -24.6400  -26.0630 C.3   1417  3PG1417     0.1983
      7  O1P        4.5880  -25.6320  -26.7900 O.3   1417  3PG1417    -0.2669
      8  P          4.6150  -27.2160  -26.3430 P.3   1417  3PG1417     0.5327
      9  O2P        4.1330  -27.8720  -27.6090 O.2   1417  3PG1417    -0.2224
     10  O3P        6.0650  -27.5270  -26.0370 O.3   1417  3PG1417    -0.1145
     11  O4P        3.6980  -27.2810  -25.2040 O.3   1417  3PG1417    -0.1145
@<TRIPOS>BOND
     1     5     4    1
     2     9     8    2
     3     2     1   ar
     4     7     8    1
     5     7     6    1
     6     4     6    1
     7     4     1    1
     8     8    10    1
     9     8    11    1
    10     1     3   ar
