@<TRIPOS>MOLECULE
2xe7_ADP_A_1.pdb
 27 29 0 0 0
SMALL
GASTEIGER

@<TRIPOS>ATOM
      1  PB        -6.0230  -21.3840  -19.8000 P.3   1418  ADP1418     0.5373
      2  O1B       -6.5400  -19.9620  -19.8500 O.3   1418  ADP1418    -0.1143
      3  O2B       -4.9620  -21.5820  -18.7510 O.3   1418  ADP1418    -0.1143
      4  O3B       -5.5610  -21.9860  -21.1390 O.2   1418  ADP1418    -0.2221
      5  PA        -7.3920  -23.8490  -19.3260 P.3   1418  ADP1418     0.2231
      6  O1A       -6.4640  -24.3220  -20.4720 O.2   1418  ADP1418    -0.5169
      7  O2A       -7.1560  -24.3010  -17.9120 O.3   1418  ADP1418    -0.4370
      8  O3A       -7.3380  -22.2280  -19.3140 O.3   1418  ADP1418    -0.2261
      9  O5'       -8.9330  -24.2530  -19.6620 O.3   1418  ADP1418    -0.3111
     10  C5'       -9.8560  -23.4310  -20.3850 C.3   1418  ADP1418     0.1813
     11  C4'      -11.0190  -24.3330  -20.8530 C.3   1418  ADP1418     0.1821
     12  O4'      -11.9280  -24.5390  -19.7650 O.3   1418  ADP1418    -0.3135
     13  C3'      -11.8670  -23.7990  -21.9960 C.3   1418  ADP1418     0.2184
     14  O3'      -11.7650  -24.7240  -23.0910 O.3   1418  ADP1418    -0.2174
     15  C2'      -13.2820  -23.7200  -21.4170 C.3   1418  ADP1418     0.2570
     16  O2'      -14.3090  -24.0460  -22.3550 O.3   1418  ADP1418    -0.2130
     17  C1'      -13.2390  -24.7110  -20.2660 C.3   1418  ADP1418     0.3186
     18  N9       -14.1870  -24.4660  -19.1590 N.pl3 1418  ADP1418    -0.1439
     19  C8       -14.3050  -23.3330  -18.4270 C.3   1418  ADP1418     0.3377
     20  N7       -15.2830  -23.4380  -17.4860 N.2   1418  ADP1418    -0.2095
     21  C5       -15.7870  -24.6760  -17.6020 C.2   1418  ADP1418     0.2526
     22  C6       -16.8610  -25.4560  -16.9410 C.2   1418  ADP1418     0.4393
     23  N6       -17.5830  -24.9240  -15.9060 N.pl3 1418  ADP1418     0.2180
     24  N1       -17.0570  -26.7290  -17.3770 N.2   1418  ADP1418     0.0021
     25  C2       -16.3520  -27.2750  -18.3760 C.3   1418  ADP1418     0.5254
     26  N3       -15.3970  -26.6130  -19.0440 N.2   1418  ADP1418    -0.0055
     27  C4       -15.0660  -25.3460  -18.7020 C.2   1418  ADP1418     0.3518
@<TRIPOS>BOND
     1    14    13    1
     2    16    15    1
     3    13    15    1
     4    13    11    1
     5    15    17    1
     6     4     1    2
     7    11    10    1
     8    11    12    1
     9     6     5    2
    10    10     9    1
    11    17    12    1
    12    17    18    1
    13     2     1    1
    14     1     8    1
    15     1     3    1
    16     9     5    1
    17     5     8    1
    18     5     7    1
    19    18    27    1
    20    18    19    1
    21    26    27    2
    22    26    25    1
    23    27    21    1
    24    19    20    1
    25    25    24    1
    26    21    20    2
    27    21    22    1
    28    24    22    2
    29    22    23    1
