@<TRIPOS>MOLECULE
2xe8_3PG_A_1.pdb
 11 10 0 0 0
SMALL
GASTEIGER

@<TRIPOS>ATOM
      1  C1         3.3300  -13.0070  -20.0720 C.2   1417  3PG1417     0.3972
      2  O1         2.9680  -12.7400  -21.2090 O.co2 1417  3PG1417    -0.2427
      3  O2         2.4190  -13.3740  -19.2560 O.co2 1417  3PG1417    -0.2427
      4  C2         4.8210  -12.9950  -19.7810 C.3   1417  3PG1417     0.2838
      5  O3         5.1000  -13.4070  -18.4260 O.3   1417  3PG1417    -0.2081
      6  C3         5.4730  -11.6170  -20.0230 C.3   1417  3PG1417     0.1983
      7  O1P        4.8940  -10.6960  -19.0910 O.3   1417  3PG1417    -0.2669
      8  P          4.8400   -9.1340  -19.4560 P.3   1417  3PG1417     0.5327
      9  O2P        3.8190   -9.1190  -20.5890 O.2   1417  3PG1417    -0.2224
     10  O3P        4.4070   -8.4960  -18.1780 O.3   1417  3PG1417    -0.1145
     11  O4P        6.2460   -8.7650  -19.9290 O.3   1417  3PG1417    -0.1145
@<TRIPOS>BOND
     1     2     1   ar
     2     9     8    2
     3     1     4    1
     4     1     3   ar
     5     6     4    1
     6     6     7    1
     7    11     8    1
     8     4     5    1
     9     8     7    1
    10     8    10    1
