@<TRIPOS>MOLECULE
2xe8_ACP_A_1.pdb
 31 33 0 0 0
SMALL
GASTEIGER

@<TRIPOS>ATOM
      1  PG        -4.1580   -8.6320  -23.6600 P.3   1418  ACP1418     0.1295
      2  O1G       -5.1950   -9.1500  -22.4580 O.3   1418  ACP1418    -0.3567
      3  O2G       -3.0410   -9.8340  -23.8530 O.2   1418  ACP1418    -0.4595
      4  O3G       -3.5080   -7.3040  -23.3740 O.3   1418  ACP1418    -0.3567
      5  PB        -6.6150   -9.6780  -24.8650 P.3   1418  ACP1418     0.3815
      6  O1B       -6.2860  -11.0790  -24.0140 O.3   1418  ACP1418    -0.1391
      7  O2B       -7.5220   -8.6610  -24.1960 O.2   1418  ACP1418    -0.2547
      8  C3B       -5.0600   -8.7810  -25.2200 C.3   1418  ACP1418     0.1768
      9  PA        -8.3090   -9.5500  -26.9990 P.3   1418  ACP1418     0.2209
     10  O1A       -8.4520   -8.1360  -26.1860 O.3   1418  ACP1418    -0.4371
     11  O2A       -8.0900   -9.2990  -28.4760 O.2   1418  ACP1418    -0.5170
     12  O3A       -7.1670  -10.3920  -26.2790 O.3   1418  ACP1418    -0.2483
     13  O5'       -9.6900  -10.3340  -26.6220 O.3   1418  ACP1418    -0.3111
     14  C5'       -9.8440  -11.3790  -25.6340 C.3   1418  ACP1418     0.1813
     15  C4'      -11.2370  -11.0800  -25.0750 C.3   1418  ACP1418     0.1821
     16  O4'      -12.1590  -11.0190  -26.2400 O.3   1418  ACP1418    -0.3135
     17  C3'      -11.8410  -12.0920  -24.0960 C.3   1418  ACP1418     0.2184
     18  O3'      -11.7530  -11.4800  -22.8040 O.3   1418  ACP1418    -0.2174
     19  C2'      -13.3200  -12.2160  -24.5900 C.3   1418  ACP1418     0.2570
     20  O2'      -14.2590  -11.9970  -23.5140 O.3   1418  ACP1418    -0.2130
     21  C1'      -13.4620  -11.0570  -25.6090 C.3   1418  ACP1418     0.3186
     22  N9       -14.4920  -11.4770  -26.6320 N.pl3 1418  ACP1418    -0.1439
     23  C8       -14.6200  -12.6370  -27.2830 C.3   1418  ACP1418     0.3377
     24  N7       -15.6690  -12.5380  -28.1200 N.2   1418  ACP1418    -0.2095
     25  C5       -16.1850  -11.3400  -28.0080 C.2   1418  ACP1418     0.2526
     26  C6       -17.2200  -10.6400  -28.5760 C.2   1418  ACP1418     0.4393
     27  N6       -18.0360  -11.2440  -29.4930 N.pl3 1418  ACP1418     0.2180
     28  N1       -17.4230   -9.3450  -28.1940 N.2   1418  ACP1418     0.0021
     29  C2       -16.6810   -8.7050  -27.2990 C.3   1418  ACP1418     0.5254
     30  N3       -15.6600   -9.3740  -26.7530 N.2   1418  ACP1418    -0.0055
     31  C4       -15.4070  -10.6500  -27.0690 C.2   1418  ACP1418     0.3518
@<TRIPOS>BOND
     1    27    26    1
     2    26    28    2
     3    26    25    1
     4    11     9    2
     5    28    29    1
     6    24    25    2
     7    24    23    1
     8    25    31    1
     9    29    30    1
    10    23    22    1
    11    31    30    2
    12    31    22    1
    13     9    13    1
    14     9    12    1
    15     9    10    1
    16    22    21    1
    17    13    14    1
    18    12     5    1
    19    16    21    1
    20    16    15    1
    21    14    15    1
    22    21    19    1
    23     8     5    1
    24     8     1    1
    25    15    17    1
    26     5     7    2
    27     5     6    1
    28    19    17    1
    29    19    20    1
    30    17    18    1
    31     3     1    2
    32     1     4    1
    33     1     2    1
