@<TRIPOS>MOLECULE
2xei_ARK_A_1.pdb
 46 47 0 0 0
SMALL
GASTEIGER

@<TRIPOS>ATOM
      1  OAA       13.8580   48.6980   40.2150 O.co2 1770  ARK1770    -0.2457
      2  CBH       13.8130   47.4440   40.0450 C.2   1770  ARK1770     0.3649
      3  OAG       12.9960   46.8660   39.2970 O.co2 1770  ARK1770    -0.2457
      4  CAV       14.8560   46.5360   40.8130 C.3   1770  ARK1770     0.1164
      5  CAX       14.5740   45.0180   41.0420 C.3   1770  ARK1770     0.0451
      6  CBQ       15.8840   44.2070   41.3900 C.3   1770  ARK1770     0.1999
      7  CBJ       16.8710   44.4170   40.1890 C.2   1770  ARK1770     0.3843
      8  OAI       16.7740   43.6240   39.1930 O.co2 1770  ARK1770    -0.2437
      9  OAC       17.7270   45.3520   40.2580 O.co2 1770  ARK1770    -0.2437
     10  NBE       16.5830   44.7700   42.5550 N.am  1770  ARK1770    -0.1774
     11  CBK       17.8350   44.4130   42.8540 C.2   1770  ARK1770     0.3402
     12  OAD       18.3320   43.3920   42.3470 O.2   1770  ARK1770    -0.2492
     13  N         18.4540   45.1910   43.7420 N.am  1770  ARK1770    -0.1774
     14  CA        19.7960   44.9610   44.2420 C.3   1770  ARK1770     0.1994
     15  C         19.8960   45.5560   45.6450 C.2   1770  ARK1770     0.3843
     16  OXT       19.4160   46.7110   45.8000 O.co2 1770  ARK1770    -0.2437
     17  O         20.5170   44.8510   46.5040 O.co2 1770  ARK1770    -0.2437
     18  CB        20.6690   45.8260   43.2640 C.3   1770  ARK1770     0.0334
     19  CAP       22.1130   45.3160   43.2340 C.3   1770  ARK1770     0.0038
     20  CAQ       23.0570   46.4900   43.0370 C.3   1770  ARK1770     0.0193
     21  CAY       24.0150   46.2750   41.8720 C.3   1770  ARK1770     0.0959
     22  NBR       24.7260   47.5610   41.6450 N.3   1770  ARK1770    -0.1633
     23  CAO       25.1310   48.3660   42.6430 C.3   1770  ARK1770     0.1406
     24  NBB       25.0110   48.0450   40.5320 N.pl3 1770  ARK1770    -0.0631
     25  NBA       25.5910   49.1330   40.6720 N.2   1770  ARK1770    -0.1515
     26  CBL       25.6940   49.3760   41.9910 C.2   1770  ARK1770     0.1046
     27  CAZ       26.2810   50.4960   42.6020 C.3   1770  ARK1770     0.1863
     28  OBG       25.4330   51.6030   42.9880 O.3   1770  ARK1770    -0.3450
     29  CAU       25.3380   51.6780   44.4300 C.3   1770  ARK1770     0.1746
     30  CAT       25.2900   53.1410   44.9550 C.3   1770  ARK1770     0.1742
     31  OBF       26.6030   53.5570   45.4100 O.3   1770  ARK1770    -0.3492
     32  CAS       26.7750   53.2150   46.8050 C.3   1770  ARK1770     0.1655
     33  CAR       28.0000   52.3310   47.0920 C.3   1770  ARK1770     0.1442
     34  NBC       29.0940   53.1810   47.5930 N.pl3 1770  ARK1770    -0.2333
     35  CBN       30.1790   52.7280   48.2440 C.ar  1770  ARK1770     0.0879
     36  CAM       30.0740   52.0780   49.4750 C.ar  1770  ARK1770     0.0195
     37  CAL       31.2230   51.6420   50.1160 C.ar  1770  ARK1770     0.0255
     38  CBM       32.4800   51.8650   49.5500 C.ar  1770  ARK1770     0.1446
     39  NBS       33.6230   51.4540   50.1130 N.pl3 1770  ARK1770     0.0577
     40  OAJ       34.8510   51.6570   49.4320 O.2   1770  ARK1770    -0.1261
     41  OAE       33.6620   50.6920   51.3290 O.2   1770  ARK1770    -0.1261
     42  CAN       32.5800   52.5240   48.3420 C.ar  1770  ARK1770     0.0495
     43  CBO       31.4430   52.9590   47.6900 C.ar  1770  ARK1770     0.1592
     44  NBT       31.6050   53.5650   46.5170 N.pl3 1770  ARK1770     0.0590
     45  OAK       32.9100   53.7050   45.9770 O.2   1770  ARK1770    -0.1261
     46  OAF       30.4760   53.9710   45.7520 O.2   1770  ARK1770    -0.1261
@<TRIPOS>BOND
     1     8     7   ar
     2     3     2   ar
     3     2     1   ar
     4     2     4    1
     5     7     9   ar
     6     7     6    1
     7    24    25    1
     8    24    22    1
     9    25    26    2
    10     4     5    1
    11     5     6    1
    12     6    10    1
    13    22    21    1
    14    22    23    1
    15    21    20    1
    16    26    27    1
    17    26    23    1
    18    12    11    2
    19    10    11   am
    20    27    28    1
    21    11    13   am
    22    28    29    1
    23    20    19    1
    24    19    18    1
    25    18    14    1
    26    13    14    1
    27    14    15    1
    28    29    30    1
    29    30    31    1
    30    31    32    1
    31    15    16   ar
    32    15    17   ar
    33    46    44    2
    34    45    44    2
    35    44    43    1
    36    32    33    1
    37    33    34    1
    38    34    35    1
    39    43    35   ar
    40    43    42   ar
    41    35    36   ar
    42    42    38   ar
    43    40    39    2
    44    36    37   ar
    45    38    39    1
    46    38    37   ar
    47    39    41    2
