@<TRIPOS>MOLECULE
2xej_OKD_A_1.pdb
 41 41 0 0 0
SMALL
GASTEIGER

@<TRIPOS>ATOM
      1  CAA       28.5360   62.2460   40.7690 C.3   1768  OKD1768     0.1742
      2  OBC       29.0310   61.8880   39.4610 O.3   1768  OKD1768    -0.3484
      3  CAL       28.5600   60.5670   39.0970 C.3   1768  OKD1768     0.1742
      4  CAM       29.7120   59.7380   38.5070 C.3   1768  OKD1768     0.1742
      5  OBD       29.3250   58.3530   38.3020 O.3   1768  OKD1768    -0.3484
      6  CAN       29.9960   57.4640   39.2290 C.3   1768  OKD1768     0.1742
      7  CAO       29.1110   57.0170   40.4130 C.3   1768  OKD1768     0.1742
      8  OBE       27.6640   57.0300   40.1680 O.3   1768  OKD1768    -0.3484
      9  CAP       27.1750   55.6770   40.0090 C.3   1768  OKD1768     0.1742
     10  CAQ       26.5950   55.0780   41.2950 C.3   1768  OKD1768     0.1742
     11  OBF       26.5170   53.6570   41.0790 O.3   1768  OKD1768    -0.3484
     12  CAR       25.2770   53.2050   41.7720 C.3   1768  OKD1768     0.1742
     13  CAS       25.6130   51.7300   41.4260 C.3   1768  OKD1768     0.1746
     14  OBG       25.2830   51.2830   40.0310 O.3   1768  OKD1768    -0.3450
     15  CAX       25.9460   49.9750   39.5960 C.3   1768  OKD1768     0.1863
     16  CBL       25.5110   48.6570   39.9510 C.2   1768  OKD1768     0.1046
     17  CAI       25.0760   48.3000   41.1660 C.3   1768  OKD1768     0.1406
     18  NAY       25.4630   47.5540   39.1750 N.2   1768  OKD1768    -0.1515
     19  NAZ       25.0300   46.6100   39.8780 N.pl3 1768  OKD1768    -0.0631
     20  NBO       24.7780   47.0030   41.0380 N.3   1768  OKD1768    -0.1633
     21  CAW       24.2730   46.1940   42.1920 C.3   1768  OKD1768     0.0959
     22  CAK       22.8500   45.7190   41.9930 C.3   1768  OKD1768     0.0193
     23  CAJ       22.2330   45.2740   43.3600 C.3   1768  OKD1768     0.0038
     24  CB        20.7290   45.6430   43.3010 C.3   1768  OKD1768     0.0334
     25  CA        19.8660   44.9500   44.3800 C.3   1768  OKD1768     0.1994
     26  C         20.1240   45.6530   45.7320 C.2   1768  OKD1768     0.3843
     27  OXT       20.7800   44.9820   46.5610 O.co2 1768  OKD1768    -0.2437
     28  O         19.5350   46.7260   45.9510 O.co2 1768  OKD1768    -0.2437
     29  N         18.5110   45.2280   43.9040 N.am  1768  OKD1768    -0.1774
     30  CBK       17.8820   44.4800   43.0190 C.2   1768  OKD1768     0.3402
     31  OAE       18.3540   43.4410   42.5700 O.2   1768  OKD1768    -0.2492
     32  NBB       16.6270   44.8180   42.7210 N.am  1768  OKD1768    -0.1774
     33  CBN       16.0080   44.2380   41.5470 C.3   1768  OKD1768     0.1999
     34  CBJ       16.9940   44.4600   40.3680 C.2   1768  OKD1768     0.3843
     35  OAH       16.8500   43.6860   39.3980 O.co2 1768  OKD1768    -0.2437
     36  OAD       17.8880   45.3620   40.4300 O.co2 1768  OKD1768    -0.2437
     37  CAV       14.6910   44.9800   41.1240 C.3   1768  OKD1768     0.0451
     38  CAT       14.8820   46.5380   41.1420 C.3   1768  OKD1768     0.1164
     39  CBH       13.7560   47.3390   40.4280 C.2   1768  OKD1768     0.3649
     40  OAF       13.7050   48.5650   40.6570 O.co2 1768  OKD1768    -0.2457
     41  OAB       12.9430   46.7190   39.7060 O.co2 1768  OKD1768    -0.2457
@<TRIPOS>BOND
     1     5     4    1
     2     5     6    1
     3     4     3    1
     4     3     2    1
     5    18    19    1
     6    18    16    2
     7     6     7    1
     8    35    34   ar
     9     2     1    1
    10    15    16    1
    11    15    14    1
    12    41    39   ar
    13    19    20    1
    14    16    17    1
    15     9     8    1
    16     9    10    1
    17    14    13    1
    18     8     7    1
    19    34    36   ar
    20    34    33    1
    21    39    40   ar
    22    39    38    1
    23    20    17    1
    24    20    21    1
    25    11    10    1
    26    11    12    1
    27    37    38    1
    28    37    33    1
    29    13    12    1
    30    33    32    1
    31    22    21    1
    32    22    23    1
    33    31    30    2
    34    32    30   am
    35    30    29   am
    36    24    23    1
    37    24    25    1
    38    29    25    1
    39    25    26    1
    40    26    28   ar
    41    26    27   ar
