@<TRIPOS>MOLECULE
2xel_IA2_A_1.pdb
 17 18 0 0 0
SMALL
GASTEIGER

@<TRIPOS>ATOM
      1 CL18       30.3450   46.9300   28.1360 Cl    999  IA2999     -0.0471
      2  C10       28.6460   47.2330   28.2970 C.2   999  IA2999      0.2001
      3  C9        27.8740   47.4030   29.4650 C.2   999  IA2999      0.1112
      4 CL17       28.4540   47.3500   31.1110 Cl    999  IA2999     -0.0777
      5  C8        26.5170   47.6280   29.0610 C.2   999  IA2999      0.1012
      6 CL16       25.2250   47.8860   30.2070 Cl    999  IA2999     -0.0786
      7  C7        26.4680   47.5920   27.6130 C.2   999  IA2999      0.1470
      8  C4        25.3880   47.7410   26.5220 C.ar  999  IA2999      0.0711
      9  C5        25.8580   47.4990   25.1430 C.ar  999  IA2999      0.0172
     10  C6        24.9640   47.5920   24.0090 C.ar  999  IA2999      0.0588
     11 CL13       25.5390   47.3050   22.4020 Cl    999  IA2999     -0.0822
     12  C3        23.9490   48.0930   26.7210 C.ar  999  IA2999      0.2086
     13  C2        23.0830   48.1720   25.5410 C.ar  999  IA2999      0.0974
     14  N1        27.7920   47.3510   27.2450 N.2   999  IA2999     -0.3886
     15 CL14       21.4120   48.5640   25.6940 Cl    999  IA2999     -0.0789
     16  C1        23.5810   47.9270   24.2130 C.ar  999  IA2999      0.0260
     17  O12       23.4190   48.3350   27.9500 O.3   999  IA2999     -0.2856
@<TRIPOS>BOND
     1    11    10    1
     2    10    16   ar
     3    10     9   ar
     4    16    13   ar
     5     9     8   ar
     6    13    15    1
     7    13    12   ar
     8     8    12   ar
     9     8     7    1
    10    12    17    1
    11    14     7    2
    12    14     2    2
    13     7     5    1
    14     1     2    1
    15     2     3    1
    16     5     3    2
    17     5     6    1
    18     3     4    1
