@<TRIPOS>MOLECULE
2xel_AD9_A_1.pdb
 31 33 0 0 0
SMALL
GASTEIGER

@<TRIPOS>ATOM
      1  VG        18.8520   40.2140   48.6320 V     900  AD9900      0.0000
      2  O1G       17.2310   40.9010   48.6800 O.3   900  AD9900      0.0000
      3  O2G       18.8520   38.6920   48.1360 O.3   900  AD9900      0.0000
      4  O3G       19.8910   41.1320   47.6250 O.3   900  AD9900      0.0000
      5  PB        20.3070   39.6510   51.5370 P.3   900  AD9900      0.0000
      6  O1B       20.2900   38.1100   51.7840 O.3   900  AD9900     -0.5000
      7  O2B       21.8390   40.3680   51.4370 O.2   900  AD9900     -0.5000
      8  O3B       19.6570   40.1750   50.2110 O.3   900  AD9900      0.0000
      9  PA        20.4560   41.6390   53.7600 P.3   900  AD9900      0.0000
     10  O1A       21.8950   41.3690   54.2100 O.3   900  AD9900     -0.5000
     11  O2A       20.2560   42.9750   52.7500 O.2   900  AD9900     -0.5000
     12  O3A       19.7250   40.4660   52.8330 O.3   900  AD9900      0.0000
     13  O5'       19.3400   41.8850   54.9170 O.3   900  AD9900      0.0000
     14  C5'       18.0860   42.6620   54.8470 C.3   900  AD9900      0.0000
     15  C4'       17.9230   43.3510   56.1650 C.3   900  AD9900      0.0000
     16  O4'       17.9960   42.3320   57.2180 O.3   900  AD9900      0.0000
     17  C3'       19.0860   44.2670   56.5360 C.3   900  AD9900      0.0000
     18  O3'       18.9650   45.5560   55.8720 O.3   900  AD9900      0.0000
     19  C2'       18.9460   44.3750   58.0560 C.3   900  AD9900      0.0000
     20  O2'       17.8060   45.2090   58.4240 O.3   900  AD9900      0.0000
     21  C1'       18.5850   42.9080   58.4410 C.3   900  AD9900      0.0000
     22  N9        19.7170   42.0740   58.9070 N.pl3 900  AD9900      0.5000
     23  C8        20.2460   40.9110   58.3260 C.3   900  AD9900      0.0000
     24  N7        21.2630   40.3890   58.9980 N.2   900  AD9900      0.0000
     25  C5        21.4290   41.2400   60.0880 C.2   900  AD9900      0.0000
     26  C6        22.3340   41.2440   61.1900 C.2   900  AD9900      0.0000
     27  N6        23.2900   40.3010   61.3600 N.pl3 900  AD9900      0.5000
     28  N1        22.2340   42.2470   62.1210 N.2   900  AD9900      0.5000
     29  C2        21.2810   43.2100   61.9750 C.3   900  AD9900      0.0000
     30  C4        20.4830   42.2960   60.0520 C.2   900  AD9900      0.0000
     31  N3        20.3700   43.3000   60.9690 N.2   900  AD9900      0.5000
@<TRIPOS>BOND
     1     4     1    1
     2     3     1    1
     3     1     2    1
     4     1     8    1
     5     8     5    1
     6     7     5    2
     7     5     6    1
     8     5    12    1
     9    11     9    2
    10    12     9    1
    11     9    10    1
    12     9    13    1
    13    14    13    1
    14    14    15    1
    15    18    17    1
    16    15    17    1
    17    15    16    1
    18    17    19    1
    19    16    21    1
    20    19    20    1
    21    19    21    1
    22    23    22    1
    23    23    24    1
    24    21    22    1
    25    22    30    1
    26    24    25    2
    27    30    25    1
    28    30    31    2
    29    25    26    1
    30    31    29    1
    31    26    27    1
    32    26    28    2
    33    29    28    1
