@<TRIPOS>MOLECULE
2xem_SSV_B_1.pdb
 16 15 0 0 0
SMALL
GASTEIGER

@<TRIPOS>ATOM
      1  CAB        1.9640   16.8680   26.7750 C.3   1145  SSV1145     0.0726
      2  CAP        0.7270   16.4070   26.0120 C.2   1145  SSV1145     0.1554
      3  OAC        0.6930   15.3000   25.4630 O.2   1145  SSV1145    -0.2957
      4  CAO       -0.3760   17.2560   26.0530 C.3   1145  SSV1145     0.0905
      5  CAN       -1.5600   17.0470   25.3580 C.2   1145  SSV1145    -0.0184
      6  CAM       -2.5620   17.9950   25.5250 C.2   1145  SSV1145    -0.0045
      7  CAL       -3.7690   17.9080   24.8580 C.2   1145  SSV1145    -0.0049
      8  CAK       -4.7720   18.8450   25.0510 C.2   1145  SSV1145    -0.0258
      9  CAJ       -5.9620   18.6050   24.3880 C.3   1145  SSV1145     0.0307
     10  CAI       -7.0610   19.4480   24.4050 C.3   1145  SSV1145     0.0307
     11  CAH       -8.1170   19.0320   23.6110 C.2   1145  SSV1145    -0.0258
     12  CAG       -9.3370   19.6820   23.5570 C.2   1145  SSV1145    -0.0049
     13  CAF      -10.3530   19.0670   22.8430 C.2   1145  SSV1145    -0.0049
     14  CAE      -11.5730   19.6440   22.5250 C.2   1145  SSV1145    -0.0261
     15  CAD      -12.5020   18.9180   21.7840 C.3   1145  SSV1145     0.0260
     16  CAA      -13.8680   19.5070   21.4640 C.3   1145  SSV1145     0.0050
@<TRIPOS>BOND
     1    16    15    1
     2    15    14    1
     3    14    13    2
     4    13    12    1
     5    12    11    2
     6    11    10    1
     7     9    10    1
     8     9     8    1
     9     7     8    2
    10     7     6    1
    11     5     6    2
    12     5     4    1
    13     3     2    2
    14     2     4    1
    15     2     1    1
