@<TRIPOS>MOLECULE
2xey_YVQ_A_1.pdb
 23 27 0 0 0
SMALL
GASTEIGER

@<TRIPOS>ATOM
      1  CAV        0.6380   -4.7300   19.0870 C.2   1270  YVQ1270     0.0168
      2  CAF        0.1060   -3.9280   20.0810 C.2   1270  YVQ1270     0.0010
      3  CAB       -1.2290   -4.0620   20.4210 C.2   1270  YVQ1270    -0.0041
      4  CAA       -2.0200   -5.0000   19.7780 C.2   1270  YVQ1270    -0.0198
      5  CAE       -1.4790   -5.8090   18.7910 C.3   1270  YVQ1270     0.0717
      6  CAU       -0.1430   -5.6740   18.4500 C.2   1270  YVQ1270     0.0634
      7  NAO        0.6230   -6.2970   17.5610 N.2   1270  YVQ1270    -0.2478
      8  CAI        1.8580   -5.7990   17.6190 C.2   1270  YVQ1270     0.0999
      9  CAR        1.9030   -4.8640   18.5580 C.2   1270  YVQ1270     0.0376
     10  CAS        2.9560   -4.0490   18.9480 C.ar  1270  YVQ1270     0.0820
     11  CAD        2.8930   -2.9740   19.7160 C.ar  1270  YVQ1270     0.1174
     12  NAM        4.1070   -2.4430   19.8270 N.ar  1270  YVQ1270    -0.2273
     13  CAT        4.9680   -3.1560   19.1130 C.ar  1270  YVQ1270     0.1455
     14  CAG        6.3280   -3.0300   18.8900 C.3   1270  YVQ1270     0.1885
     15  NAL        6.9630   -3.8900   18.1200 N.2   1270  YVQ1270    -0.2648
     16  NAW        4.2710   -4.1860   18.5160 N.ar  1270  YVQ1270    -0.3074
     17  CAJ        4.9630   -5.0930   17.7140 C.3   1270  YVQ1270     0.1523
     18  CAQ        6.3320   -4.9160   17.5360 C.2   1270  YVQ1270     0.0766
     19  CAP        7.0660   -5.7770   16.7290 C.2   1270  YVQ1270     0.0399
     20  CAC        8.3460   -5.6600   16.4250 C.3   1270  YVQ1270     0.1783
     21  CAH        6.6370   -6.8520   16.0870 C.2   1270  YVQ1270     0.1207
     22  NAN        7.6690   -7.3660   15.4250 N.2   1270  YVQ1270    -0.1510
     23  NAK        8.6630   -6.6690   15.6230 N.2   1270  YVQ1270    -0.1695
@<TRIPOS>BOND
     1    22    23    2
     2    22    21    1
     3    23    20    1
     4    21    19    2
     5    20    19    1
     6    19    18    1
     7    18    17    1
     8    18    15    2
     9     7     8    1
    10     7     6    2
    11     8     9    2
    12    17    16    1
    13    15    14    1
    14     6     5    1
    15     6     1    1
    16    16    10   ar
    17    16    13   ar
    18     9    10    1
    19     9     1    1
    20     5     4    1
    21    14    13    1
    22    10    11   ar
    23     1     2    2
    24    13    12   ar
    25    11    12   ar
    26     4     3    2
    27     2     3    1
