@<TRIPOS>MOLECULE
2xez_XEZ_A_1.pdb
 19 22 0 0 0
SMALL
GASTEIGER

@<TRIPOS>ATOM
      1  CAC       13.2210   -3.5500   12.5070 C.ar  1271  XEZ1271     0.1249
      2  NAH       12.1800   -4.0970   13.1210 N.ar  1271  XEZ1271    -0.1463
      3  NAM       11.1670   -3.4410   12.8790 N.ar  1271  XEZ1271    -0.1463
      4  CAF       11.4780   -2.4210   12.0900 C.ar  1271  XEZ1271     0.1249
      5  CAN       12.7760   -2.4920   11.8550 C.ar  1271  XEZ1271     0.0569
      6  CAP       13.5300   -1.6280   11.0780 C.2   1271  XEZ1271     0.0802
      7  CAG       14.8890   -1.8500   10.9500 C.3   1271  XEZ1271     0.1526
      8  NAS       15.6290   -0.9820   10.1730 N.ar  1271  XEZ1271    -0.3062
      9  NAI       12.9500   -0.5880   10.4660 N.2   1271  XEZ1271    -0.2645
     10  CAE       13.6440    0.2500    9.7170 C.3   1271  XEZ1271     0.1885
     11  CAR       15.0110    0.0790    9.5480 C.ar  1271  XEZ1271     0.1456
     12  NAJ       15.9460    0.7460    8.8750 N.ar  1271  XEZ1271    -0.2273
     13  CAD       17.1270    0.1510    9.0520 C.ar  1271  XEZ1271     0.1190
     14  CAQ       16.9570   -0.9040    9.8380 C.ar  1271  XEZ1271     0.1001
     15  CAO       17.8760   -1.8160   10.3160 C.ar  1271  XEZ1271     0.1217
     16  CAB       17.6070   -2.8230   11.1240 C.ar  1271  XEZ1271     0.0449
     17  CAA       18.7570   -3.4310   11.3480 C.ar  1271  XEZ1271     0.1238
     18  NAL       19.6890   -2.7710   10.6760 N.ar  1271  XEZ1271    -0.1463
     19  NAK       19.1760   -1.8310   10.0760 N.ar  1271  XEZ1271    -0.1464
@<TRIPOS>BOND
     1    12    13   ar
     2    12    11   ar
     3    13    14   ar
     4    11    10    1
     5    11     8   ar
     6    10     9    1
     7    14     8   ar
     8    14    15    1
     9    19    15   ar
    10    19    18   ar
    11     8     7    1
    12    15    16   ar
    13     9     6    2
    14    18    17   ar
    15     7     6    1
    16     6     5    1
    17    16    17   ar
    18     5     4   ar
    19     5     1   ar
    20     4     3   ar
    21     1     2   ar
    22     3     2   ar
