@<TRIPOS>MOLECULE
2xf0_4UB_A_1.pdb
 20 23 0 0 0
SMALL
GASTEIGER

@<TRIPOS>ATOM
      1  C1        15.0250   -4.6190    8.1190 C.ar  1271  4UB1271     0.0015
      2  C2        16.0230   -5.4970    8.5160 C.ar  1271  4UB1271     0.0000
      3  C3        17.3130   -5.3580    8.0240 C.ar  1271  4UB1271     0.0000
      4  C4        17.6070   -4.3350    7.1330 C.ar  1271  4UB1271     0.0000
      5  C5        16.6070   -3.4560    6.7370 C.ar  1271  4UB1271     0.0015
      6  C8        10.6130   -5.3280    9.7280 C.ar  1271  4UB1271     0.1249
      7  N9         9.5710   -5.8050   10.4010 N.ar  1271  4UB1271    -0.1463
      8  N10        8.5890   -5.0870   10.2100 N.ar  1271  4UB1271    -0.1463
      9  C12        8.9200   -4.0920    9.3970 C.ar  1271  4UB1271     0.1249
     10  C13       10.1980   -4.2480    9.0880 C.ar  1271  4UB1271     0.0569
     11  C14       10.9510   -3.4180    8.2720 C.2   1271  4UB1271     0.0801
     12  C15       12.3040   -3.6600    8.0800 C.3   1271  4UB1271     0.1526
     13  C17       12.3660   -1.7280    6.6700 C.ar  1271  4UB1271     0.1455
     14  N18       13.2580   -1.0610    5.9440 N.ar  1271  4UB1271    -0.2273
     15  C19       14.4470   -1.6510    6.0440 C.ar  1271  4UB1271     0.1174
     16  C20       14.3310   -2.7120    6.8320 C.ar  1271  4UB1271     0.0805
     17  CAO       15.3170   -3.6030    7.2230 C.ar  1271  4UB1271     0.0174
     18  NAT       13.0160   -2.7930    7.2600 N.ar  1271  4UB1271    -0.3074
     19  C22       11.0140   -1.5390    6.9070 C.3   1271  4UB1271     0.1885
     20  N23       10.3530   -2.3690    7.6920 N.2   1271  4UB1271    -0.2645
@<TRIPOS>BOND
     1    14    15   ar
     2    14    13   ar
     3    15    16   ar
     4    13    19    1
     5    13    18   ar
     6     5     4   ar
     7     5    17   ar
     8    16    17    1
     9    16    18   ar
    10    19    20    1
    11     4     3   ar
    12    17     1   ar
    13    18    12    1
    14    20    11    2
    15     3     2   ar
    16    12    11    1
    17     1     2   ar
    18    11    10    1
    19    10     9   ar
    20    10     6   ar
    21     9     8   ar
    22     6     7   ar
    23     8     7   ar
