@<TRIPOS>MOLECULE
2xf2_HDD_A_1.pdb
 44 52 0 0 0
SMALL
GASTEIGER

@<TRIPOS>ATOM
      1 FE        -28.8720   72.1560   11.6820 Fe    690  HDD690      0.0000
      2  CHA      -26.5490   69.6920   12.4320 C.2   690  HDD690      0.0000
      3  CHB      -26.3410   74.2420   10.7660 C.2   690  HDD690      0.0000
      4  CHC      -31.1710   74.2940   10.2280 C.2   690  HDD690      0.0000
      5  CHD      -31.3780   69.9800   12.4890 C.2   690  HDD690      0.0000
      6  NA       -26.8670   71.9700   11.5610 N.ar  690  HDD690      0.0000
      7  C1A      -26.1070   70.9060   11.9870 C.ar  690  HDD690      0.0000
      8  C2A      -24.7120   71.2880   11.8890 C.ar  690  HDD690      0.0000
      9  C3A      -24.6360   72.5420   11.4430 C.ar  690  HDD690      0.0000
     10  C4A      -25.9940   72.9970   11.2290 C.ar  690  HDD690      0.0000
     11  CMA      -23.3590   73.3780   11.1670 C.3   690  HDD690      0.0000
     12  CAA      -23.5460   70.3670   12.2530 C.3   690  HDD690      0.0000
     13  CBA      -23.0160   70.6310   13.6580 C.3   690  HDD690      0.0000
     14  CGA      -21.8050   69.7520   13.7680 C.2   690  HDD690      0.0000
     15  O1A      -20.7810   70.0900   13.1230 O.co2 690  HDD690      0.0000
     16  O2A      -21.8760   68.7180   14.4890 O.co2 690  HDD690      0.0000
     17  NB       -28.7630   73.8970   10.6050 N.2   690  HDD690      0.0000
     18  C1B      -27.6240   74.6590   10.4960 C.2   690  HDD690      0.0000
     19  C2B      -27.9970   75.9550    9.9630 C.2   690  HDD690      0.0000
     20  C3B      -29.3380   75.9810    9.8410 C.2   690  HDD690      0.0000
     21  C4B      -29.8420   74.6720   10.2100 C.2   690  HDD690      0.0000
     22  CMB      -26.9980   77.1260    9.7550 C.3   690  HDD690      0.0000
     23  CAB      -30.2580   77.1230    9.3360 C.2   690  HDD690      0.0000
     24  CBB      -29.9800   78.4090    9.5470 C.2   690  HDD690      0.0000
     25  NC       -30.8780   72.1490   11.3890 N.ar  690  HDD690      0.0000
     26  C1C      -31.6510   73.1300   10.7890 C.ar  690  HDD690      0.0000
     27  C2C      -33.0260   72.6560   10.7620 C.ar  690  HDD690      0.0000
     28  C3C      -33.0540   71.5030   11.4510 C.ar  690  HDD690      0.0000
     29  C4C      -31.7090   71.1410   11.8150 C.ar  690  HDD690      0.0000
     30  CMC      -34.2470   73.4680   10.2570 C.3   690  HDD690      0.0000
     31  CAC      -34.2480   70.5900   11.7640 C.2   690  HDD690      0.0000
     32  CBC      -35.2240   71.0860   12.5170 C.2   690  HDD690      0.0000
     33  ND       -28.9470   70.0970   12.3230 N.2   690  HDD690      0.0000
     34  C1D      -30.1260   69.4870   12.7260 C.2   690  HDD690      0.0000
     35  C2D      -29.8340   68.2620   13.4610 C.2   690  HDD690      0.0000
     36  C3D      -28.3010   68.1620   13.4490 C.2   690  HDD690      0.0000
     37  C4D      -27.8540   69.3400   12.7080 C.2   690  HDD690      0.0000
     38  CMD      -30.5790   67.0430   12.8280 C.3   690  HDD690      0.0000
     39  CAD      -27.6610   66.8920   12.8510 C.2   690  HDD690      0.0000
     40  CBD      -26.6430   66.4880   13.8950 C.2   690  HDD690      0.0000
     41  CGD      -26.8380   67.4280   15.0410 C.2   690  HDD690      0.0000
     42  O1D      -27.8040   68.3170   14.7350 O.3   690  HDD690      0.0000
     43  O2D      -26.1570   67.4260   16.0730 O.2   690  HDD690      0.0000
     44  OND      -30.3230   68.3740   14.8220 O.2   690  HDD690      0.0000
@<TRIPOS>BOND
     1    23    24    2
     2    23    20    1
     3    22    19    1
     4    20    19    2
     5    20    21    1
     6    19    18    1
     7    21     4    2
     8    21    17    1
     9     4    26    1
    10    30    27    1
    11    18    17    2
    12    18     3    1
    13    17     1    1
    14    27    26   ar
    15    27    28   ar
    16     3    10    2
    17    26    25   ar
    18    11     9    1
    19    10     9   ar
    20    10     6   ar
    21    25     1    1
    22    25    29   ar
    23     9     8   ar
    24    28    31    1
    25    28    29   ar
    26     6     1    1
    27     6     7   ar
    28     1    33    1
    29    31    32    2
    30    29     5    1
    31     8     7   ar
    32     8    12    1
    33     7     2    2
    34    12    13    1
    35    33    37    2
    36    33    34    1
    37     2    37    1
    38     5    34    2
    39    37    36    1
    40    34    35    1
    41    38    35    1
    42    39    36    1
    43    39    40    2
    44    15    14   ar
    45    36    35    2
    46    36    42    1
    47    35    44    1
    48    13    14    1
    49    14    16   ar
    50    40    41    1
    51    42    41    1
    52    41    43    2
