@<TRIPOS>MOLECULE
2xf3_J01_A_1.pdb
 14 15 0 0 0
SMALL
GASTEIGER

@<TRIPOS>ATOM
      1  O2         9.5940    7.2320   73.1200 O.2   500  J01500     -0.2746
      2  C5         8.6100    6.5270   72.9510 C.2   500  J01500      0.2343
      3  C4         8.4690    5.2020   72.2750 C.3   500  J01500      0.1508
      4  C3         7.0970    5.2470   72.9520 C.3   500  J01500      0.2559
      5  N1         7.2750    6.6660   73.3760 N.am  500  J01500     -0.2317
      6  O1         7.1100    4.4300   74.1230 O.2   500  J01500     -0.4621
      7  C1         7.1160    5.3390   75.2540 C.2   500  J01500      0.1456
      8  C2         7.0750    6.7730   74.8240 C.3   500  J01500      0.2385
      9  C8         5.7550    7.4550   75.0920 C.2   500  J01500      0.3900
     10  O5         5.5450    7.9190   76.2310 O.co2 500  J01500     -0.2433
     11  O4         4.9110    7.5540   74.1700 O.co2 500  J01500     -0.2433
     12  C6         7.1630    4.9470   76.5430 C.2   500  J01500      0.0438
     13  C7         7.2170    3.4840   76.9340 C.3   500  J01500      0.2112
     14  O3         6.2710    3.2130   77.9800 O.3   500  J01500     -0.2151
@<TRIPOS>BOND
     1     3     2    1
     2     3     4    1
     3     2     1    2
     4     2     5   am
     5     4     5    1
     6     4     6    1
     7     5     8    1
     8     6     7    1
     9    11     9   ar
    10     8     9    1
    11     8     7    1
    12     9    10   ar
    13     7    12    2
    14    12    13    1
    15    13    14    1
