@<TRIPOS>MOLECULE
2xf8_3CD_A_1.pdb
 44 48 0 0 0
SMALL
GASTEIGER

@<TRIPOS>ATOM
      1  O1A       51.3690  -13.8410  -30.7320 O.2   600  3CD600     -0.5170
      2  PA        51.1360  -12.3530  -30.8010 P.3   600  3CD600      0.2189
      3  O2A       49.9540  -11.6360  -30.1830 O.3   600  3CD600     -0.4371
      4  O3        51.2210  -11.9150  -32.3500 O.3   600  3CD600     -0.2703
      5  PN        51.7250  -12.8750  -33.5460 P.3   600  3CD600      0.2189
      6  O1N       52.9170  -13.6270  -33.0130 O.3   600  3CD600     -0.4371
      7  O2N       50.5120  -13.5770  -34.1110 O.2   600  3CD600     -0.5170
      8  O5D       52.2170  -11.8560  -34.6990 O.3   600  3CD600     -0.3112
      9  C5D       51.5960  -10.5680  -34.7660 C.3   600  3CD600      0.1813
     10  C4D       51.4920   -9.9110  -36.1580 C.3   600  3CD600      0.1799
     11  C3D       50.0300   -9.8320  -36.6710 C.3   600  3CD600      0.2158
     12  O3D       49.3090   -8.6240  -36.3450 O.3   600  3CD600     -0.2175
     13  C2D       50.1740   -9.9420  -38.1690 C.3   600  3CD600      0.2309
     14  O2D       50.2010   -8.6340  -38.7690 O.3   600  3CD600     -0.2158
     15  O4D       52.3130  -10.5040  -37.1790 O.3   600  3CD600     -0.3327
     16  C1D       51.4840  -10.7030  -38.3300 C.3   600  3CD600      0.2263
     17  N1N       51.1510  -12.1240  -38.4160 N.pl3 600  3CD600     -0.2788
     18  C6N       50.6110  -12.7920  -37.3700 C.3   600  3CD600      0.1195
     19  C5N       50.3040  -14.1440  -37.4410 C.2   600  3CD600     -0.0046
     20  C4N       50.5490  -14.8150  -38.6190 C.2   600  3CD600      0.0012
     21  C2N       51.3940  -12.7540  -39.5660 C.2   600  3CD600      0.0661
     22  C3N       51.0920  -14.1050  -39.6930 C.2   600  3CD600      0.0490
     23  C7N       51.3820  -14.7900  -40.9810 C.2   600  3CD600      0.1747
     24  O7N       52.2180  -14.3500  -41.7490 O.2   600  3CD600     -0.2913
     25  C8N       50.6770  -15.8470  -41.2670 C.3   600  3CD600      0.0773
     26  O5B       52.4320  -11.7210  -30.1280 O.3   600  3CD600     -0.3112
     27  C5B       52.7340  -10.3250  -30.1220 C.3   600  3CD600      0.1813
     28  C4B       53.7620  -10.0570  -29.0250 C.3   600  3CD600      0.1821
     29  C3B       53.1860  -10.3960  -27.6550 C.3   600  3CD600      0.2184
     30  O3B       54.1550  -11.1120  -26.8630 O.3   600  3CD600     -0.2174
     31  C2B       52.7890   -9.0220  -27.1210 C.3   600  3CD600      0.2570
     32  O2B       52.6400   -8.9690  -25.6920 O.3   600  3CD600     -0.2130
     33  C1B       53.9280   -8.1830  -27.6840 C.3   600  3CD600      0.3186
     34  O4B       54.1230   -8.6770  -29.0120 O.3   600  3CD600     -0.3135
     35  N9A       53.7330   -6.7100  -27.7060 N.pl3 600  3CD600     -0.1439
     36  C4A       54.7480   -5.8550  -27.5100 C.2   600  3CD600      0.3518
     37  C5A       54.2330   -4.5720  -27.6040 C.2   600  3CD600      0.2526
     38  N7A       52.9140   -4.6790  -27.8590 N.2   600  3CD600     -0.2095
     39  C8A       52.6150   -6.0010  -27.9230 C.3   600  3CD600      0.3377
     40  N3A       56.0840   -6.0400  -27.2490 N.2   600  3CD600     -0.0055
     41  C2A       56.9000   -4.9910  -27.0870 C.3   600  3CD600      0.5254
     42  N1A       56.4190   -3.7380  -27.1770 N.2   600  3CD600      0.0021
     43  C6A       55.1070   -3.5070  -27.4330 C.2   600  3CD600      0.4393
     44  N6A       54.6410   -2.2450  -27.5140 N.pl3 600  3CD600      0.2180
@<TRIPOS>BOND
     1    24    23    2
     2    25    23    1
     3    23    22    1
     4    22    21    2
     5    22    20    1
     6    21    17    1
     7    14    13    1
     8    20    19    2
     9    17    16    1
    10    17    18    1
    11    16    13    1
    12    16    15    1
    13    13    11    1
    14    19    18    1
    15    15    10    1
    16    11    12    1
    17    11    10    1
    18    10     9    1
    19     9     8    1
    20     8     5    1
    21     7     5    2
    22     5     6    1
    23     5     4    1
    24     4     2    1
    25     2     1    2
    26     2     3    1
    27     2    26    1
    28    26    27    1
    29    27    28    1
    30    28    34    1
    31    28    29    1
    32    34    33    1
    33    39    38    1
    34    39    35    1
    35    38    37    2
    36    35    33    1
    37    35    36    1
    38    33    31    1
    39    29    31    1
    40    29    30    1
    41    37    36    1
    42    37    43    1
    43    44    43    1
    44    36    40    2
    45    43    42    2
    46    40    41    1
    47    42    41    1
    48    31    32    1
