@<TRIPOS>MOLECULE
2xfd_CBI_A_1.pdb
 23 24 0 0 0
SMALL
GASTEIGER

@<TRIPOS>ATOM
      1  C1       -18.1150    4.6430   -0.4560 C.3   1113  CBI1113     0.2695
      2  C2       -16.8260    3.9680   -0.8540 C.3   1113  CBI1113     0.2406
      3  C3       -15.6270    4.7840   -0.4050 C.3   1113  CBI1113     0.2198
      4  C4       -15.7310    6.2470   -0.8640 C.3   1113  CBI1113     0.2144
      5  C5       -17.0570    6.7990   -0.3720 C.3   1113  CBI1113     0.1835
      6  C6       -17.3800    8.2730   -0.7040 C.3   1113  CBI1113     0.2142
      7  O2       -16.6490    2.6300   -0.3410 O.3   1113  CBI1113    -0.2149
      8  O3       -14.4650    4.1790   -0.9800 O.3   1113  CBI1113    -0.2174
      9  O4       -14.7090    7.0280   -0.3010 O.3   1113  CBI1113    -0.2176
     10  O5       -18.0870    5.9990   -0.8760 O.3   1113  CBI1113    -0.3256
     11  O6       -17.4150    8.3690   -2.1130 O.3   1113  CBI1113    -0.2176
     12  C1'      -23.1290    3.6830   -1.0080 C.3   1113  CBI1113     0.3023
     13  C2'      -22.6270    5.0980   -1.2230 C.3   1113  CBI1113     0.2433
     14  C3'      -21.1530    5.0330   -1.5190 C.3   1113  CBI1113     0.2168
     15  C4'      -20.3850    4.2260   -0.4750 C.3   1113  CBI1113     0.1804
     16  C5'      -21.1050    2.9590   -0.2220 C.3   1113  CBI1113     0.1804
     17  C6'      -20.3750    2.1870    0.8190 C.3   1113  CBI1113     0.2141
     18  O1'      -24.5210    3.5460   -0.8440 O.3   1113  CBI1113    -0.1869
     19  O2'      -23.3110    5.7770   -2.2580 O.3   1113  CBI1113    -0.2148
     20  O3'      -20.5980    6.3440   -1.6030 O.3   1113  CBI1113    -0.2175
     21  O4'      -19.2060    3.9080   -1.0270 O.3   1113  CBI1113    -0.3257
     22  O5'      -22.4700    3.2320    0.1600 O.3   1113  CBI1113    -0.3237
     23  O6'      -21.0650    1.0040    1.1080 O.3   1113  CBI1113    -0.2176
@<TRIPOS>BOND
     1    19    13    1
     2    11     6    1
     3    20    14    1
     4    14    13    1
     5    14    15    1
     6    13    12    1
     7    21    15    1
     8    21     1    1
     9    12    18    1
    10    12    22    1
    11     8     3    1
    12    10     1    1
    13    10     5    1
    14     4     3    1
    15     4     5    1
    16     4     9    1
    17     2     1    1
    18     2     3    1
    19     2     7    1
    20     6     5    1
    21    15    16    1
    22    16    22    1
    23    16    17    1
    24    17    23    1
