@<TRIPOS>MOLECULE
2xfe_GAL_A_1.pdb
 11 11 0 0 0
SMALL
GASTEIGER

@<TRIPOS>ATOM
      1  C1        21.8750    4.2940    1.3760 C.3   1111  GAL1111     0.1777
      2  C2        21.1300    4.8250    0.1210 C.3   1111  GAL1111     0.2141
      3  C3        21.5750    4.3430   -1.2470 C.3   1111  GAL1111     0.2173
      4  C4        23.1070    4.1730   -1.3280 C.3   1111  GAL1111     0.2142
      5  C5        23.6510    3.5120   -0.0300 C.3   1111  GAL1111     0.1810
      6  C6        25.1950    3.4730   -0.0690 C.3   1111  GAL1111     0.2141
      7  O2        19.7200    4.9920    0.1890 O.3   1111  GAL1111    -0.2176
      8  O3        21.0600    5.2460   -2.2270 O.3   1111  GAL1111    -0.2175
      9  O4        23.7970    5.4080   -1.5140 O.3   1111  GAL1111    -0.2176
     10  O5        23.2510    4.0230    1.2360 O.3   1111  GAL1111    -0.3481
     11  O6        25.6200    2.4510    0.7570 O.3   1111  GAL1111    -0.2176
@<TRIPOS>BOND
     1     8     3    1
     2     9     4    1
     3     4     3    1
     4     4     5    1
     5     3     2    1
     6     6     5    1
     7     6    11    1
     8     5    10    1
     9     2     7    1
    10     2     1    1
    11    10     1    1
