@<TRIPOS>MOLECULE
2xff_QPS_A_1.pdb
 44 47 0 0 0
SMALL
GASTEIGER

@<TRIPOS>ATOM
      1  C6C       16.6630    0.2010   18.0820 C.3   600  QPS600      0.2141
      2  O6C       15.9820   -0.4410   19.1630 O.3   600  QPS600     -0.2176
      3  C1A       15.7810    7.2580   19.0820 C.3   600  QPS600      0.1273
      4  C2A       16.3990    8.6590   19.0090 C.3   600  QPS600      0.2049
      5  C3A       16.6850    9.1940   20.3970 C.3   600  QPS600      0.2179
      6  C4A       15.3510    9.3850   21.1130 C.3   600  QPS600      0.2053
      7  C5A       14.5060    8.1580   21.0620 C.2   600  QPS600      0.0180
      8  C6A       13.3130    8.0310   21.9800 C.3   600  QPS600      0.2066
      9  C7A       14.7440    7.1960   20.1690 C.2   600  QPS600     -0.0100
     10  O2A       17.6010    8.6090   18.2320 O.3   600  QPS600     -0.2184
     11  O3A       17.3780   10.4280   20.2780 O.3   600  QPS600     -0.2172
     12  O4A       15.6010    9.7130   22.4840 O.3   600  QPS600     -0.2157
     13  O6A       12.3180    8.9620   21.5330 O.3   600  QPS600     -0.2155
     14  C1B       18.0660    3.1230   16.5650 C.3   600  QPS600      0.2694
     15  C2B       18.7890    4.4620   16.5450 C.3   600  QPS600      0.2394
     16  C3B       18.5790    5.2390   17.8520 C.3   600  QPS600      0.2054
     17  C4B       17.0790    5.3960   18.0280 C.3   600  QPS600      0.1333
     18  C5B       16.3530    4.0170   18.0060 C.3   600  QPS600      0.1364
     19  C6B       14.8230    4.0760   18.0630 C.3   600  QPS600      0.0337
     20  N4B       16.7630    6.1910   19.2080 N.3   600  QPS600     -0.2087
     21  O2B       20.1650    4.2420   16.2460 O.3   600  QPS600     -0.2149
     22  O3B       19.2770    6.4850   17.7610 O.3   600  QPS600     -0.2186
     23  O5B       16.6980    3.3050   16.7990 O.3   600  QPS600     -0.3295
     24  C1C       20.0530   -1.3720   18.4950 C.3   600  QPS600      0.2695
     25  C2C       20.8080   -0.6950   17.3740 C.3   600  QPS600      0.2404
     26  C3C       20.4670    0.7820   17.4040 C.3   600  QPS600      0.2167
     27  C4C       18.9550    0.9870   17.2840 C.3   600  QPS600      0.1804
     28  C5C       18.1760    0.1620   18.3080 C.3   600  QPS600      0.1803
     29  O2C       22.2300   -0.8660   17.5670 O.3   600  QPS600     -0.2149
     30  O3C       21.1990    1.4760   16.3830 O.3   600  QPS600     -0.2175
     31  O4C       18.6610    2.3330   17.6060 O.3   600  QPS600     -0.3257
     32  O5C       18.6400   -1.2040   18.2700 O.3   600  QPS600     -0.3257
     33  C1D       21.5640   -1.8490   23.6040 C.3   600  QPS600      0.3023
     34  C2D       22.5410   -2.1450   22.4680 C.3   600  QPS600      0.2433
     35  C3D       22.1420   -1.3420   21.2350 C.3   600  QPS600      0.2168
     36  C4D       20.7050   -1.6810   20.8360 C.3   600  QPS600      0.1804
     37  C5D       19.7950   -1.4300   22.0550 C.3   600  QPS600      0.1804
     38  C6D       18.2980   -1.6440   21.8120 C.3   600  QPS600      0.2141
     39  O1D       21.9990   -2.5300   24.7990 O.3   600  QPS600     -0.1869
     40  O2D       23.8730   -1.7700   22.8370 O.3   600  QPS600     -0.2148
     41  O3D       23.0550   -1.5900   20.1490 O.3   600  QPS600     -0.2175
     42  O4D       20.4300   -0.7940   19.7390 O.3   600  QPS600     -0.3257
     43  O5D       20.2320   -2.2360   23.1830 O.3   600  QPS600     -0.3237
     44  O6D       17.9700   -2.9400   21.2760 O.3   600  QPS600     -0.2176
@<TRIPOS>BOND
     1    21    15    1
     2    30    26    1
     3    15    14    1
     4    15    16    1
     5    14    23    1
     6    14    31    1
     7    23    18    1
     8    27    26    1
     9    27    31    1
    10    27    28    1
    11    25    26    1
    12    25    29    1
    13    25    24    1
    14    22    16    1
    15    16    17    1
    16    18    17    1
    17    18    19    1
    18    17    20    1
    19     1    28    1
    20     1     2    1
    21    10     4    1
    22    32    28    1
    23    32    24    1
    24    24    42    1
    25     4     3    1
    26     4     5    1
    27     3    20    1
    28     3     9    1
    29    42    36    1
    30    41    35    1
    31     9     7    2
    32    11     5    1
    33     5     6    1
    34    36    35    1
    35    36    37    1
    36     7     6    1
    37     7     8    1
    38     6    12    1
    39    35    34    1
    40    44    38    1
    41    13     8    1
    42    38    37    1
    43    37    43    1
    44    34    40    1
    45    34    33    1
    46    43    33    1
    47    33    39    1
