@<TRIPOS>MOLECULE
2xfh_CL6_A_1.pdb
 25 28 0 0 0
SMALL
GASTEIGER

@<TRIPOS>ATOM
      1 CLAY       -3.1790   -6.6570    0.2010 Cl    1413  CL61413    -0.0825
      2  CAX       -3.8740   -5.5430    1.4130 C.ar  1413  CL61413     0.0560
      3  CAW       -3.1700   -5.1130    2.5540 C.ar  1413  CL61413     0.0146
      4  CAU       -3.8150   -4.2260    3.4300 C.ar  1413  CL61413    -0.0011
      5  CAS       -5.1220   -3.7780    3.1790 C.ar  1413  CL61413    -0.0002
      6  CAT       -5.8050   -4.2330    2.0530 C.ar  1413  CL61413     0.0008
      7  CAV       -5.1770   -5.1040    1.1630 C.ar  1413  CL61413     0.0112
      8  CAR       -1.7410   -5.5480    2.8530 C.3   1413  CL61413     0.1275
      9  CAC       -1.6780   -7.0580    2.7620 C.ar  1413  CL61413     0.0040
     10  CAE       -0.6330   -7.7000    2.1210 C.ar  1413  CL61413    -0.0019
     11  CAF       -0.5750   -9.0920    2.0050 C.ar  1413  CL61413    -0.0002
     12  CAD       -1.5810   -9.8530    2.5850 C.ar  1413  CL61413    -0.0000
     13  CAB       -2.6390   -9.2250    3.2320 C.ar  1413  CL61413    -0.0002
     14  CAA       -2.6950   -7.8410    3.3360 C.ar  1413  CL61413    -0.0019
     15  NAO       -0.8050   -4.9460    1.8300 N.ar  1413  CL61413    -0.3008
     16  CAM        0.5040   -4.9660    1.9820 C.ar  1413  CL61413     0.1792
     17  NAN        1.0070   -4.3960    0.8610 N.ar  1413  CL61413    -0.2223
     18  CAQ       -0.0060   -4.0270    0.0460 C.ar  1413  CL61413     0.1193
     19  CAP       -1.1950   -4.4140    0.6700 C.ar  1413  CL61413     0.0987
     20  CAG       -0.5790   -4.1050    6.7740 C.ar  1413  CL61413    -0.0000
     21  CAI       -0.6330   -3.2260    5.6860 C.ar  1413  CL61413    -0.0002
     22  CAK       -1.0130   -3.6900    4.4250 C.ar  1413  CL61413    -0.0019
     23  CAL       -1.3260   -5.0510    4.2380 C.ar  1413  CL61413     0.0040
     24  CAJ       -1.2610   -5.9220    5.3420 C.ar  1413  CL61413    -0.0019
     25  CAH       -0.8900   -5.4630    6.6070 C.ar  1413  CL61413    -0.0002
@<TRIPOS>BOND
     1    18    19   ar
     2    18    17   ar
     3     1     2    1
     4    19    15   ar
     5    17    16   ar
     6     7     2   ar
     7     7     6   ar
     8     2     3   ar
     9    15    16   ar
    10    15     8    1
    11    11    10   ar
    12    11    12   ar
    13     6     5   ar
    14    10     9   ar
    15     3     8    1
    16     3     4   ar
    17    12    13   ar
    18     9     8    1
    19     9    14   ar
    20     8    23    1
    21     5     4   ar
    22    13    14   ar
    23    23    22   ar
    24    23    24   ar
    25    22    21   ar
    26    24    25   ar
    27    21    20   ar
    28    25    20   ar
