@<TRIPOS>MOLECULE
2xfh_HEM_A_1.pdb
 43 50 0 0 0
SMALL
GASTEIGER

@<TRIPOS>ATOM
      1  CHA        3.8170   -6.0160    3.4490 C.2   1412  HEM1412     0.0000
      2  CHB        2.8530   -1.4320    2.3110 C.2   1412  HEM1412     0.0000
      3  CHC        2.6810   -2.4560   -2.3830 C.2   1412  HEM1412     0.0000
      4  CHD        2.8220   -7.1400   -1.1580 C.2   1412  HEM1412     0.0000
      5  C1A        3.6400   -4.6660    3.5330 C.2   1412  HEM1412     0.0000
      6  C2A        3.7620   -3.8660    4.7170 C.2   1412  HEM1412     0.0000
      7  C3A        3.4710   -2.6060    4.4090 C.2   1412  HEM1412     0.0000
      8  C4A        3.1710   -2.5740    3.0050 C.2   1412  HEM1412     0.0000
      9  CMA        3.5110   -1.3700    5.3710 C.3   1412  HEM1412     0.0000
     10  CAA        4.1940   -4.3960    6.0890 C.3   1412  HEM1412     0.0000
     11  CBA        3.0470   -5.0190    6.8580 C.3   1412  HEM1412     0.0000
     12  CGA        3.5070   -5.4720    8.2240 C.2   1412  HEM1412     0.0000
     13  O1A        4.6470   -5.1740    8.6590 O.co2 1412  HEM1412     0.0000
     14  O2A        2.6980   -6.0850    8.9570 O.co2 1412  HEM1412     0.0000
     15  C1B        2.7680   -1.2830    0.9590 C.ar  1412  HEM1412     0.0000
     16  C2B        2.6350   -0.0350    0.2200 C.ar  1412  HEM1412     0.0000
     17  C3B        2.5870   -0.3520   -1.0960 C.ar  1412  HEM1412     0.0000
     18  C4B        2.7000   -1.7790   -1.2010 C.ar  1412  HEM1412     0.0000
     19  CMB        2.5440    1.3890    0.8160 C.3   1412  HEM1412     0.0000
     20  CAB        2.4540    0.5270   -2.3660 C.2   1412  HEM1412     0.0000
     21  CBB        2.6970    1.8510   -2.4560 C.2   1412  HEM1412     0.0000
     22  C1C        2.6860   -3.8280   -2.4850 C.2   1412  HEM1412     0.0000
     23  C2C        2.6490   -4.5960   -3.7080 C.2   1412  HEM1412     0.0000
     24  C3C        2.7050   -5.8880   -3.3520 C.2   1412  HEM1412     0.0000
     25  C4C        2.7560   -5.9780   -1.9120 C.2   1412  HEM1412     0.0000
     26  CMC        2.6090   -4.0190   -5.1340 C.3   1412  HEM1412     0.0000
     27  CAC        2.6980   -7.0400   -4.3360 C.2   1412  HEM1412     0.0000
     28  CBC        3.3190   -8.1800   -3.9760 C.2   1412  HEM1412     0.0000
     29  C1D        3.1230   -7.3130    0.1640 C.ar  1412  HEM1412     0.0000
     30  C2D        3.3000   -8.5750    0.8470 C.ar  1412  HEM1412     0.0000
     31  C3D        3.5660   -8.2040    2.2940 C.ar  1412  HEM1412     0.0000
     32  C4D        3.5630   -6.7620    2.3330 C.ar  1412  HEM1412     0.0000
     33  CMD        3.2090  -10.0130    0.2810 C.3   1412  HEM1412     0.0000
     34  CAD        3.8730   -9.1190    3.4660 C.3   1412  HEM1412     0.0000
     35  CBD        5.4170   -9.1360    3.6000 C.3   1412  HEM1412     0.0000
     36  CGD        5.7920   -9.9840    4.7950 C.2   1412  HEM1412     0.0000
     37  O1D        4.9220  -10.2110    5.6960 O.co2 1412  HEM1412     0.0000
     38  O2D        6.9670  -10.4500    4.8600 O.co2 1412  HEM1412     0.0000
     39  NA         3.2740   -3.8500    2.4890 N.2   1412  HEM1412     0.0000
     40  NB         2.8060   -2.3200    0.0810 N.ar  1412  HEM1412     0.0000
     41  NC         2.7670   -4.6870   -1.4170 N.2   1412  HEM1412     0.0000
     42  ND         3.2970   -6.2850    1.0750 N.ar  1412  HEM1412     0.0000
     43 FE          3.0850   -4.2730    0.5620 Fe    1412  HEM1412     0.0000
@<TRIPOS>BOND
     1    26    23    1
     2    27    28    2
     3    27    24    1
     4    23    24    2
     5    23    22    1
     6    24    25    1
     7    22     3    2
     8    22    41    1
     9    21    20    2
    10     3    18    1
    11    20    17    1
    12    25    41    2
    13    25     4    1
    14    41    43    1
    15    18    17   ar
    16    18    40   ar
    17     4    29    2
    18    17    16   ar
    19    40    43    1
    20    40    15   ar
    21    29    30   ar
    22    29    42   ar
    23    16    19    1
    24    16    15   ar
    25    33    30    1
    26    43    42    1
    27    43    39    1
    28    30    31   ar
    29    15     2    1
    30    42    32   ar
    31    31    32   ar
    32    31    34    1
    33     2     8    2
    34    32     1    2
    35    39     8    1
    36    39     5    2
    37     8     7    1
    38     1     5    1
    39    34    35    1
    40     5     6    1
    41    35    36    1
    42     7     6    2
    43     7     9    1
    44     6    10    1
    45    36    38   ar
    46    36    37   ar
    47    10    11    1
    48    11    12    1
    49    12    13   ar
    50    12    14   ar
