@<TRIPOS>MOLECULE
2xfi_XFI_A_1.pdb
 43 46 0 0 0
SMALL
GASTEIGER

@<TRIPOS>ATOM
      1  C1        29.6070    6.3810   36.4010 C.3   1448  XFI1448     0.0287
      2  C2        28.9230    6.7310   35.0910 C.3   1448  XFI1448     0.1505
      3  N3        28.1410    5.5790   34.5770 N.3   1448  XFI1448    -0.2075
      4  C4        28.9860    4.4330   34.1910 C.3   1448  XFI1448     0.1238
      5  C5        28.2110    3.5670   33.1970 C.3   1448  XFI1448     0.1894
      6  O6        27.8750    4.4430   32.1150 O.3   1448  XFI1448    -0.2197
      7  C7        29.0210    2.3670   32.7280 C.3   1448  XFI1448     0.1316
      8  C8        28.3780    1.6430   31.5490 C.3   1448  XFI1448     0.0507
      9  C9        29.0330    0.3130   31.2650 C.ar  1448  XFI1448    -0.0204
     10  C10       30.4000    0.2030   31.0560 C.ar  1448  XFI1448    -0.0042
     11  C11       30.9700   -1.0340   30.8030 C.ar  1448  XFI1448    -0.0003
     12  C12       30.1810   -2.1700   30.7530 C.ar  1448  XFI1448    -0.0000
     13  C13       28.8220   -2.0650   30.9570 C.ar  1448  XFI1448    -0.0003
     14  C14       28.2520   -0.8300   31.2110 C.ar  1448  XFI1448    -0.0042
     15  N15       29.2370    1.4270   33.8340 N.am  1448  XFI1448    -0.2004
     16  C16       30.4470    1.3530   34.4680 C.2   1448  XFI1448     0.2649
     17  O17       31.3610    2.1640   34.3170 O.2   1448  XFI1448    -0.2684
     18  C18       30.5680    0.1920   35.3700 C.ar  1448  XFI1448     0.0563
     19  C19       30.0220   -1.0270   35.0120 C.ar  1448  XFI1448     0.0046
     20  C20       30.1260   -2.1130   35.8710 C.ar  1448  XFI1448     0.0015
     21  C21       30.7850   -1.9780   37.0860 C.ar  1448  XFI1448     0.0165
     22  C22       31.3300   -0.7470   37.4240 C.ar  1448  XFI1448     0.0734
     23  C23       31.2220    0.3400   36.5750 C.ar  1448  XFI1448     0.0211
     24  N24       32.0280   -0.5490   38.6630 N.pl3 1448  XFI1448    -0.1729
     25  C25       33.3660   -0.0390   38.6070 C.ar  1448  XFI1448     0.0733
     26  C26       34.3440   -0.8070   38.0150 C.ar  1448  XFI1448     0.0165
     27  C27       35.6280   -0.3000   37.9580 C.ar  1448  XFI1448     0.0013
     28  C28       35.9040    0.9370   38.4930 C.ar  1448  XFI1448     0.0001
     29  C29       34.9160    1.6930   39.0810 C.ar  1448  XFI1448     0.0013
     30  C30       33.6290    1.2060   39.1410 C.ar  1448  XFI1448     0.0165
     31  S31       31.5150   -1.2490   40.1120 S.O2  1448  XFI1448     0.0623
     32  C32       32.4640   -2.7430   40.1980 C.3   1448  XFI1448     0.2002
     33  O33       30.1330   -1.6250   39.9610 O.2   1448  XFI1448    -0.1539
     34  O34       31.9710   -0.4250   41.2070 O.2   1448  XFI1448    -0.1539
     35  C35       29.9470    7.1730   34.0610 C.2   1448  XFI1448     0.2571
     36  O36       31.1440    6.8980   34.1210 O.2   1448  XFI1448    -0.2718
     37  N37       29.3990    7.9330   33.0520 N.am  1448  XFI1448    -0.2060
     38  C38       30.2540    8.4090   31.9610 C.3   1448  XFI1448     0.0954
     39  C39       29.5130    8.2470   30.6570 C.3   1448  XFI1448     0.0217
     40  C40       30.3160    8.7410   29.4560 C.3   1448  XFI1448     0.0018
     41  C41       30.6940   10.1970   29.6490 C.3   1448  XFI1448     0.0001
     42  C42       31.4730   10.3290   30.9520 C.3   1448  XFI1448     0.0018
     43  C43       30.6130    9.8700   32.1310 C.3   1448  XFI1448     0.0217
@<TRIPOS>BOND
     1    40    41    1
     2    40    39    1
     3    41    42    1
     4    39    38    1
     5    12    11   ar
     6    12    13   ar
     7    11    10   ar
     8    42    43    1
     9    13    14   ar
    10    10     9   ar
    11    14     9   ar
    12     9     8    1
    13     8     7    1
    14    38    43    1
    15    38    37    1
    16     6     5    1
    17     7     5    1
    18     7    15    1
    19    37    35   am
    20     5     4    1
    21    15    16   am
    22    35    36    2
    23    35     2    1
    24     4     3    1
    25    17    16    2
    26    16    18    1
    27     3     2    1
    28    19    18   ar
    29    19    20   ar
    30     2     1    1
    31    18    23   ar
    32    20    21   ar
    33    23    22   ar
    34    21    22   ar
    35    22    24    1
    36    27    26   ar
    37    27    28   ar
    38    26    25   ar
    39    28    29   ar
    40    25    24    1
    41    25    30   ar
    42    24    31    1
    43    29    30   ar
    44    33    31    2
    45    31    32    1
    46    31    34    2
