@<TRIPOS>MOLECULE
2xfj_VG5_A_1.pdb
 41 44 0 0 0
SMALL
GASTEIGER

@<TRIPOS>ATOM
      1  C1        31.2150   -0.8160   37.2620 C.ar  500  VG5500      0.0596
      2  C2        31.1000    0.2670   36.4170 C.ar  500  VG5500      0.0199
      3  C3        30.4960    0.1200   35.1780 C.ar  500  VG5500      0.0576
      4  C4        29.9840   -1.1100   34.7910 C.ar  500  VG5500      0.0207
      5  C5        30.0820   -2.1960   35.6560 C.ar  500  VG5500      0.0667
      6  C6        30.7110   -2.0430   36.8970 C.ar  500  VG5500      0.0313
      7  C7        30.3960    1.3190   34.3130 C.2   500  VG5500      0.2649
      8  N8        29.1550    1.4690   33.7620 N.am  500  VG5500     -0.2004
      9  O9        31.3360    2.1030   34.1630 O.2   500  VG5500     -0.2684
     10  C10       28.9190    2.3760   32.6420 C.3   500  VG5500      0.1316
     11  C11       28.2150    1.6280   31.5050 C.3   500  VG5500      0.0507
     12  C12       28.1150    3.5750   33.1580 C.3   500  VG5500      0.1894
     13  O13       27.7510    4.4470   32.0750 O.3   500  VG5500     -0.2197
     14  C14       28.9390    0.3470   31.1690 C.ar  500  VG5500     -0.0204
     15  C15       28.9190    4.4620   34.1270 C.3   500  VG5500      0.1238
     16  N16       28.0690    5.5800   34.5670 N.3   500  VG5500     -0.2075
     17  C17       28.8320    6.7690   35.0310 C.3   500  VG5500      0.1505
     18  C18       29.8700    7.2150   34.0190 C.2   500  VG5500      0.2571
     19  N19       29.3280    7.9270   32.9840 N.am  500  VG5500     -0.2060
     20  O20       31.0720    6.9750   34.1130 O.2   500  VG5500     -0.2718
     21  C21       30.1690    8.3710   31.8710 C.3   500  VG5500      0.0954
     22  C22       29.4850    6.5020   36.3620 C.3   500  VG5500      0.0287
     23  C23       29.3720    8.3130   30.5880 C.3   500  VG5500      0.0217
     24  C24       30.1630    8.8230   29.3930 C.3   500  VG5500      0.0018
     25  C25       30.6930   10.2300   29.6380 C.3   500  VG5500      0.0001
     26  C26       31.4840   10.2850   30.9420 C.3   500  VG5500      0.0018
     27  C27       30.6330    9.8010   32.1120 C.3   500  VG5500      0.0217
     28  C56       30.3110    0.3300   30.9710 C.ar  500  VG5500     -0.0042
     29  C57       30.9290   -0.8780   30.6840 C.ar  500  VG5500     -0.0003
     30  C58       30.1950   -2.0490   30.5820 C.ar  500  VG5500     -0.0000
     31  C59       28.8290   -2.0250   30.7740 C.ar  500  VG5500     -0.0003
     32  C60       28.2110   -0.8230   31.0740 C.ar  500  VG5500     -0.0042
     33  N1        29.6100   -3.4890   35.3840 N.pl3 500  VG5500     -0.2376
     34  C67       29.0850   -3.6860   34.0370 C.3   500  VG5500      0.1123
     35  C68       27.5850   -3.7200   34.0980 C.3   500  VG5500      0.0251
     36  N77       31.8580   -0.6610   38.5110 N.am  500  VG5500     -0.2361
     37  C78       33.1370    0.0010   38.5710 C.2   500  VG5500      0.0680
     38  C79       33.5930   -0.2080   40.0040 C.2   500  VG5500     -0.0000
     39  C80       32.4720   -0.9060   40.7350 C.3   500  VG5500      0.1133
     40  C81       31.4020   -1.1390   39.7030 C.2   500  VG5500      0.2376
     41  O88       30.3180   -1.6550   39.9250 O.2   500  VG5500     -0.2738
@<TRIPOS>BOND
     1    24    25    1
     2    24    23    1
     3    25    26    1
     4    30    29   ar
     5    30    31   ar
     6    23    21    1
     7    29    28   ar
     8    31    32   ar
     9    26    27    1
    10    28    14   ar
    11    32    14   ar
    12    14    11    1
    13    11    10    1
    14    21    27    1
    15    21    19    1
    16    13    12    1
    17    10    12    1
    18    10     8    1
    19    19    18   am
    20    12    15    1
    21     8     7   am
    22    18    20    2
    23    18    17    1
    24    34    35    1
    25    34    33    1
    26    15    16    1
    27     9     7    2
    28     7     3    1
    29    16    17    1
    30     4     3   ar
    31     4     5   ar
    32    17    22    1
    33     3     2   ar
    34    33     5    1
    35     5     6   ar
    36     2     1   ar
    37     6     1   ar
    38     1    36    1
    39    36    37    1
    40    36    40   am
    41    37    38    2
    42    40    41    2
    43    40    39    1
    44    38    39    1
