@<TRIPOS>MOLECULE
2xfk_AA9_A_1.pdb
 46 49 0 0 0
SMALL
GASTEIGER

@<TRIPOS>ATOM
      1  C1        27.5630   -3.5650   34.1790 C.3   500  AA9500      0.0251
      2  C2        29.0610   -3.7920   34.0990 C.3   500  AA9500      0.1123
      3  N3        29.6140   -3.5750   35.4280 N.pl3 500  AA9500     -0.2376
      4  C4        30.0220   -2.2520   35.7330 C.ar  500  AA9500      0.0667
      5  C5        30.6320   -2.0560   36.9640 C.ar  500  AA9500      0.0326
      6  C6        31.0850   -0.8140   37.3490 C.ar  500  AA9500      0.0747
      7  C7        30.9370    0.2760   36.5180 C.ar  500  AA9500      0.0212
      8  C8        30.3320    0.0870   35.2900 C.ar  500  AA9500      0.0576
      9  C9        29.8860   -1.1610   34.8850 C.ar  500  AA9500      0.0207
     10  C10       30.1900    1.2500   34.4000 C.2   500  AA9500      0.2649
     11  O11       31.1230    2.0300   34.2560 O.2   500  AA9500     -0.2684
     12  N12       28.9870    1.3640   33.7580 N.am  500  AA9500     -0.2004
     13  C13       28.8060    2.3140   32.6780 C.3   500  AA9500      0.1316
     14  C14       28.1680    1.5970   31.4960 C.3   500  AA9500      0.0507
     15  C15       28.8370    0.2890   31.1760 C.ar  500  AA9500     -0.0204
     16  C16       30.2070    0.2350   30.9830 C.ar  500  AA9500     -0.0042
     17  C17       30.7950   -0.9860   30.6990 C.ar  500  AA9500     -0.0003
     18  C18       30.0390   -2.1370   30.6040 C.ar  500  AA9500     -0.0000
     19  C19       28.6780   -2.0860   30.7990 C.ar  500  AA9500     -0.0003
     20  C20       28.0800   -0.8700   31.0830 C.ar  500  AA9500     -0.0042
     21  C21       28.0030    3.5130   33.1880 C.3   500  AA9500      0.1894
     22  O22       27.6660    4.4140   32.1310 O.3   500  AA9500     -0.2197
     23  C23       28.7760    4.3690   34.1860 C.3   500  AA9500      0.1238
     24  N24       27.9320    5.5060   34.5710 N.3   500  AA9500     -0.2075
     25  C25       28.6770    6.6800   35.0680 C.3   500  AA9500      0.1505
     26  C26       29.3050    6.3930   36.4160 C.3   500  AA9500      0.0287
     27  C27       29.7100    7.1320   34.0590 C.2   500  AA9500      0.2571
     28  O28       30.9010    6.8360   34.1300 O.2   500  AA9500     -0.2718
     29  N29       29.1840    7.9150   33.0650 N.am  500  AA9500     -0.2060
     30  C30       30.0620    8.3430   31.9630 C.3   500  AA9500      0.0954
     31  C31       29.3110    8.1870   30.6640 C.3   500  AA9500      0.0217
     32  C32       30.1140    8.6680   29.4700 C.3   500  AA9500      0.0018
     33  C33       30.3660   10.1480   29.6630 C.3   500  AA9500      0.0001
     34  C34       31.1780   10.3720   30.9270 C.3   500  AA9500      0.0018
     35  C35       30.4750    9.7930   32.1570 C.3   500  AA9500      0.0217
     36  N36       31.7320   -0.6130   38.6070 N.pl3 500  AA9500     -0.1729
     37  C37       33.0590   -0.0680   38.5710 C.ar  500  AA9500      0.0733
     38  C38       33.2700    1.2070   39.0430 C.ar  500  AA9500      0.0165
     39  C39       34.5430    1.7380   39.0150 C.ar  500  AA9500      0.0013
     40  C40       35.5790    0.9900   38.5040 C.ar  500  AA9500      0.0001
     41  C41       35.3570   -0.2840   38.0210 C.ar  500  AA9500      0.0013
     42  C42       34.0820   -0.8290   38.0550 C.ar  500  AA9500      0.0165
     43  S43       31.2370   -1.3210   40.0560 S.O2  500  AA9500      0.0623
     44  C44       32.1890   -2.8120   40.1570 C.3   500  AA9500      0.2002
     45  O45       29.8380   -1.6560   39.8980 O.2   500  AA9500     -0.1539
     46  O46       31.6580   -0.4500   41.1410 O.2   500  AA9500     -0.1539
@<TRIPOS>BOND
     1    32    33    1
     2    32    31    1
     3    33    34    1
     4    18    17   ar
     5    18    19   ar
     6    31    30    1
     7    17    16   ar
     8    19    20   ar
     9    34    35    1
    10    16    15   ar
    11    20    15   ar
    12    15    14    1
    13    14    13    1
    14    30    35    1
    15    30    29    1
    16    22    21    1
    17    13    21    1
    18    13    12    1
    19    29    27   am
    20    21    23    1
    21    12    10   am
    22    27    28    2
    23    27    25    1
    24     2     1    1
    25     2     3    1
    26    23    24    1
    27    11    10    2
    28    10     8    1
    29    24    25    1
    30     9     8   ar
    31     9     4   ar
    32    25    26    1
    33     8     7   ar
    34     3     4    1
    35     4     5   ar
    36     7     6   ar
    37     5     6   ar
    38     6    36    1
    39    41    42   ar
    40    41    40   ar
    41    42    37   ar
    42    40    39   ar
    43    37    36    1
    44    37    38   ar
    45    36    43    1
    46    39    38   ar
    47    45    43    2
    48    43    44    1
    49    43    46    2
