@<TRIPOS>MOLECULE
2xfn_C15_A_1.pdb
 22 21 0 0 0
SMALL
GASTEIGER

@<TRIPOS>ATOM
      1  C1        29.3050  153.2360   42.7140 C.3   1502  C151502     0.1031
      2  C2        29.4120  154.7550   42.5310 C.3   1502  C151502    -0.0007
      3  C3        28.8320  155.2080   41.1910 C.3   1502  C151502    -0.0715
      4  C5        18.6820  161.5330   49.6090 C.3   1502  C151502     0.0000
      5  C6        20.1360  161.1190   49.7310 C.3   1502  C151502     0.0000
      6  C7        20.5580  160.2750   48.5280 C.3   1502  C151502     0.0000
      7  C8        22.0510  160.4190   48.2410 C.3   1502  C151502     0.0000
      8  N1        29.0560  156.6450   40.8810 N.4   1502  C151502     0.3871
      9  C1N       30.5040  156.9650   40.8900 C.3   1502  C151502    -0.0959
     10  C2N       28.5230  156.9000   39.5300 C.3   1502  C151502    -0.0959
     11  C9        22.6320  159.1020   47.7250 C.3   1502  C151502     0.0000
     12  C10       23.6160  159.3480   46.5920 C.3   1502  C151502     0.0000
     13  C11       23.4040  158.4280   45.3900 C.3   1502  C151502    -0.0000
     14  C12       24.7480  157.8680   44.9290 C.3   1502  C151502    -0.0000
     15  C13       24.8770  157.8870   43.4120 C.3   1502  C151502    -0.0001
     16  C14       26.2700  158.3350   42.9570 C.3   1502  C151502    -0.0021
     17  C15       26.8840  157.2960   42.0050 C.3   1502  C151502    -0.0223
     18  C16       28.3830  157.5680   41.8400 C.3   1502  C151502    -0.0732
     19  S1        29.0300  152.8860   44.3310 S.3   1502  C151502    -0.1961
     20  O1S       28.9340  151.4090   44.5180 O.3   1502  C151502    -0.3075
     21  O2S       27.7460  153.5220   44.7140 O.3   1502  C151502    -0.3075
     22  O3S       30.1560  153.4290   45.1390 O.3   1502  C151502    -0.3075
@<TRIPOS>BOND
     1    10     8    1
     2     8     9    1
     3     8     3    1
     4     8    18    1
     5     3     2    1
     6    18    17    1
     7    17    16    1
     8     2     1    1
     9     1    19    1
    10    16    15    1
    11    15    14    1
    12    19    20    1
    13    19    21    1
    14    19    22    1
    15    14    13    1
    16    13    12    1
    17    12    11    1
    18    11     7    1
    19     7     6    1
    20     6     5    1
    21     4     5    1
