@<TRIPOS>MOLECULE
2xfn_XCG_A_1.pdb
 14 16 0 0 0
SMALL
GASTEIGER

@<TRIPOS>ATOM
      1  CAE       50.0990  160.3380   32.2540 C.ar  1501  XCG1501     0.0510
      2  CAM       48.9810  159.9790   31.6510 C.ar  1501  XCG1501     0.0383
      3  CAC       47.6970  159.7660   32.1150 C.ar  1501  XCG1501     0.0032
      4  CAA       46.7100  159.3550   31.2250 C.ar  1501  XCG1501     0.0002
      5  CAB       46.9940  159.1770   29.8770 C.ar  1501  XCG1501     0.0031
      6  CAD       48.2790  159.4000   29.3990 C.ar  1501  XCG1501     0.0375
      7  CAN       49.2640  159.7820   30.2950 C.ar  1501  XCG1501     0.1463
      8  OAJ       50.5920  160.0490   30.1100 O.2   1501  XCG1501    -0.4436
      9  CAL       51.0710  160.3940   31.3260 C.ar  1501  XCG1501     0.2067
     10  CAK       52.4200  160.7160   31.4230 C.1   1501  XCG1501     0.0713
     11  NAH       53.0700  160.8540   32.5780 N.2   1501  XCG1501    -0.1881
     12  CAF       54.4430  161.1780   32.3420 C.2   1501  XCG1501     0.1311
     13  CAG       54.6000  161.1940   30.8320 C.2   1501  XCG1501     0.1311
     14  NAI       53.2370  160.9070   30.3620 N.2   1501  XCG1501    -0.1881
@<TRIPOS>BOND
     1     6     5   ar
     2     6     7   ar
     3     5     4   ar
     4     8     7   ar
     5     8     9   ar
     6     7     2   ar
     7    14    13    1
     8    14    10    2
     9    13    12    2
    10     4     3   ar
    11     9    10    1
    12     9     1   ar
    13    10    11    2
    14     2     3   ar
    15     2     1   ar
    16    12    11    1
