@<TRIPOS>MOLECULE
2xfo_XCG_A_1.pdb
 14 16 0 0 0
SMALL
GASTEIGER

@<TRIPOS>ATOM
      1  CAE       49.8370  159.7170   32.1400 C.ar  1504  XCG1504     0.0510
      2  CAM       48.6220  159.3840   31.6890 C.ar  1504  XCG1504     0.0383
      3  CAC       47.4120  159.1710   32.3510 C.ar  1504  XCG1504     0.0032
      4  CAA       46.2970  158.8240   31.6100 C.ar  1504  XCG1504     0.0002
      5  CAB       46.3810  158.7050   30.2290 C.ar  1504  XCG1504     0.0031
      6  CAD       47.5870  158.9120   29.5610 C.ar  1504  XCG1504     0.0375
      7  CAN       48.7140  159.2580   30.3050 C.ar  1504  XCG1504     0.1463
      8  OAJ       50.0110  159.5320   29.9530 O.2   1504  XCG1504    -0.4436
      9  CAL       50.6960  159.8080   31.1170 C.ar  1504  XCG1504     0.2067
     10  CAK       52.0630  160.1410   31.1630 C.1   1504  XCG1504     0.0713
     11  NAH       52.7520  160.3730   32.3070 N.2   1504  XCG1504    -0.1881
     12  CAF       54.1390  160.7340   32.0220 C.2   1504  XCG1504     0.1311
     13  CAG       54.2070  160.7030   30.4860 C.2   1504  XCG1504     0.1311
     14  NAI       52.8500  160.3310   30.0770 N.2   1504  XCG1504    -0.1881
@<TRIPOS>BOND
     1     6     5   ar
     2     6     7   ar
     3     8     7   ar
     4     8     9   ar
     5    14    13    1
     6    14    10    2
     7     5     4   ar
     8     7     2   ar
     9    13    12    2
    10     9    10    1
    11     9     1   ar
    12    10    11    2
    13     4     3   ar
    14     2     1   ar
    15     2     3   ar
    16    12    11    1
