@<TRIPOS>MOLECULE
2xfo_3PL_A_1.pdb
 10 10 0 0 0
SMALL
GASTEIGER

@<TRIPOS>ATOM
      1  C         52.4440  148.6410   25.1020 C.2   1503  3PL1503     0.2077
      2  O         51.7930  147.8520   25.8000 O.2   1503  3PL1503    -0.2883
      3  CA        53.6210  148.1160   24.2440 C.3   1503  3PL1503     0.0769
      4  CB        54.4140  149.1930   23.4640 C.3   1503  3PL1503     0.0346
      5  CG        54.2850  150.6170   24.0710 C.ar  1503  3PL1503    -0.0217
      6  CD1       55.1650  151.0600   25.0720 C.ar  1503  3PL1503    -0.0043
      7  CE1       55.0470  152.3550   25.5710 C.ar  1503  3PL1503    -0.0003
      8  CZ        54.0560  153.2160   25.0680 C.ar  1503  3PL1503    -0.0000
      9  CE2       53.1820  152.7770   24.0720 C.ar  1503  3PL1503    -0.0003
     10  CD2       53.3070  151.4820   23.5680 C.ar  1503  3PL1503    -0.0043
@<TRIPOS>BOND
     1     4     5    1
     2     4     3    1
     3    10     5   ar
     4    10     9   ar
     5     5     6   ar
     6     9     8   ar
     7     3     1    1
     8     8     7   ar
     9     6     7   ar
    10     1     2    2
