@<TRIPOS>MOLECULE
2xfp_XCG_A_1.pdb
 14 16 0 0 0
SMALL
GASTEIGER

@<TRIPOS>ATOM
      1  CAE       49.9610  160.5410   32.2460 C.ar  602  XCG602      0.0510
      2  CAM       48.7970  160.1440   31.5690 C.ar  602  XCG602      0.0383
      3  CAC       47.5160  159.9350   32.0610 C.ar  602  XCG602      0.0032
      4  CAA       46.5780  159.5630   31.1110 C.ar  602  XCG602      0.0002
      5  CAB       46.8470  159.3950   29.7130 C.ar  602  XCG602      0.0031
      6  CAD       48.1270  159.6060   29.2000 C.ar  602  XCG602      0.0375
      7  CAN       49.0690  159.9710   30.2070 C.ar  602  XCG602      0.1463
      8  OAJ       50.4080  160.2810   30.0770 O.2   602  XCG602     -0.4436
      9  CAL       50.9190  160.6080   31.2930 C.ar  602  XCG602      0.2067
     10  CAK       52.2720  160.9150   31.4520 C.1   602  XCG602      0.0713
     11  NAH       52.8100  161.1630   32.6580 N.2   602  XCG602     -0.1881
     12  CAF       54.2130  161.5100   32.5200 C.2   602  XCG602      0.1311
     13  CAG       54.4660  161.3320   31.0110 C.2   602  XCG602      0.1311
     14  NAI       53.1560  161.0520   30.4470 N.2   602  XCG602     -0.1881
@<TRIPOS>BOND
     1     6     5   ar
     2     6     7   ar
     3     5     4   ar
     4     8     7   ar
     5     8     9   ar
     6     7     2   ar
     7    14    13    1
     8    14    10    2
     9    13    12    2
    10     4     3   ar
    11     9    10    1
    12     9     1   ar
    13    10    11    2
    14     2     3   ar
    15     2     1   ar
    16    12    11    1
