@<TRIPOS>MOLECULE
2xfp_C15_A_1.pdb
 22 21 0 0 0
SMALL
GASTEIGER

@<TRIPOS>ATOM
      1  C1        29.1570  153.3000   42.6850 C.3   1503  C151503     0.1031
      2  C2        29.1650  154.8420   42.5290 C.3   1503  C151503    -0.0007
      3  C3        28.7140  155.2940   41.1280 C.3   1503  C151503    -0.0715
      4  C5        19.3790  161.6170   50.9130 C.3   1503  C151503     0.0000
      5  C6        20.6690  160.9890   50.4070 C.3   1503  C151503     0.0000
      6  C7        20.6610  160.7870   48.8870 C.3   1503  C151503     0.0000
      7  C8        22.0810  160.6340   48.3270 C.3   1503  C151503     0.0000
      8  N1        28.9940  156.7460   40.8820 N.4   1503  C151503     0.3871
      9  C1N       30.4520  157.0860   41.0310 C.3   1503  C151503    -0.0959
     10  C2N       28.5060  156.9760   39.4970 C.3   1503  C151503    -0.0959
     11  C9        22.2400  159.2950   47.6060 C.3   1503  C151503     0.0000
     12  C10       23.6200  159.1410   46.9960 C.3   1503  C151503     0.0000
     13  C11       23.5260  158.7130   45.5300 C.3   1503  C151503    -0.0000
     14  C12       24.8650  158.1250   45.1130 C.3   1503  C151503    -0.0000
     15  C13       24.9190  157.8160   43.6260 C.3   1503  C151503    -0.0001
     16  C14       26.1340  158.4870   42.9640 C.3   1503  C151503    -0.0021
     17  C15       26.7460  157.4300   41.9980 C.3   1503  C151503    -0.0223
     18  C16       28.2710  157.6410   41.8590 C.3   1503  C151503    -0.0732
     19  S1        28.9690  152.8990   44.3150 S.3   1503  C151503    -0.1961
     20  O1S       29.0470  151.4150   44.4530 O.3   1503  C151503    -0.3075
     21  O2S       27.6150  153.4510   44.6560 O.3   1503  C151503    -0.3075
     22  O3S       30.0380  153.5140   45.1450 O.3   1503  C151503    -0.3075
@<TRIPOS>BOND
     1    10     8    1
     2     8     9    1
     3     8     3    1
     4     8    18    1
     5     3     2    1
     6    18    17    1
     7    17    16    1
     8     2     1    1
     9     1    19    1
    10    16    15    1
    11    15    14    1
    12    19    20    1
    13    19    21    1
    14    19    22    1
    15    14    13    1
    16    13    12    1
    17    12    11    1
    18    11     7    1
    19     7     6    1
    20     6     5    1
    21     5     4    1
