@<TRIPOS>MOLECULE
2xfp_ISN_A_1.pdb
 11 12 0 0 0
SMALL
GASTEIGER

@<TRIPOS>ATOM
      1  C1        52.8780  154.3930   25.7100 C.3   601  ISN601      0.1496
      2  C2        52.2850  154.9920   26.8590 C.2   601  ISN601     -0.0108
      3  C3        51.6830  154.0970   27.7130 C.2   601  ISN601     -0.0036
      4  C4        51.6810  152.7240   27.4750 C.2   601  ISN601      0.0020
      5  C5        52.3010  152.1530   26.3850 C.2   601  ISN601      0.0293
      6  N1        53.5150  152.6580   24.3110 N.2   601  ISN601     -0.3343
      7  C6        52.8700  153.0020   25.4710 C.2   601  ISN601      0.1339
      8  C7        53.5660  154.9070   24.6310 C.2   601  ISN601      0.2763
      9  C10       53.9440  153.8310   23.7940 C.1   601  ISN601      0.2409
     10  O8        53.7750  156.1120   24.4550 O.2   601  ISN601     -0.2769
     11  O11       54.6050  153.9580   22.7570 O.2   601  ISN601     -0.2063
@<TRIPOS>BOND
     1    11     9    2
     2     9     6    2
     3     9     8    1
     4     6     7    2
     5    10     8    2
     6     8     1    1
     7     7     1    1
     8     7     5    1
     9     1     2    1
    10     5     4    2
    11     2     3    2
    12     4     3    1
