@<TRIPOS>MOLECULE
2xfq_XCG_A_1.pdb
 14 16 0 0 0
SMALL
GASTEIGER

@<TRIPOS>ATOM
      1  CAE       50.2910  161.3660   32.4820 C.ar  602  XCG602      0.0510
      2  CAM       49.1260  160.9230   31.9810 C.ar  602  XCG602      0.0383
      3  CAC       47.8490  160.7740   32.5440 C.ar  602  XCG602      0.0032
      4  CAA       46.7990  160.2960   31.7530 C.ar  602  XCG602      0.0002
      5  CAB       47.0350  159.9480   30.4160 C.ar  602  XCG602      0.0031
      6  CAD       48.3020  160.1060   29.8610 C.ar  602  XCG602      0.0375
      7  CAN       49.3380  160.6090   30.6370 C.ar  602  XCG602      0.1463
      8  OAJ       50.6470  160.8730   30.3810 O.2   602  XCG602     -0.4436
      9  CAL       51.2200  161.3540   31.5280 C.ar  602  XCG602      0.2067
     10  CAK       52.5670  161.7040   31.6290 C.1   602  XCG602      0.0713
     11  NAH       53.1970  162.0750   32.7810 N.2   602  XCG602     -0.1881
     12  CAF       54.6420  162.2510   32.5800 C.2   602  XCG602      0.1311
     13  CAG       54.7910  161.9930   31.0700 C.2   602  XCG602      0.1311
     14  NAI       53.4140  161.6650   30.6100 N.2   602  XCG602     -0.1881
@<TRIPOS>BOND
     1     6     5   ar
     2     6     7   ar
     3     8     7   ar
     4     8     9   ar
     5     5     4   ar
     6    14    13    1
     7    14    10    2
     8     7     2   ar
     9    13    12    2
    10     9    10    1
    11     9     1   ar
    12    10    11    2
    13     4     3   ar
    14     2     1   ar
    15     2     3   ar
    16    12    11    1
