@<TRIPOS>MOLECULE
2xfq_RAS_A_1.pdb
 13 14 0 0 0
SMALL
GASTEIGER

@<TRIPOS>ATOM
      1  N10       53.8550  154.1690   24.8980 N.pl3 601  RAS601     -0.2340
      2  C11       53.5520  153.4300   23.9360 C.2   601  RAS601      0.0758
      3  C12       54.5400  152.5420   23.4020 C.2   601  RAS601     -0.0084
      4  C13       54.2930  151.9910   22.2350 C.3   601  RAS601      0.0321
      5  C9        52.7700  155.0110   25.3410 C.3   601  RAS601      0.1147
      6  C1        53.2910  156.4470   25.4030 C.3   601  RAS601      0.0307
      7  C2        52.7640  157.0140   26.7310 C.3   601  RAS601      0.0282
      8  C3        52.1940  155.7970   27.4810 C.ar  601  RAS601     -0.0245
      9  C8        52.2370  154.6780   26.6960 C.ar  601  RAS601     -0.0066
     10  C7        51.7690  153.4660   27.1660 C.ar  601  RAS601     -0.0029
     11  C4        51.6550  155.7510   28.7740 C.ar  601  RAS601     -0.0045
     12  C5        51.1760  154.5270   29.2710 C.ar  601  RAS601     -0.0003
     13  C6        51.2260  153.3940   28.4680 C.ar  601  RAS601     -0.0003
@<TRIPOS>BOND
     1     4     3    1
     2     3     2    2
     3     2     1    1
     4     1     5    1
     5     5     6    1
     6     5     9    1
     7     6     7    1
     8     9    10   ar
     9     9     8   ar
    10     7     8    1
    11    10    13   ar
    12     8    11   ar
    13    13    12   ar
    14    11    12   ar
