@<TRIPOS>MOLECULE
2xfq_C15_A_1.pdb
 22 21 0 0 0
SMALL
GASTEIGER

@<TRIPOS>ATOM
      1  C1        29.1960  153.8680   42.7340 C.3   1503  C151503     0.1031
      2  C2        29.3210  155.3820   42.4640 C.3   1503  C151503    -0.0007
      3  C3        28.8100  155.8220   41.0750 C.3   1503  C151503    -0.0715
      4  C5        19.4070  162.1790   50.4880 C.3   1503  C151503     0.0000
      5  C6        20.7870  161.6800   50.0950 C.3   1503  C151503     0.0000
      6  C7        20.7890  161.0460   48.6970 C.3   1503  C151503     0.0000
      7  C8        22.1850  161.0340   48.0690 C.3   1503  C151503     0.0000
      8  N1        29.0420  157.2760   40.7880 N.4   1503  C151503     0.3871
      9  C1N       30.4770  157.6100   40.8260 C.3   1503  C151503    -0.0959
     10  C2N       28.5010  157.5780   39.4420 C.3   1503  C151503    -0.0959
     11  C9        22.5790  159.6170   47.6480 C.3   1503  C151503     0.0000
     12  C10       23.6340  159.6520   46.5470 C.3   1503  C151503     0.0000
     13  C11       23.4470  158.5920   45.4580 C.3   1503  C151503    -0.0000
     14  C12       24.8190  158.2510   44.8820 C.3   1503  C151503    -0.0000
     15  C13       24.8780  158.3910   43.3740 C.3   1503  C151503    -0.0001
     16  C14       26.2640  158.8790   42.9700 C.3   1503  C151503    -0.0021
     17  C15       26.8830  157.9430   41.9310 C.3   1503  C151503    -0.0223
     18  C16       28.3910  158.1760   41.7920 C.3   1503  C151503    -0.0732
     19  S1        29.0090  153.4600   44.3660 S.3   1503  C151503    -0.1961
     20  O1S       28.9570  151.9690   44.4960 O.3   1503  C151503    -0.3075
     21  O2S       27.7230  154.0410   44.8650 O.3   1503  C151503    -0.3075
     22  O3S       30.1550  153.9420   45.1830 O.3   1503  C151503    -0.3075
@<TRIPOS>BOND
     1    10     8    1
     2     8     9    1
     3     8     3    1
     4     8    18    1
     5     3     2    1
     6    18    17    1
     7    17    16    1
     8     2     1    1
     9     1    19    1
    10    16    15    1
    11    15    14    1
    12    19    20    1
    13    19    21    1
    14    19    22    1
    15    14    13    1
    16    13    12    1
    17    12    11    1
    18    11     7    1
    19     7     6    1
    20     6     5    1
    21     5     4    1
