@<TRIPOS>MOLECULE
2xfs_J01_A_1.pdb
 14 15 0 0 0
SMALL
GASTEIGER

@<TRIPOS>ATOM
      1  O2         9.8020    7.2350   73.1000 O.2   500  J01500     -0.2746
      2  C5         8.7760    6.5850   72.9770 C.2   500  J01500      0.2343
      3  C4         8.4980    5.2770   72.2850 C.3   500  J01500      0.1508
      4  C3         7.2160    5.3710   73.1340 C.3   500  J01500      0.2559
      5  N1         7.4960    6.7810   73.5420 N.am  500  J01500     -0.2317
      6  O1         7.3160    4.5580   74.3120 O.2   500  J01500     -0.4621
      7  C1         7.4480    5.4420   75.4480 C.2   500  J01500      0.1456
      8  C2         7.4110    6.8680   75.0040 C.3   500  J01500      0.2385
      9  C8         6.0800    7.4780   75.3560 C.2   500  J01500      0.3900
     10  O5         5.8650    7.6930   76.5630 O.co2 500  J01500     -0.2433
     11  O4         5.2480    7.7480   74.4500 O.co2 500  J01500     -0.2433
     12  C6         7.5330    5.0450   76.7430 C.2   500  J01500      0.0438
     13  C7         7.5590    3.5680   77.1410 C.3   500  J01500      0.2112
     14  O3         6.5690    3.2840   78.1510 O.3   500  J01500     -0.2151
@<TRIPOS>BOND
     1     3     2    1
     2     3     4    1
     3     2     1    2
     4     2     5   am
     5     4     5    1
     6     4     6    1
     7     5     8    1
     8     6     7    1
     9    11     9   ar
    10     8     9    1
    11     8     7    1
    12     9    10   ar
    13     7    12    2
    14    12    13    1
    15    13    14    1
