@<TRIPOS>MOLECULE
2xfu_3PL_A_1.pdb
 10 10 0 0 0
SMALL
GASTEIGER

@<TRIPOS>ATOM
      1  C         52.5950  149.1350   25.3640 C.2   601  3PL601      0.2343
      2  O         51.7300  148.3830   25.8370 O.2   601  3PL601     -0.2831
      3  CA        53.5770  148.6660   24.2770 C.2   601  3PL601      0.0454
      4  CB        54.5200  149.7590   23.6610 C.2   601  3PL601      0.0034
      5  CG        54.3430  151.1880   24.2440 C.ar  601  3PL601      0.0001
      6  CD1       55.1810  151.6450   25.2650 C.ar  601  3PL601      0.0000
      7  CE1       55.0360  152.9450   25.7700 C.ar  601  3PL601      0.0000
      8  CZ        54.0510  153.7930   25.2460 C.ar  601  3PL601      0.0000
      9  CE2       53.2190  153.3410   24.2250 C.ar  601  3PL601      0.0000
     10  CD2       53.3750  152.0490   23.7220 C.ar  601  3PL601      0.0000
@<TRIPOS>BOND
     1     4     5    1
     2     4     3    2
     3    10     9   ar
     4    10     5   ar
     5     9     8   ar
     6     5     6   ar
     7     3     1    1
     8     8     7   ar
     9     6     7   ar
    10     1     2    2
