@<TRIPOS>MOLECULE
2xg3_GAL_A_1.pdb
 10 10 0 0 0
SMALL
GASTEIGER

@<TRIPOS>ATOM
      1  C1       -20.1870    8.8450   -1.3780 C.3   1254  GAL1254     0.1750
      2  C2       -18.7150    9.2800   -1.2880 C.3   1254  GAL1254     0.1840
      3  O2       -18.5120   10.3090   -2.2490 O.3   1254  GAL1254    -0.2204
      4  C3       -17.8080    8.1200   -1.6310 C.3   1254  GAL1254     0.0710
      5  C4       -18.1200    6.9310   -0.7500 C.3   1254  GAL1254     0.1841
      6  O4       -17.7430    7.2510    0.5980 O.3   1254  GAL1254    -0.2204
      7  C5       -19.6000    6.6270   -0.8210 C.3   1254  GAL1254     0.1784
      8  O5       -20.3790    7.7640   -0.4820 O.3   1254  GAL1254    -0.3483
      9  C6       -19.9620    5.4710    0.1270 C.3   1254  GAL1254     0.2140
     10  O6       -21.3790    5.2750   -0.0710 O.3   1254  GAL1254    -0.2176
@<TRIPOS>BOND
     1     3     2    1
     2     4     2    1
     3     4     5    1
     4     1     2    1
     5     1     8    1
     6     7     5    1
     7     7     8    1
     8     7     9    1
     9     5     6    1
    10    10     9    1
