@<TRIPOS>MOLECULE
2xg4_XC2_A_1.pdb
 34 39 0 0 0
SMALL
GASTEIGER

@<TRIPOS>ATOM
      1  S6         5.3880    6.4110  -12.3800 S.3   1218  XC21218    -0.0944
      2  C5         4.7490    7.5150  -13.6240 C.3   1218  XC21218     0.0978
      3  N10        3.2140    5.6220  -13.4130 N.ar  1218  XC21218    -0.2815
      4  C6         4.0480    5.3840  -12.3090 C.ar  1218  XC21218     0.0847
      5  C7         3.7150    4.3860  -11.2660 C.ar  1218  XC21218    -0.0044
      6  C8         2.4390    3.6390  -11.4620 C.ar  1218  XC21218    -0.0180
      7  C9         1.5710    3.8980  -12.6660 C.ar  1218  XC21218     0.0462
      8  C10        2.0740    4.9420  -13.6100 C.ar  1218  XC21218     0.2586
      9  O25        1.4250    5.2130  -14.6260 O.2   1218  XC21218    -0.2673
     10  C26        0.2440    3.1860  -12.9700 C.3   1218  XC21218     0.1037
     11  N5        -0.8920    3.7620  -13.3820 N.3   1218  XC21218    -0.2645
     12  C1        -1.2860    3.7710  -14.7940 C.3   1218  XC21218     0.1049
     13  C2        -2.7930    3.6910  -14.8870 C.3   1218  XC21218     0.1595
     14  O3        -3.3070    4.6890  -14.0350 O.3   1218  XC21218    -0.3508
     15  C34       -3.1270    4.4160  -12.6580 C.3   1218  XC21218     0.1595
     16  C4        -1.6500    4.4280  -12.3360 C.3   1218  XC21218     0.1049
     17  C24        2.1230    2.6470  -10.3780 C.3   1218  XC21218     0.0522
     18  C15        1.2390    3.2640   -9.3160 C.ar  1218  XC21218    -0.0178
     19  C20        0.6500    4.5210   -9.4540 C.ar  1218  XC21218    -0.0039
     20  C19       -0.1800    5.0180   -8.4540 C.ar  1218  XC21218    -0.0003
     21  C18       -0.4520    4.2560   -7.3200 C.ar  1218  XC21218    -0.0000
     22  C17        0.1350    2.9870   -7.1870 C.ar  1218  XC21218    -0.0003
     23  C21       -0.1250    2.1780   -6.0830 C.ar  1218  XC21218    -0.0000
     24  C27        0.4880    0.9090   -5.9780 C.ar  1218  XC21218    -0.0000
     25  C28        1.3240    0.4200   -6.9760 C.ar  1218  XC21218    -0.0000
     26  C29        1.5460    1.2300   -8.0770 C.ar  1218  XC21218    -0.0003
     27  C16        0.9780    2.4950   -8.1840 C.ar  1218  XC21218    -0.0036
     28  C22        4.5410    4.1330  -10.0270 C.3   1218  XC21218     0.0240
     29  C31        5.9620    4.6250  -10.2230 C.3   1218  XC21218     0.0047
     30  C11        3.7010    6.6750  -14.3710 C.3   1218  XC21218     0.2029
     31  C30        5.6660    3.1340  -10.2240 C.3   1218  XC21218     0.0047
     32  C23        4.3180    5.8230  -15.4470 C.2   1218  XC21218     0.3860
     33  O33        4.3770    6.4220  -16.5220 O.co2 1218  XC21218    -0.2435
     34  O32        4.7600    4.6610  -15.3350 O.co2 1218  XC21218    -0.2435
@<TRIPOS>BOND
     1    33    32   ar
     2    32    34   ar
     3    32    30    1
     4    13    12    1
     5    13    14    1
     6    12    11    1
     7     9     8    2
     8    30     2    1
     9    30     3    1
    10    14    15    1
    11     2     1    1
    12     8     3   ar
    13     8     7   ar
    14     3     4   ar
    15    11    10    1
    16    11    16    1
    17    10     7    1
    18     7     6   ar
    19    15    16    1
    20     1     4    1
    21     4     5   ar
    22     6     5   ar
    23     6    17    1
    24     5    28    1
    25    17    18    1
    26    31    29    1
    27    31    28    1
    28    29    28    1
    29    19    18   ar
    30    19    20   ar
    31    18    27   ar
    32    20    21   ar
    33    27    26   ar
    34    27    22   ar
    35    26    25   ar
    36    21    22   ar
    37    22    23   ar
    38    25    24   ar
    39    23    24   ar
