@<TRIPOS>MOLECULE
2xg5_EC5_A_1.pdb
 34 38 0 0 0
SMALL
GASTEIGER

@<TRIPOS>ATOM
      1  O26      -50.3770   -5.2910   14.8320 O.2   1220  EC51220    -0.2670
      2  C26      -49.6840   -5.0910   13.8090 C.ar  1220  EC51220     0.2615
      3  N27      -48.6610   -6.0440   13.5910 N.ar  1220  EC51220    -0.2790
      4  C28      -48.5490   -7.2370   14.4980 C.3   1220  EC51220     0.1961
      5  C29      -48.1240   -8.5000   13.6370 C.3   1220  EC51220     0.0607
      6  C6       -49.2380   -9.3300   12.9660 C.ar  1220  EC51220    -0.0197
      7  C5       -49.0870  -10.7360   12.8800 C.ar  1220  EC51220    -0.0042
      8  C4       -50.0950  -11.5320   12.3060 C.ar  1220  EC51220    -0.0003
      9  C3       -51.2330  -10.9300   11.7940 C.ar  1220  EC51220    -0.0000
     10  C2       -51.4270   -9.5030   11.8510 C.ar  1220  EC51220    -0.0003
     11  C1       -50.4200   -8.7050   12.4470 C.ar  1220  EC51220    -0.0042
     12  C21      -47.5850   -7.1000   15.6090 C.2   1220  EC51220     0.3854
     13  O23      -47.1700   -8.2180   16.1090 O.co2 1220  EC51220    -0.2436
     14  O22      -47.2410   -5.9370   15.9490 O.co2 1220  EC51220    -0.2436
     15  C25      -49.9100   -4.0240   12.9070 C.ar  1220  EC51220     0.0566
     16  C24      -49.1170   -3.8700   11.7590 C.ar  1220  EC51220    -0.0150
     17  C23      -47.9830   -4.7870   11.5110 C.ar  1220  EC51220    -0.0009
     18  C18      -47.1440   -4.7080   10.2500 C.3   1220  EC51220     0.0241
     19  C20      -45.6510   -4.8600   10.4120 C.3   1220  EC51220     0.0047
     20  C19      -46.2500   -3.5120   10.0930 C.3   1220  EC51220     0.0047
     21  C22      -47.8540   -5.8970   12.4680 C.ar  1220  EC51220     0.1281
     22  S30      -46.6590   -7.0650   12.2870 S.3   1220  EC51220     0.1662
     23  O56      -45.5290   -6.2840   13.2390 O.2   1220  EC51220    -0.2365
     24  C17      -49.4200   -2.7170   10.7820 C.3   1220  EC51220     0.0525
     25  C16      -50.2810   -3.2800    9.5990 C.ar  1220  EC51220    -0.0178
     26  C7       -50.9230   -4.5350    9.6860 C.ar  1220  EC51220    -0.0039
     27  C8       -51.7150   -5.0220    8.6350 C.ar  1220  EC51220    -0.0003
     28  C9       -51.8960   -4.2430    7.4990 C.ar  1220  EC51220    -0.0000
     29  C10      -51.3070   -2.9990    7.4190 C.ar  1220  EC51220    -0.0003
     30  C15      -50.5100   -2.5290    8.4540 C.ar  1220  EC51220    -0.0036
     31  C11      -51.5150   -2.2250    6.2510 C.ar  1220  EC51220    -0.0000
     32  C12      -50.9170   -0.9450    6.1430 C.ar  1220  EC51220    -0.0000
     33  C13      -50.1190   -0.4660    7.1900 C.ar  1220  EC51220    -0.0000
     34  C14      -49.9560   -1.2370    8.3530 C.ar  1220  EC51220    -0.0003
@<TRIPOS>BOND
     1    32    31   ar
     2    32    33   ar
     3    31    29   ar
     4    33    34   ar
     5    29    28   ar
     6    29    30   ar
     7    28    27   ar
     8    34    30   ar
     9    30    25   ar
    10    27    26   ar
    11    25    26   ar
    12    25    24    1
    13    20    18    1
    14    20    19    1
    15    18    19    1
    16    18    17    1
    17    24    16    1
    18    17    16   ar
    19    17    21   ar
    20    16    15   ar
    21     9    10   ar
    22     9     8   ar
    23    10    11   ar
    24    22    21    1
    25    22    23    2
    26     8     7   ar
    27    11     6   ar
    28    21     3   ar
    29     7     6   ar
    30    15     2   ar
    31     6     5    1
    32     3     2   ar
    33     3     4    1
    34     5     4    1
    35     2     1    2
    36     4    12    1
    37    12    14   ar
    38    12    13   ar
