@<TRIPOS>MOLECULE
2xg5_EC2_A_1.pdb
 33 38 0 0 0
SMALL
GASTEIGER

@<TRIPOS>ATOM
      1  O23      -48.2110   -8.1180   16.2520 O.co2 1219  EC21219    -0.2435
      2  C21      -47.8980   -7.4720   15.2200 C.2   1219  EC21219     0.3863
      3  O22      -46.9220   -6.6710   15.0750 O.co2 1219  EC21219    -0.2435
      4  C28      -48.7730   -7.6810   14.0370 C.3   1219  EC21219     0.2061
      5  C29      -48.1670   -8.7610   13.1140 C.3   1219  EC21219     0.1073
      6  C6       -49.2340   -9.6000   12.5250 C.ar  1219  EC21219    -0.0097
      7  C5       -49.2840  -10.9660   12.7860 C.ar  1219  EC21219    -0.0034
      8  C4       -50.3030  -11.7440   12.2340 C.ar  1219  EC21219    -0.0003
      9  C3       -51.2590  -11.1500   11.4170 C.ar  1219  EC21219    -0.0000
     10  C2       -51.2200   -9.7750   11.1370 C.ar  1219  EC21219    -0.0003
     11  C1       -50.2000   -8.9980   11.7030 C.ar  1219  EC21219    -0.0034
     12  S30      -47.4540   -7.9020   11.7750 S.3   1219  EC21219    -0.0908
     13  N27      -48.8550   -6.4130   13.2960 N.ar  1219  EC21219    -0.2811
     14  C26      -49.5400   -5.2620   13.7610 C.ar  1219  EC21219     0.2614
     15  O26      -50.1050   -5.3160   14.8790 O.2   1219  EC21219    -0.2670
     16  C22      -48.1950   -6.4100   12.0720 C.ar  1219  EC21219     0.0850
     17  C23      -48.2090   -5.1930   11.2190 C.ar  1219  EC21219    -0.0042
     18  C18      -47.5180   -5.1350    9.9020 C.3   1219  EC21219     0.0240
     19  C20      -46.0220   -5.0350   10.1940 C.3   1219  EC21219     0.0047
     20  C19      -46.7760   -3.8170    9.6830 C.3   1219  EC21219     0.0047
     21  C24      -48.9480   -4.0190   11.7410 C.ar  1219  EC21219    -0.0152
     22  C25      -49.5880   -4.0930   12.9830 C.ar  1219  EC21219     0.0566
     23  C17      -49.0370   -2.7810   10.8680 C.3   1219  EC21219     0.0525
     24  C16      -50.0380   -3.1730    9.7670 C.ar  1219  EC21219    -0.0178
     25  C7       -50.8210   -4.3280    9.9010 C.ar  1219  EC21219    -0.0039
     26  C8       -51.7370   -4.7090    8.9160 C.ar  1219  EC21219    -0.0003
     27  C9       -51.8800   -3.9320    7.7730 C.ar  1219  EC21219    -0.0000
     28  C10      -51.1200   -2.7750    7.6350 C.ar  1219  EC21219    -0.0003
     29  C15      -50.2060   -2.4030    8.6160 C.ar  1219  EC21219    -0.0036
     30  C11      -51.2740   -1.9930    6.4880 C.ar  1219  EC21219    -0.0000
     31  C12      -50.5160   -0.8340    6.3160 C.ar  1219  EC21219    -0.0000
     32  C13      -49.6040   -0.4600    7.2980 C.ar  1219  EC21219    -0.0000
     33  C14      -49.4560   -1.2360    8.4500 C.ar  1219  EC21219    -0.0003
@<TRIPOS>BOND
     1    31    30   ar
     2    31    32   ar
     3    30    28   ar
     4    32    33   ar
     5    28    27   ar
     6    28    29   ar
     7    27    26   ar
     8    33    29   ar
     9    29    24   ar
    10    26    25   ar
    11    20    18    1
    12    20    19    1
    13    24    25   ar
    14    24    23    1
    15    18    19    1
    16    18    17    1
    17    23    21    1
    18    10     9   ar
    19    10    11   ar
    20    17    21   ar
    21    17    16   ar
    22     9     8   ar
    23    11     6   ar
    24    21    22   ar
    25    12    16    1
    26    12     5    1
    27    16    13   ar
    28     8     7   ar
    29     6     7   ar
    30     6     5    1
    31    22    14   ar
    32     5     4    1
    33    13    14   ar
    34    13     4    1
    35    14    15    2
    36     4     2    1
    37     3     2   ar
    38     2     1   ar
