@<TRIPOS>MOLECULE
2xg9_GLC_A_1.pdb
 11 11 0 0 0
SMALL
GASTEIGER

@<TRIPOS>ATOM
      1  C1        14.2230    7.7230   27.8750 C.3   1491  GLC1491     0.1777
      2  C2        12.7600    7.3240   28.2040 C.3   1491  GLC1491     0.2141
      3  C3        11.9160    8.5410   28.5890 C.3   1491  GLC1491     0.2173
      4  C4        12.6090    9.2730   29.7380 C.3   1491  GLC1491     0.2142
      5  C5        14.0800    9.5920   29.4010 C.3   1491  GLC1491     0.1810
      6  C6        14.8790   10.2640   30.5180 C.3   1491  GLC1491     0.2141
      7  O2        12.1580    6.6560   27.0930 O.3   1491  GLC1491    -0.2176
      8  O3        10.5740    8.1100   28.8690 O.3   1491  GLC1491    -0.2175
      9  O4        11.9070   10.5180   30.0290 O.3   1491  GLC1491    -0.2176
     10  O5        14.7940    8.4030   29.0160 O.3   1491  GLC1491    -0.3481
     11  O6        14.9650    9.3900   31.6210 O.3   1491  GLC1491    -0.2176
@<TRIPOS>BOND
     1     7     2    1
     2     1     2    1
     3     1    10    1
     4     2     3    1
     5     3     8    1
     6     3     4    1
     7    10     5    1
     8     5     4    1
     9     5     6    1
    10     4     9    1
    11     6    11    1
