@<TRIPOS>MOLECULE
2xg9_NOJ_A_1.pdb
 11 11 0 0 0
SMALL
GASTEIGER

@<TRIPOS>ATOM
      1  C1        16.7820    9.6370   23.5230 C.3   1490  NOJ1490     0.1243
      2  C2        17.0050    8.2380   24.1040 C.3   1490  NOJ1490     0.2020
      3  O2        17.3360    7.3350   23.0140 O.3   1490  NOJ1490    -0.2188
      4  C3        15.7660    7.8210   24.9400 C.3   1490  NOJ1490     0.2151
      5  O3        15.9080    6.5190   25.5240 O.3   1490  NOJ1490    -0.2176
      6  C4        15.4580    8.8600   26.0510 C.3   1490  NOJ1490     0.2031
      7  O4        14.2070    8.5330   26.6820 O.3   1490  NOJ1490    -0.2187
      8  C5        15.3330   10.2580   25.4170 C.3   1490  NOJ1490     0.1386
      9  N5        16.5240   10.5300   24.6290 N.3   1490  NOJ1490    -0.2113
     10  C6        15.0490   11.3960   26.4210 C.3   1490  NOJ1490     0.2020
     11  O6        16.1060   11.4780   27.3690 O.3   1490  NOJ1490    -0.2188
@<TRIPOS>BOND
     1     3     2    1
     2     1     2    1
     3     1     9    1
     4     2     4    1
     5     9     8    1
     6     4     5    1
     7     4     6    1
     8     8     6    1
     9     8    10    1
    10     6     7    1
    11    10    11    1
