@<TRIPOS>MOLECULE
2xga_MTN_A_1.pdb
 12 12 0 0 0
SMALL
GASTEIGER

@<TRIPOS>ATOM
      1  O1        34.1740   35.4770   -8.2710 O.3   1019  MTN1019    -0.1175
      2  N1        33.2900   35.1520   -9.0850 N.4   1019  MTN1019    -0.1311
      3  C1        32.1440   34.3000   -8.7230 C.3   1019  MTN1019     0.0909
      4  C2        31.4930   34.1340  -10.0730 C.2   1019  MTN1019    -0.0160
      5  C3        32.1140   34.8340  -11.0290 C.2   1019  MTN1019    -0.0205
      6  C4        31.6650   34.8370  -12.4710 C.3   1019  MTN1019     0.0917
      7  S1        30.6510   36.2370  -12.8380 S.3   1019  MTN1019    -0.0773
      8  C5        33.3060   35.5880  -10.4890 C.3   1019  MTN1019     0.0886
      9  C6        33.1090   37.0970  -10.5740 C.3   1019  MTN1019     0.0227
     10  C7        34.5840   35.1510  -11.1990 C.3   1019  MTN1019     0.0227
     11  C8        32.6100   32.9620   -8.1560 C.3   1019  MTN1019     0.0230
     12  C9        31.2210   35.0490   -7.7680 C.3   1019  MTN1019     0.0230
@<TRIPOS>BOND
     1     7     6    1
     2     6     5    1
     3    10     8    1
     4     5     8    1
     5     5     4    2
     6     9     8    1
     7     8     2    1
     8     4     3    1
     9     2     3    1
    10     2     1    1
    11     3    11    1
    12     3    12    1
