@<TRIPOS>MOLECULE
2xgb_EPG_A_1.pdb
 16 16 0 0 0
SMALL
GASTEIGER

@<TRIPOS>ATOM
      1  C1        14.0420    7.8920   27.5400 C.3   1500  EPG1500     0.2695
      2  O1        13.8870    8.7980   26.4510 O.3   1500  EPG1500    -0.3258
      3  C2        12.6490    7.3630   27.9050 C.3   1500  EPG1500     0.2406
      4  O2        12.1050    6.7080   26.7600 O.3   1500  EPG1500    -0.2149
      5  C3        11.7710    8.4970   28.3910 C.3   1500  EPG1500     0.2198
      6  O3        10.4970    8.0020   28.7610 O.3   1500  EPG1500    -0.2174
      7  C4        12.4180    9.1850   29.5650 C.3   1500  EPG1500     0.2144
      8  O4        11.6110   10.3210   29.8870 O.3   1500  EPG1500    -0.2176
      9  C5        13.8380    9.6310   29.1900 C.3   1500  EPG1500     0.1835
     10  O5        14.6050    8.5170   28.6990 O.3   1500  EPG1500    -0.3256
     11  C6        14.6110   10.1590   30.4060 C.3   1500  EPG1500     0.2142
     12  O6        14.7410    9.1890   31.4330 O.3   1500  EPG1500    -0.2176
     13  C7        15.0890    9.4850   26.0180 C.3   1500  EPG1500     0.1775
     14  C8        15.2550    9.3440   24.5070 C.3   1500  EPG1500     0.1816
     15  C9        14.0320    9.7120   23.6960 C.3   1500  EPG1500     0.0382
     16  O8        16.3260   10.2150   24.0920 O.3   1500  EPG1500    -0.2204
@<TRIPOS>BOND
     1    15    14    1
     2    16    14    1
     3    14    13    1
     4    13     2    1
     5     2     1    1
     6     4     3    1
     7     1     3    1
     8     1    10    1
     9     3     5    1
    10     5     6    1
    11     5     7    1
    12    10     9    1
    13     9     7    1
    14     9    11    1
    15     7     8    1
    16    11    12    1
