@<TRIPOS>MOLECULE
2xgi_EBG_A_1.pdb
 17 17 0 0 0
SMALL
GASTEIGER

@<TRIPOS>ATOM
      1  C1        14.1240    7.1190   28.1430 C.3   1500  EBG1500     0.2695
      2  O1        14.2530    7.8120   26.8950 O.3   1500  EBG1500    -0.3285
      3  C2        12.6460    6.8800   28.4630 C.3   1500  EBG1500     0.2406
      4  O2        11.9540    6.1570   27.4250 O.3   1500  EBG1500    -0.2149
      5  C3        11.9580    8.2290   28.7040 C.3   1500  EBG1500     0.2198
      6  O3        10.5860    8.0020   28.9820 O.3   1500  EBG1500    -0.2174
      7  C4        12.6300    8.9780   29.8460 C.3   1500  EBG1500     0.2144
      8  O4        11.9970   10.2640   30.0380 O.3   1500  EBG1500    -0.2176
      9  C5        14.1170    9.1410   29.5010 C.3   1500  EBG1500     0.1835
     10  O5        14.7150    7.8560   29.2230 O.3   1500  EBG1500    -0.3256
     11  C6        14.9340    9.8060   30.5890 C.3   1500  EBG1500     0.2142
     12  O6        14.9560    8.9870   31.7570 O.3   1500  EBG1500    -0.2176
     13  C7        15.6050    8.1890   26.5540 C.3   1500  EBG1500     0.1475
     14  C8        15.7100    8.7610   25.1510 C.3   1500  EBG1500     0.0650
     15  C9        15.9380   10.2590   24.9380 C.3   1500  EBG1500     0.1546
     16  C10       15.0590   10.6980   23.7880 C.3   1500  EBG1500     0.0356
     17  O9        15.8800   10.9760   26.1960 O.3   1500  EBG1500    -0.2231
@<TRIPOS>BOND
     1    16    15    1
     2    15    14    1
     3    15    17    1
     4    14    13    1
     5    13     2    1
     6     2     1    1
     7     4     3    1
     8     1     3    1
     9     1    10    1
    10     3     5    1
    11     5     6    1
    12     5     7    1
    13    10     9    1
    14     9     7    1
    15     9    11    1
    16     7     8    1
    17    11    12    1
