@<TRIPOS>MOLECULE
2xgi_EBQ_A_1.pdb
 17 17 0 0 0
SMALL
GASTEIGER

@<TRIPOS>ATOM
      1  O17       15.3770   10.2110   25.5260 O.3   1501  EBQ1501    -0.2231
      2  C9        14.4240    9.4620   24.8010 C.3   1501  EBQ1501     0.1546
      3  C8        14.9980    8.0580   24.6430 C.3   1501  EBQ1501     0.0650
      4  C7        15.2330    7.5730   26.0690 C.3   1501  EBQ1501     0.1475
      5  O1        14.0610    8.0090   26.7510 O.3   1501  EBQ1501    -0.3285
      6  C1        13.8850    7.3290   27.9730 C.3   1501  EBQ1501     0.2695
      7  C2        12.3930    7.1470   28.1570 C.3   1501  EBQ1501     0.2406
      8  O2        11.9130    6.6030   26.9350 O.3   1501  EBQ1501    -0.2149
      9  C3        11.6940    8.4700   28.4430 C.3   1501  EBQ1501     0.2198
     10  O3        10.3130    8.2570   28.7460 O.3   1501  EBQ1501    -0.2174
     11  C4        12.3740    9.1910   29.5920 C.3   1501  EBQ1501     0.2144
     12  O4        11.7070   10.4530   29.7790 O.3   1501  EBQ1501    -0.2176
     13  C5        13.8590    9.3690   29.2420 C.3   1501  EBQ1501     0.1835
     14  O5        14.4830    8.0980   29.0040 O.3   1501  EBQ1501    -0.3256
     15  C6        14.6600   10.0650   30.3270 C.3   1501  EBQ1501     0.2142
     16  O6        14.7070    9.2470   31.4920 O.3   1501  EBQ1501    -0.2176
     17  C16       14.0750   10.2630   23.5350 C.3   1501  EBQ1501     0.0356
@<TRIPOS>BOND
     1    17     2    1
     2     3     2    1
     3     3     4    1
     4     2     1    1
     5     4     5    1
     6     5     6    1
     7     8     7    1
     8     6     7    1
     9     6    14    1
    10     7     9    1
    11     9    10    1
    12     9    11    1
    13    14    13    1
    14    13    11    1
    15    13    15    1
    16    11    12    1
    17    15    16    1
