@<TRIPOS>MOLECULE
2xgj_ADP_A_1.pdb
 27 29 0 0 0
SMALL
GASTEIGER

@<TRIPOS>ATOM
      1  PB       -11.8060  -41.9760   25.1940 P.3   2074  ADP2074     0.5373
      2  O1B      -12.5670  -42.8450   24.2220 O.2   2074  ADP2074    -0.2221
      3  O2B      -10.4520  -42.5160   25.5800 O.3   2074  ADP2074    -0.1143
      4  O3B      -11.7840  -40.5100   24.8360 O.3   2074  ADP2074    -0.1143
      5  PA       -12.2480  -42.9780   27.7810 P.3   2074  ADP2074     0.2231
      6  O1A      -11.7020  -42.0830   28.8690 O.3   2074  ADP2074    -0.4370
      7  O2A      -11.3920  -44.0920   27.2300 O.2   2074  ADP2074    -0.5169
      8  O3A      -12.6740  -42.0230   26.5550 O.3   2074  ADP2074    -0.2261
      9  O5'      -13.6200  -43.6260   28.3190 O.3   2074  ADP2074    -0.3111
     10  C5'      -14.7340  -42.8200   28.6950 C.3   2074  ADP2074     0.1813
     11  C4'      -15.2910  -43.4070   29.9850 C.3   2074  ADP2074     0.1821
     12  O4'      -16.0470  -44.5870   29.7040 O.3   2074  ADP2074    -0.3135
     13  C3'      -14.1550  -43.8050   30.9150 C.3   2074  ADP2074     0.2184
     14  O3'      -14.3400  -43.1880   32.1930 O.3   2074  ADP2074    -0.2174
     15  C2'      -14.2400  -45.3130   31.0510 C.3   2074  ADP2074     0.2570
     16  O2'      -14.0710  -45.7120   32.4140 O.3   2074  ADP2074    -0.2130
     17  C1'      -15.6300  -45.6640   30.5460 C.3   2074  ADP2074     0.3186
     18  N9       -15.6130  -46.9320   29.7750 N.pl3 2074  ADP2074    -0.1439
     19  C8       -14.6900  -47.2920   28.8640 C.3   2074  ADP2074     0.3377
     20  N7       -14.9690  -48.5150   28.3450 N.2   2074  ADP2074    -0.2095
     21  C5       -16.0950  -48.9580   28.9320 C.2   2074  ADP2074     0.2526
     22  C6       -16.9400  -50.1720   28.8460 C.2   2074  ADP2074     0.4393
     23  N6       -16.6240  -51.1840   28.0030 N.pl3 2074  ADP2074     0.2180
     24  N1       -18.0340  -50.2350   29.6380 N.2   2074  ADP2074     0.0021
     25  C2       -18.3570  -49.2350   30.4790 C.3   2074  ADP2074     0.5254
     26  N3       -17.6370  -48.1060   30.6090 N.2   2074  ADP2074    -0.0055
     27  C4       -16.5120  -47.9120   29.8780 C.2   2074  ADP2074     0.3518
@<TRIPOS>BOND
     1     2     1    2
     2     4     1    1
     3     1     3    1
     4     1     8    1
     5     8     5    1
     6     7     5    2
     7     5     9    1
     8     5     6    1
     9    23    22    1
    10     9    10    1
    11    20    19    1
    12    20    21    2
    13    10    11    1
    14    22    21    1
    15    22    24    2
    16    19    18    1
    17    21    27    1
    18    24    25    1
    19    12    11    1
    20    12    17    1
    21    18    27    1
    22    18    17    1
    23    27    26    2
    24    11    13    1
    25    25    26    1
    26    17    15    1
    27    13    15    1
    28    13    14    1
    29    15    16    1
