@<TRIPOS>MOLECULE
2xgm_LXN_A_1.pdb
 10 10 0 0 0
SMALL
GASTEIGER

@<TRIPOS>ATOM
      1  OAB       29.9550    6.9320    0.8720 O.2   1569  LXN1569    -0.2044
      2  CAH       29.9010    7.2700    2.0580 C.1   1569  LXN1569     0.2696
      3  CAJ       29.7800    6.3430    3.1030 C.2   1569  LXN1569     0.3826
      4  OAD       29.7210    5.1410    2.8830 O.2   1569  LXN1569    -0.2587
      5  CAI       29.7300    6.7710    4.4220 C.1   1569  LXN1569     0.2696
      6  OAC       29.6400    5.9570    5.3470 O.2   1569  LXN1569    -0.2044
      7  NAF       29.7990    8.1450    4.7090 N.2   1569  LXN1569    -0.2282
      8  CAG       29.9170    9.0710    3.6610 C.1   1569  LXN1569     0.3759
      9  OAA       29.9800   10.2720    3.8950 O.2   1569  LXN1569    -0.1737
     10  NAE       29.9670    8.6360    2.3480 N.2   1569  LXN1569    -0.2282
@<TRIPOS>BOND
     1     1     2    2
     2     2    10    2
     3     2     3    1
     4    10     8    2
     5     4     3    2
     6     3     5    1
     7     8     9    2
     8     8     7    2
     9     5     7    2
    10     5     6    2
