@<TRIPOS>MOLECULE
2xgo_ZKD_A_1.pdb
 39 41 0 0 0
SMALL
GASTEIGER

@<TRIPOS>ATOM
      1  N1        29.9140    7.6450    2.3300 N.am  1569  ZKD1569    -0.1766
      2  C2        30.2570    7.9330    3.6880 C.1   1569  ZKD1569     0.2845
      3  O2        30.1560    9.0870    4.1180 O.2   1569  ZKD1569    -0.1918
      4  N3        30.7370    6.8920    4.5400 N.2   1569  ZKD1569    -0.2452
      5  C4        30.8590    5.5740    4.0460 C.1   1569  ZKD1569     0.2182
      6  O4        31.2470    4.6730    4.7880 O.2   1569  ZKD1569    -0.2085
      7  C5        30.5010    5.3020    2.7190 C.2   1569  ZKD1569     0.1242
      8  C6        30.0270    6.3140    1.8590 C.2   1569  ZKD1569     0.0929
      9  PA        27.7290    8.1820   -4.2840 P.3   1569  ZKD1569     0.2215
     10  PB        25.1080    7.1960   -4.4690 P.3   1569  ZKD1569     0.4264
     11  C1'       24.1740    6.0830   -1.4280 C.3   1569  ZKD1569     0.2093
     12  O1A       28.0550    6.7210   -4.2910 O.3   1569  ZKD1569    -0.4371
     13  C1B       29.4000    8.7490    1.4570 C.3   1569  ZKD1569     0.2401
     14  O1B       23.7790    7.8050   -4.7040 O.3   1569  ZKD1569    -0.1310
     15  N2'       21.7760    6.1130   -2.3520 N.am  1569  ZKD1569    -0.1820
     16  O2'       30.9730   10.5030    0.8580 O.3   1569  ZKD1569    -0.2157
     17  C2'       22.8860    6.7550   -1.8670 C.2   1569  ZKD1569     0.0993
     18  O2A       28.6030    9.1720   -4.9830 O.2   1569  ZKD1569    -0.5170
     19  C2B       30.2030    9.4480    0.3480 C.3   1569  ZKD1569     0.2319
     20  O2B       25.5290    5.9990   -5.2550 O.2   1569  ZKD1569    -0.2431
     21  C3'       22.9650    8.2690   -1.6070 C.3   1569  ZKD1569     0.2211
     22  O3'       21.8570    8.9610   -2.1520 O.3   1569  ZKD1569    -0.2143
     23  O3A       26.2050    8.3290   -4.8100 O.3   1569  ZKD1569    -0.2412
     24  C3B       29.0300   10.1170   -0.3300 C.3   1569  ZKD1569     0.2158
     25  O3B       28.4270   11.1030    0.5370 O.3   1569  ZKD1569    -0.2175
     26  C4'       23.0110    8.3730   -0.0760 C.3   1569  ZKD1569     0.2170
     27  O4'       22.8490    9.7020    0.4110 O.3   1569  ZKD1569    -0.2173
     28  C4B       28.0520    8.9650   -0.4580 C.3   1569  ZKD1569     0.1799
     29  O4B       28.2520    8.1950    0.7490 O.3   1569  ZKD1569    -0.3320
     30  C5'       24.3080    7.7140    0.4620 C.3   1569  ZKD1569     0.1826
     31  O5'       24.4750    6.3180   -0.0150 O.3   1569  ZKD1569    -0.3368
     32  C5B       28.4720    8.2820   -1.7480 C.3   1569  ZKD1569     0.1813
     33  O5B       27.5680    8.6740   -2.7680 O.3   1569  ZKD1569    -0.3111
     34  C6'       24.3470    7.7410    2.0160 C.3   1569  ZKD1569     0.2142
     35  O6'       24.4780    9.1100    2.4950 O.3   1569  ZKD1569    -0.2176
     36  C7'       21.5290    4.8050   -2.6020 C.2   1569  ZKD1569     0.2456
     37  O7'       20.4690    4.4130   -3.0780 O.2   1569  ZKD1569    -0.2730
     38  C8'       22.5980    3.7540   -2.3030 C.3   1569  ZKD1569     0.0968
     39  S1'       25.5530    6.8970   -2.3010 S.3   1569  ZKD1569     0.0061
@<TRIPOS>BOND
     1    20    10    2
     2    18     9    2
     3    23    10    1
     4    23     9    1
     5    14    10    1
     6    10    39    1
     7    12     9    1
     8     9    33    1
     9    37    36    2
    10    33    32    1
    11    36    15    1
    12    36    38    1
    13    15    17    2
    14    39    11    1
    15    22    21    1
    16    17    21    1
    17    17    11    1
    18    32    28    1
    19    21    26    1
    20    11    31    1
    21    28    24    1
    22    28    29    1
    23    24    19    1
    24    24    25    1
    25    26    27    1
    26    26    30    1
    27    31    30    1
    28    19    16    1
    29    19    13    1
    30    30    34    1
    31    29    13    1
    32    13     1    1
    33     8     1    1
    34     8     7    2
    35    34    35    1
    36     1     2   am
    37     7     5    1
    38     2     3    2
    39     2     4    2
    40     5     4    2
    41     5     6    2
