@<TRIPOS>MOLECULE
2xgs_44P_A_1.pdb
 25 26 0 0 0
SMALL
GASTEIGER

@<TRIPOS>ATOM
      1  N1       -12.2290    7.0840    3.0980 N.am  1569  44P1569    -0.1766
      2  C2       -11.8360    7.4620    4.4410 C.1   1569  44P1569     0.2845
      3  O2       -11.9050    8.6030    4.8900 O.2   1569  44P1569    -0.1918
      4  N3       -11.3410    6.4940    5.3290 N.2   1569  44P1569    -0.2452
      5  C4       -11.2020    5.1570    4.9700 C.1   1569  44P1569     0.2182
      6  O4       -10.7710    4.3470    5.8090 O.2   1569  44P1569    -0.2085
      7  C5       -11.5870    4.7720    3.6930 C.2   1569  44P1569     0.1242
      8  C6       -12.0960    5.6980    2.7660 C.2   1569  44P1569     0.0929
      9  PA       -15.8780    6.2150   -2.6770 P.3   1569  44P1569     0.3770
     10  PB       -15.3400    7.7040   -5.2700 P.3   1569  44P1569     0.1295
     11  C1'      -12.8070    8.0440    2.0760 C.3   1569  44P1569     0.2401
     12  O1A      -17.2470    6.0300   -2.1270 O.3   1569  44P1569    -0.1394
     13  O1B      -16.2510    8.8950   -5.9680 O.3   1569  44P1569    -0.3567
     14  C2'      -12.0090    8.7960    0.9500 C.3   1569  44P1569     0.2319
     15  O2'      -11.2520    9.9420    1.3850 O.3   1569  44P1569    -0.2157
     16  O2A      -15.2260    5.1130   -3.4310 O.2   1569  44P1569    -0.2550
     17  O2B      -15.7050    6.2780   -6.0320 O.2   1569  44P1569    -0.4595
     18  C3'      -13.1560    9.2540    0.0580 C.3   1569  44P1569     0.2158
     19  O3'      -13.9070   10.3050    0.6640 O.3   1569  44P1569    -0.2175
     20  C3A      -15.9010    7.7490   -3.5600 C.3   1569  44P1569     0.1765
     21  O3B      -13.8870    7.9750   -5.3490 O.3   1569  44P1569    -0.3567
     22  C4'      -14.0710    8.0200    0.0390 C.3   1569  44P1569     0.1800
     23  O4'      -13.7810    7.2460    1.2550 O.3   1569  44P1569    -0.3320
     24  C5'      -13.8570    7.2210   -1.2420 C.3   1569  44P1569     0.1836
     25  O5'      -14.9850    6.4260   -1.3750 O.3   1569  44P1569    -0.2897
@<TRIPOS>BOND
     1    17    10    2
     2    13    10    1
     3    21    10    1
     4    10    20    1
     5    20     9    1
     6    16     9    2
     7     9    12    1
     8     9    25    1
     9    25    24    1
    10    24    22    1
    11    22    18    1
    12    22    23    1
    13    18    19    1
    14    18    14    1
    15    14    15    1
    16    14    11    1
    17    23    11    1
    18    11     1    1
    19     8     1    1
    20     8     7    2
    21     1     2   am
    22     7     5    1
    23     2     3    2
    24     2     4    2
    25     5     4    2
    26     5     6    2
