@<TRIPOS>MOLECULE
2xgx_AKG_A_1.pdb
 10 9 0 0 0
SMALL
GASTEIGER

@<TRIPOS>ATOM
      1  C1        -8.9890   -8.8810   -7.1100 C.2   519  AKG519      0.4219
      2  O1       -10.0230   -8.4320   -6.5880 O.co2 519  AKG519     -0.2373
      3  O2        -8.6290  -10.0760   -7.1020 O.co2 519  AKG519     -0.2373
      4  C2        -8.1100   -7.8710   -7.7900 C.2   519  AKG519      0.2526
      5  O5        -8.4460   -6.6880   -7.7810 O.2   519  AKG519     -0.2843
      6  C3        -6.8030   -8.3250   -8.3950 C.3   519  AKG519      0.0881
      7  C4        -5.7330   -7.4470   -7.7430 C.3   519  AKG519      0.1224
      8  C5        -5.4320   -6.3130   -8.7020 C.2   519  AKG519      0.3653
      9  O3        -5.6520   -5.1450   -8.3030 O.co2 519  AKG519     -0.2456
     10  O4        -5.0110   -6.6620   -9.8340 O.co2 519  AKG519     -0.2456
@<TRIPOS>BOND
     1    10     8   ar
     2     8     9   ar
     3     8     7    1
     4     6     4    1
     5     6     7    1
     6     4     5    2
     7     4     1    1
     8     1     3   ar
     9     1     2   ar
