@<TRIPOS>MOLECULE
2xgz_PEP_A_1.pdb
 10 9 0 0 0
SMALL
GASTEIGER

@<TRIPOS>ATOM
      1  C1         8.9400   20.7930  -13.4910 C.2   1440  PEP1440     0.4216
      2  O1         9.1840   19.6040  -13.2040 O.co2 1440  PEP1440    -0.2371
      3  O2'        9.6100   21.4580  -14.3250 O.co2 1440  PEP1440    -0.2371
      4  C2         7.7980   21.4640  -12.8090 C.2   1440  PEP1440     0.2283
      5  C3         7.3240   20.9950  -11.6360 C.2   1440  PEP1440     0.0477
      6  O2         7.4160   22.7460  -13.3130 O.2   1440  PEP1440    -0.3930
      7  P          6.2370   22.9840  -14.3520 P.3   1440  PEP1440     0.5889
      8  O1P        6.2030   24.4750  -14.4960 O.3   1440  PEP1440    -0.1039
      9  O2P        5.0140   22.4190  -13.6850 O.3   1440  PEP1440    -0.1039
     10  O3P        6.5860   22.2230  -15.5950 O.2   1440  PEP1440    -0.2114
@<TRIPOS>BOND
     1    10     7    2
     2     8     7    1
     3     7     9    1
     4     7     6    1
     5     3     1   ar
     6     1     2   ar
     7     1     4    1
     8     6     4    1
     9     4     5    2
