@<TRIPOS>MOLECULE
2xh0_PEP_A_1.pdb
 10 9 0 0 0
SMALL
GASTEIGER

@<TRIPOS>ATOM
      1  C1        -9.9460    3.9820  -29.6890 C.2   1440  PEP1440     0.4216
      2  C2       -10.7620    4.5500  -30.8100 C.2   1440  PEP1440     0.2283
      3  C3       -10.1760    5.1460  -31.8980 C.2   1440  PEP1440     0.0477
      4  P        -13.3740    4.7870  -30.4900 P.3   1440  PEP1440     0.5889
      5  O1        -8.7620    4.3700  -29.5470 O.co2 1440  PEP1440    -0.2371
      6  O2'      -10.4850    3.1300  -28.9350 O.co2 1440  PEP1440    -0.2371
      7  O2       -12.0520    4.0060  -30.9610 O.2   1440  PEP1440    -0.3930
      8  O1P      -14.4030    3.7570  -30.8800 O.3   1440  PEP1440    -0.1039
      9  O2P      -13.4020    6.0820  -31.2180 O.2   1440  PEP1440    -0.2114
     10  O3P      -13.2320    4.9250  -28.9950 O.3   1440  PEP1440    -0.1039
@<TRIPOS>BOND
     1     3     2    2
     2     9     4    2
     3     7     2    1
     4     7     4    1
     5     8     4    1
     6     2     1    1
     7     4    10    1
     8     1     5   ar
     9     1     6   ar
