@<TRIPOS>MOLECULE
2xh1_BF5_A_1.pdb
 26 29 0 0 0
SMALL
GASTEIGER

@<TRIPOS>ATOM
      1  O3        27.5810   55.2930   21.7840 O.co2 1426  BF51426    -0.2404
      2  C17       27.4640   54.6140   20.7170 C.2   1426  BF51426     0.3923
      3  O4        28.2240   53.6690   20.4760 O.co2 1426  BF51426    -0.2404
      4  C11       26.3990   54.9340   19.6980 C.ar  1426  BF51426     0.1357
      5  C12       25.7590   56.2700   19.6800 C.ar  1426  BF51426     0.2050
      6  O2        26.0800   57.1740   20.5050 O.2   1426  BF51426    -0.2862
      7  C8        24.7150   56.5170   18.6300 C.ar  1426  BF51426     0.0603
      8  C4        24.0750   57.7290   18.5680 C.ar  1426  BF51426     0.0358
      9  C10       25.9820   54.0110   18.7340 C.ar  1426  BF51426     0.0859
     10  N2        25.0320   54.2650   17.7980 N.ar  1426  BF51426    -0.3215
     11  C6        24.6600   53.2130   16.8340 C.3   1426  BF51426     0.1292
     12  C7        23.5340   52.3690   17.4380 C.3   1426  BF51426     0.0284
     13  C5        24.1760   53.8620   15.5420 C.3   1426  BF51426     0.2278
     14  O1        23.0910   54.7550   15.8590 O.3   1426  BF51426    -0.4707
     15  C9        24.3760   55.5230   17.7160 C.ar  1426  BF51426     0.0988
     16  C3        23.3840   55.7700   16.7360 C.ar  1426  BF51426     0.1697
     17  C2        22.7310   57.0110   16.6570 C.ar  1426  BF51426     0.1116
     18  C1        23.1030   57.9690   17.6000 C.ar  1426  BF51426     0.1565
     19  F1        22.5610   59.1790   17.6650 F     1426  BF51426    -0.2028
     20  N1        21.7200   57.2290   15.6630 N.pl3 1426  BF51426    -0.3004
     21  C13       20.6020   56.2690   15.9040 C.3   1426  BF51426     0.1098
     22  C14       19.3070   56.5260   15.1410 C.3   1426  BF51426     0.1130
     23  N3        18.9770   57.9690   15.0860 N.3   1426  BF51426    -0.1831
     24  C15       20.1200   58.7670   14.6070 C.3   1426  BF51426     0.1130
     25  C16       21.2860   58.6370   15.5720 C.3   1426  BF51426     0.1098
     26  N4        17.9300   58.1460   14.1520 N.3   1426  BF51426    -0.0373
@<TRIPOS>BOND
     1    26    23    1
     2    24    23    1
     3    24    25    1
     4    23    22    1
     5    22    21    1
     6    13    14    1
     7    13    11    1
     8    25    20    1
     9    20    21    1
    10    20    17    1
    11    14    16    1
    12    17    16   ar
    13    17    18   ar
    14    16    15   ar
    15    11    12    1
    16    11    10    1
    17    18    19    1
    18    18     8   ar
    19    15    10   ar
    20    15     7   ar
    21    10     9   ar
    22     8     7   ar
    23     7     5   ar
    24     9     4   ar
    25     5     4   ar
    26     5     6    2
    27     4     2    1
    28     3     2   ar
    29     2     1   ar
