@<TRIPOS>MOLECULE
2xh1_PLP_A_1.pdb
 15 15 0 0 0
SMALL
GASTEIGER

@<TRIPOS>ATOM
      1  C4A       16.5880   58.1480   14.6270 C.3   1427  PLP1427     0.0342
      2  C4        15.5520   58.0650   13.5430 C.ar  1427  PLP1427     0.0182
      3  C3        15.4300   59.1530   12.6740 C.ar  1427  PLP1427     0.2049
      4  O3        16.2400   60.2360   12.7710 O.3   1427  PLP1427    -0.2857
      5  C2        14.4580   59.1320   11.6870 C.ar  1427  PLP1427     0.0978
      6  C2A       14.3180   60.3060   10.7530 C.3   1427  PLP1427     0.0555
      7  N1        13.6420   58.0570   11.5740 N.ar  1427  PLP1427    -0.2452
      8  C6        13.7310   57.0250   12.4180 C.ar  1427  PLP1427     0.0965
      9  C5        14.6850   56.9690   13.4300 C.ar  1427  PLP1427     0.0261
     10  C5A       14.7040   55.6840   14.3120 C.3   1427  PLP1427     0.1815
     11  O4P       14.8710   55.8180   15.7420 O.3   1427  PLP1427    -0.2653
     12  P         14.4780   54.7330   16.8660 P.3   1427  PLP1427     0.5329
     13  O1P       14.6620   53.3950   16.2060 O.2   1427  PLP1427    -0.2224
     14  O2P       15.4370   55.0920   17.9790 O.3   1427  PLP1427    -0.1145
     15  O3P       13.0270   54.9330   17.2280 O.3   1427  PLP1427    -0.1145
@<TRIPOS>BOND
     1     6     5    1
     2     7     5   ar
     3     7     8   ar
     4     5     3   ar
     5     8     9   ar
     6     3     4    1
     7     3     2   ar
     8     9     2   ar
     9     9    10    1
    10     2     1    1
    11    10    11    1
    12    11    12    1
    13    13    12    2
    14    12    15    1
    15    12    14    1
