@<TRIPOS>MOLECULE
2xh2_2PG_A_1.pdb
 11 10 0 0 0
SMALL
GASTEIGER

@<TRIPOS>ATOM
      1  C1        36.8350    7.8320   48.8770 C.2   1440  2PG1440     0.3946
      2  C2        36.3980    6.6300   49.6660 C.3   1440  2PG1440     0.2610
      3  C3        35.0510    6.8590   50.3680 C.3   1440  2PG1440     0.2237
      4  P         37.5480    4.3320   49.0310 P.3   1440  2PG1440     0.5331
      5  O1        36.9250    8.9270   49.4670 O.co2 1440  2PG1440    -0.2428
      6  O2        37.1540    7.7330   47.6650 O.co2 1440  2PG1440    -0.2428
      7  O3        34.0380    7.2310   49.4370 O.3   1440  2PG1440    -0.2170
      8  O1P       36.3890    5.4520   48.8400 O.3   1440  2PG1440    -0.2583
      9  O2P       38.8760    4.9950   48.7220 O.3   1440  2PG1440    -0.1145
     10  O3P       37.4170    3.9170   50.4760 O.3   1440  2PG1440    -0.1145
     11  O4P       37.1960    3.2030   48.0860 O.2   1440  2PG1440    -0.2224
@<TRIPOS>BOND
     1     6     1   ar
     2    11     4    2
     3     9     4    1
     4     8     4    1
     5     8     2    1
     6     1     5   ar
     7     1     2    1
     8     4    10    1
     9     7     3    1
    10     2     3    1
