@<TRIPOS>MOLECULE
2xh4_2PG_A_1.pdb
 11 10 0 0 0
SMALL
GASTEIGER

@<TRIPOS>ATOM
      1  C1         9.1930    7.7060   31.0960 C.2   1440  2PG1440     0.3946
      2  C2         9.5070    6.7420   32.2120 C.3   1440  2PG1440     0.2610
      3  C3         8.9470    5.4050   31.7020 C.3   1440  2PG1440     0.2237
      4  P         11.2740    7.3550   34.1850 P.3   1440  2PG1440     0.5331
      5  O1         9.9810    8.7030   30.8900 O.co2 1440  2PG1440    -0.2428
      6  O2         8.1290    7.3950   30.5620 O.co2 1440  2PG1440    -0.2428
      7  O3         9.7960    4.2480   31.4610 O.3   1440  2PG1440    -0.2170
      8  O1P       10.8580    6.8100   32.7030 O.3   1440  2PG1440    -0.2583
      9  O2P       10.4290    6.8390   35.3240 O.3   1440  2PG1440    -0.1145
     10  O3P       12.8030    7.3400   34.3360 O.3   1440  2PG1440    -0.1145
     11  O4P       10.6610    8.7230   34.2490 O.2   1440  2PG1440    -0.2224
@<TRIPOS>BOND
     1     6     1   ar
     2     5     1   ar
     3     1     2    1
     4     7     3    1
     5     3     2    1
     6     2     8    1
     7     8     4    1
     8     4    11    2
     9     4    10    1
    10     4     9    1
