@<TRIPOS>MOLECULE
2xh7_2PG_A_1.pdb
 11 10 0 0 0
SMALL
GASTEIGER

@<TRIPOS>ATOM
      1  C1        20.3770   33.9500   17.1900 C.2   1440  2PG1440     0.3946
      2  C2        20.6040   32.5560   16.6940 C.3   1440  2PG1440     0.2610
      3  C3        20.0030   32.3210   15.3110 C.3   1440  2PG1440     0.2237
      4  P         22.4040   31.1160   17.8660 P.3   1440  2PG1440     0.5331
      5  O1        21.2670   34.4670   17.9060 O.co2 1440  2PG1440    -0.2428
      6  O2        19.2930   34.5190   16.9250 O.co2 1440  2PG1440    -0.2428
      7  O3        20.6850   33.1060   14.3280 O.3   1440  2PG1440    -0.2170
      8  O1P       21.9990   32.2370   16.7890 O.3   1440  2PG1440    -0.2583
      9  O2P       21.5990   29.9090   17.4730 O.2   1440  2PG1440    -0.2224
     10  O3P       23.8950   30.9600   17.7330 O.3   1440  2PG1440    -0.1145
     11  O4P       21.9610   31.6730   19.1930 O.3   1440  2PG1440    -0.1145
@<TRIPOS>BOND
     1     7     3    1
     2     3     2    1
     3     2     8    1
     4     2     1    1
     5     8     4    1
     6     6     1   ar
     7     1     5   ar
     8     9     4    2
     9    10     4    1
    10     4    11    1
