@<TRIPOS>MOLECULE
2xh9_J01_A_1.pdb
 14 15 0 0 0
SMALL
GASTEIGER

@<TRIPOS>ATOM
      1  O2         9.5700    6.9300   73.0860 O.2   1436  J011436    -0.2746
      2  C5         8.5770    6.2300   72.9440 C.2   1436  J011436     0.2343
      3  C4         8.3990    4.8960   72.2840 C.3   1436  J011436     0.1508
      4  C3         7.0480    4.9710   72.9940 C.3   1436  J011436     0.2559
      5  N1         7.2580    6.3890   73.4100 N.am  1436  J011436    -0.2317
      6  O1         7.0760    4.1580   74.1680 O.2   1436  J011436    -0.4621
      7  C1         7.1100    5.0640   75.2950 C.2   1436  J011436     0.1456
      8  C2         7.1260    6.4990   74.8680 C.3   1436  J011436     0.2385
      9  C8         5.8460    7.2210   75.2090 C.2   1436  J011436     0.3900
     10  O5         5.6940    7.6320   76.3770 O.co2 1436  J011436    -0.2433
     11  O4         4.9790    7.3930   74.3220 O.co2 1436  J011436    -0.2433
     12  C6         7.1260    4.6590   76.5790 C.2   1436  J011436     0.0438
     13  C7         7.1130    3.1800   76.9270 C.3   1436  J011436     0.2112
     14  O3         6.2340    2.9530   78.0430 O.3   1436  J011436    -0.2151
@<TRIPOS>BOND
     1     3     2    1
     2     3     4    1
     3     2     1    2
     4     2     5   am
     5     4     5    1
     6     4     6    1
     7     5     8    1
     8     6     7    1
     9    11     9   ar
    10     8     9    1
    11     8     7    1
    12     9    10   ar
    13     7    12    2
    14    12    13    1
    15    13    14    1
