@<TRIPOS>MOLECULE
2xhd_GLU_A_1.pdb
 10 9 0 0 0
SMALL
GASTEIGER

@<TRIPOS>ATOM
      1  N         19.6130   53.9640   19.2100 N.3   301  GLU301     -0.1208
      2  CA        18.1610   53.7910   18.9410 C.3   301  GLU301      0.1949
      3  C         17.9060   53.6770   17.4460 C.2   301  GLU301      0.3819
      4  O         16.7590   53.5440   17.0110 O.co2 301  GLU301     -0.2441
      5  CB        17.3590   54.9530   19.5340 C.3   301  GLU301      0.0424
      6  CG        17.2110   54.9050   21.0500 C.3   301  GLU301      0.1161
      7  CD        16.1530   53.9260   21.5350 C.2   301  GLU301      0.3649
      8  OE1       16.1320   53.6660   22.7580 O.co2 301  GLU301     -0.2457
      9  OE2       15.3450   53.4200   20.7130 O.co2 301  GLU301     -0.2457
     10  OXT       18.8530   53.7180   16.6490 O.co2 301  GLU301     -0.2441
@<TRIPOS>BOND
     1    10     3   ar
     2     4     3   ar
     3     3     2    1
     4     2     1    1
     5     2     5    1
     6     5     6    1
     7     9     7   ar
     8     6     7    1
     9     7     8   ar
