@<TRIPOS>MOLECULE
2xhd_7T9_B_1.pdb
 23 25 0 0 0
SMALL
GASTEIGER

@<TRIPOS>ATOM
      1  C12       28.4600   45.3620   19.9770 C.ar  1266  7T91266    -0.0003
      2  C18       28.0740   41.8370   20.5970 C.ar  1266  7T91266     0.0055
      3  C11       29.3680   46.3970   19.9160 C.ar  1266  7T91266    -0.0045
      4  C19       27.1240   40.8450   20.5260 C.ar  1266  7T91266     0.0497
      5  C14       30.1830   43.7580   19.6240 C.ar  1266  7T91266    -0.0045
      6  C23       26.7690   43.0490   19.0600 C.ar  1266  7T91266     0.1012
      7  C13       28.8530   44.0480   19.8290 C.ar  1266  7T91266     0.0012
      8  C17       27.8940   42.9740   19.8440 C.ar  1266  7T91266     0.0193
      9  C10       30.6890   46.0830   19.7060 C.ar  1266  7T91266    -0.0246
     10  C15       31.0830   44.7890   19.5710 C.ar  1266  7T91266    -0.0246
     11  C20       26.0350   41.0350   19.7070 C.ar  1266  7T91266     0.2223
     12  C9        31.8320   47.0170   19.5950 C.3   1266  7T91266     0.0457
     13  C16       32.5400   44.6740   19.3430 C.3   1266  7T91266     0.0457
     14  C8        32.9340   46.1120   19.0570 C.3   1266  7T91266     0.1059
     15  C1        35.9140   46.4580   18.0090 C.3   1266  7T91266     0.0270
     16  C3        35.0730   47.6160   16.0040 C.3   1266  7T91266     0.0270
     17  C2        35.4040   46.2740   16.6060 C.3   1266  7T91266     0.1473
     18  N22       25.8200   42.1180   18.9650 N.ar  1266  7T91266    -0.2165
     19  N7        32.9210   46.2640   17.5860 N.3   1266  7T91266    -0.0829
     20  O5        33.4420   45.1550   15.3110 O.2   1266  7T91266    -0.1562
     21  O6        34.2830   44.0600   17.4210 O.2   1266  7T91266    -0.1562
     22  F21       25.1070   40.0700   19.6380 F     1266  7T91266    -0.1832
     23  S4        33.9580   45.2530   16.6610 S.O2  1266  7T91266     0.0556
@<TRIPOS>BOND
     1    20    23    2
     2    16    17    1
     3    17    23    1
     4    17    15    1
     5    23    21    2
     6    23    19    1
     7    19    14    1
     8    18     6   ar
     9    18    11   ar
    10    14    13    1
    11    14    12    1
    12     6     8   ar
    13    13    10    1
    14    10     5   ar
    15    10     9   ar
    16    12     9    1
    17     5     7   ar
    18    22    11    1
    19     9     3   ar
    20    11     4   ar
    21     7     8    1
    22     7     1   ar
    23     8     2   ar
    24     3     1   ar
    25     4     2   ar
