@<TRIPOS>MOLECULE
2xhk_AKG_A_1.pdb
 10 9 0 0 0
SMALL
GASTEIGER

@<TRIPOS>ATOM
      1  O3        -3.6450   34.7730  -23.6910 O.co2 519  AKG519     -0.2456
      2  C5        -2.6610   34.0380  -23.8230 C.2   519  AKG519      0.3653
      3  O4        -2.5590   32.9580  -23.1910 O.co2 519  AKG519     -0.2456
      4  C4        -1.6140   34.4370  -24.9330 C.3   519  AKG519      0.1224
      5  C3        -0.2050   34.8570  -24.3770 C.3   519  AKG519      0.0881
      6  C2        -0.0040   36.3710  -24.6850 C.2   519  AKG519      0.2526
      7  O5        -0.7610   37.2410  -24.3120 O.2   519  AKG519     -0.2843
      8  C1         1.0340   36.8730  -25.5280 C.2   519  AKG519      0.4219
      9  O1         1.0620   38.0760  -25.7450 O.co2 519  AKG519     -0.2373
     10  O2         1.8530   36.0570  -25.9430 O.co2 519  AKG519     -0.2373
@<TRIPOS>BOND
     1    10     8   ar
     2     9     8   ar
     3     8     6    1
     4     4     5    1
     5     4     2    1
     6     6     5    1
     7     6     7    2
     8     2     1   ar
     9     2     3   ar
