@<TRIPOS>MOLECULE
2xhm_K26_A_1.pdb
 37 38 0 0 0
SMALL
GASTEIGER

@<TRIPOS>ATOM
      1  CAR      -11.0040   24.9470   -8.5220 C.ar  1615  K261615    -0.0009
      2  CAN       -9.7360   25.4800   -8.3060 C.ar  1615  K261615     0.0417
      3  CBD       -9.1480   26.2920   -9.2760 C.ar  1615  K261615     0.1957
      4  OAI       -7.9090   26.8070   -9.0490 O.3   1615  K261615    -0.2866
      5  CAO       -9.8240   26.5670  -10.4690 C.ar  1615  K261615     0.0417
      6  CAS      -11.0960   26.0330  -10.6770 C.ar  1615  K261615    -0.0009
      7  CBF      -11.6920   25.2210   -9.7020 C.ar  1615  K261615    -0.0198
      8  CAV      -13.0850   24.6100   -9.9230 C.3   1615  K261615     0.0554
      9  CBI      -13.0000   23.2310  -10.6170 C.3   1615  K261615     0.1510
     10  PBK      -14.6580   22.5830  -11.0940 P.3   1615  K261615     0.1372
     11  OAJ      -14.4550   21.0380  -11.3730 O.3   1615  K261615    -0.3560
     12  OAK      -15.5330   22.7390   -9.7260 O.3   1615  K261615    -0.3560
     13  OAG      -15.2530   23.2910  -12.2590 O.2   1615  K261615    -0.4584
     14  NAY      -12.1320   23.3720  -11.7980 N.am  1615  K261615    -0.1979
     15  C        -10.9480   22.7610  -11.8900 C.2   1615  K261615     0.2619
     16  O        -10.4870   21.9870  -11.0500 O.2   1615  K261615    -0.2715
     17  CA       -10.1210   23.1210  -13.1270 C.3   1615  K261615     0.1771
     18  N         -8.6880   22.9530  -12.8100 N.am  1615  K261615    -0.1960
     19  CBB       -7.7930   23.9490  -12.8160 C.2   1615  K261615     0.2616
     20  OAF       -8.0450   25.1180  -13.1110 O.2   1615  K261615    -0.2715
     21  CBJ       -6.3510   23.5140  -12.5010 C.3   1615  K261615     0.1726
     22  CBG       -5.7850   24.1950  -11.2490 C.3   1615  K261615     0.0290
     23  CAC       -6.5950   23.7790  -10.0150 C.3   1615  K261615     0.0023
     24  CAT       -4.3020   23.8400  -11.0530 C.3   1615  K261615     0.0022
     25  CAA       -3.5270   24.9350  -10.3210 C.3   1615  K261615     0.0001
     26  NAX       -5.5490   23.8050  -13.7060 N.am  1615  K261615    -0.1978
     27  CAZ       -4.8520   22.8600  -14.3400 C.2   1615  K261615     0.2423
     28  CAB       -4.1140   23.3230  -15.5980 C.3   1615  K261615     0.0964
     29  OAD       -4.7590   21.6950  -13.9580 O.2   1615  K261615    -0.2733
     30  CB       -10.4780   22.2550  -14.3280 C.3   1615  K261615     0.0574
     31  CG        -9.8480   22.8700  -15.5880 C.ar  1615  K261615    -0.0198
     32  CD1      -10.6210   23.6580  -16.4380 C.ar  1615  K261615    -0.0009
     33  CE1      -10.0490   24.2330  -17.5760 C.ar  1615  K261615     0.0417
     34  CZ        -8.7000   24.0220  -17.8650 C.ar  1615  K261615     0.1957
     35  OH        -8.1460   24.5770  -18.9860 O.3   1615  K261615    -0.2866
     36  CE2       -7.9260   23.2380  -17.0100 C.ar  1615  K261615     0.0417
     37  CD2       -8.4960   22.6660  -15.8700 C.ar  1615  K261615    -0.0009
@<TRIPOS>BOND
     1    35    34    1
     2    34    33   ar
     3    34    36   ar
     4    33    32   ar
     5    36    37   ar
     6    32    31   ar
     7    37    31   ar
     8    28    27    1
     9    31    30    1
    10    27    29    2
    11    27    26   am
    12    30    17    1
    13    26    21    1
    14    17    18    1
    15    17    15    1
    16    20    19    2
    17    19    18   am
    18    19    21    1
    19    21    22    1
    20    13    10    2
    21    15    14   am
    22    15    16    2
    23    14     9    1
    24    11    10    1
    25    22    24    1
    26    22    23    1
    27    10     9    1
    28    10    12    1
    29    24    25    1
    30     6     5   ar
    31     6     7   ar
    32     9     8    1
    33     5     3   ar
    34     8     7    1
    35     7     1   ar
    36     3     4    1
    37     3     2   ar
    38     1     2   ar
