@<TRIPOS>MOLECULE
2xhr_C0P_A_1.pdb
 25 27 0 0 0
SMALL
GASTEIGER

@<TRIPOS>ATOM
      1  N1        -3.6640   11.5530   23.7810 N.pl3 1001  C0P1001    -0.0232
      2  C2        -2.6920   11.1430   24.6330 C.1   1001  C0P1001     0.2417
      3  N3        -3.0860   10.6510   25.8230 N.2   1001  C0P1001    -0.3182
      4  C4        -2.0980   10.2750   26.6350 C.2   1001  C0P1001     0.1866
      5 CL5        -2.5600    9.6230   28.1690 Cl    1001  C0P1001    -0.0511
      6  C6        -0.7730   10.3540   26.3100 C.3   1001  C0P1001     0.1319
      7  C7        -0.4440   10.8730   25.0800 C.2   1001  C0P1001     0.1316
      8  N8        -1.3960   11.2830   24.2290 N.2   1001  C0P1001    -0.3298
      9  C9         0.9770   11.0210   24.6610 C.ar  1001  C0P1001     0.0405
     10  C10        1.7510    9.8610   24.5460 C.ar  1001  C0P1001     0.0409
     11  C11        3.0980    9.9290   24.1900 C.ar  1001  C0P1001     0.1492
     12  O12        3.9040    8.8360   24.0350 O.3   1001  C0P1001    -0.4731
     13  C13        3.3430    7.5430   24.3540 C.3   1001  C0P1001     0.2227
     14  C14        4.3800    6.5010   24.0370 C.3   1001  C0P1001     0.1202
     15  N15        5.5680    6.5550   24.9600 N.3   1001  C0P1001    -0.2653
     16  C17        5.1550    6.6200   26.3980 C.3   1001  C0P1001     0.1047
     17  C18        6.3890    6.6820   27.2870 C.3   1001  C0P1001     0.1595
     18  O19        7.2430    7.7920   26.9430 O.3   1001  C0P1001    -0.3508
     19  C20        7.6690    7.6950   25.5750 C.3   1001  C0P1001     0.1595
     20  C21        6.4840    7.6960   24.6240 C.3   1001  C0P1001     0.1047
     21  C22        3.7110   11.1890   24.0060 C.ar  1001  C0P1001     0.0924
     22 CL23        5.4010   11.3180   23.5970 Cl    1001  C0P1001    -0.0791
     23  C24        2.9700   12.3490   24.1530 C.ar  1001  C0P1001     0.0259
     24  C25        1.6200   12.2760   24.4890 C.ar  1001  C0P1001     0.0609
     25 CL26        0.7360   13.7560   24.6570 Cl    1001  C0P1001    -0.0821
@<TRIPOS>BOND
     1    22    21    1
     2     1     2    1
     3    21    23   ar
     4    21    11   ar
     5    12    11    1
     6    12    13    1
     7    14    13    1
     8    14    15    1
     9    23    24   ar
    10    11    10   ar
    11     8     2    2
    12     8     7    2
    13    24    25    1
    14    24     9   ar
    15    10     9   ar
    16    20    15    1
    17    20    19    1
    18     2     3    2
    19     9     7    1
    20    15    16    1
    21     7     6    1
    22    19    18    1
    23     3     4    2
    24     6     4    1
    25    16    17    1
    26     4     5    1
    27    18    17    1
