@<TRIPOS>MOLECULE
2xht_C0Y_A_1.pdb
 19 20 0 0 0
SMALL
GASTEIGER

@<TRIPOS>ATOM
      1  C1         7.0240   -1.1390    9.9970 C.3   1224  C0Y1224     0.0045
      2  C2         6.3580   -1.5910   11.2970 C.3   1224  C0Y1224     0.0220
      3  C3         6.8370   -0.6640   12.4250 C.3   1224  C0Y1224     0.0045
      4  C4         4.8420   -1.4330   11.1450 C.3   1224  C0Y1224     0.0045
      5  C5         6.7260   -3.0510   11.6090 C.ar  1224  C0Y1224     0.0163
      6  C6         7.6540   -3.6470   10.7750 C.ar  1224  C0Y1224     0.0034
      7  C7         8.0850   -4.9480   10.9730 C.ar  1224  C0Y1224     0.0535
      8  C8         7.5790   -5.6790   12.0420 C.ar  1224  C0Y1224     0.0078
      9  C9         6.6500   -5.1170   12.8980 C.ar  1224  C0Y1224     0.0418
     10  C10        6.2140   -3.8100   12.6990 C.ar  1224  C0Y1224     0.1917
     11  O11        5.2800   -3.2770   13.5590 O.3   1224  C0Y1224    -0.2869
     12  C12        9.1280   -5.5350   10.0760 C.2   1224  C0Y1224     0.2492
     13  O13       10.1770   -5.9220   10.5570 O.2   1224  C0Y1224    -0.2699
     14  N14        8.9170   -5.5450    8.7360 N.am  1224  C0Y1224    -0.2709
     15  C15        9.9440   -5.9770    7.7780 C.3   1224  C0Y1224     0.1258
     16  C16        9.4830   -7.2380    7.0710 C.3   1224  C0Y1224     0.1637
     17  O17        8.2110   -7.0430    6.4360 O.3   1224  C0Y1224    -0.3501
     18  C18        7.2190   -6.6960    7.4140 C.3   1224  C0Y1224     0.1637
     19  C19        7.5850   -5.4130    8.1420 C.3   1224  C0Y1224     0.1258
@<TRIPOS>BOND
     1    17    16    1
     2    17    18    1
     3    16    15    1
     4    18    19    1
     5    15    14    1
     6    19    14    1
     7    14    12   am
     8     1     2    1
     9    12    13    2
    10    12     7    1
    11     6     7   ar
    12     6     5   ar
    13     7     8   ar
    14     4     2    1
    15     2     5    1
    16     2     3    1
    17     5    10   ar
    18     8     9   ar
    19    10     9   ar
    20    10    11    1
