@<TRIPOS>MOLECULE
2xhx_T5M_A_1.pdb
 43 45 0 0 0
SMALL
GASTEIGER

@<TRIPOS>ATOM
      1  C1        14.4960    0.2930   10.6960 C.3   1224  T5M1224    -0.0559
      2  C2        14.2290   -0.4780    9.4040 C.3   1224  T5M1224    -0.0092
      3  C3        12.8260   -0.1170    8.9130 C.3   1224  T5M1224    -0.0559
      4  C4        14.3500   -1.9990    9.6510 C.ar  1224  T5M1224     0.0001
      5  C5        15.3730   -2.7250    9.0530 C.ar  1224  T5M1224    -0.0425
      6  C6        15.5160   -4.0870    9.2550 C.ar  1224  T5M1224     0.0374
      7  C7        16.6230   -4.8290    8.5900 C.2   1224  T5M1224     0.2472
      8  O8        17.3400   -5.5640    9.2570 O.2   1224  T5M1224    -0.2700
      9  N9        16.7870   -4.6610    7.2330 N.am  1224  T5M1224    -0.2889
     10  C10       18.0480   -4.9270    6.5190 C.3   1224  T5M1224     0.0407
     11  C11       17.5620   -5.3820    5.1710 C.ar  1224  T5M1224    -0.0254
     12  C12       18.2620   -5.9570    4.1200 C.ar  1224  T5M1224    -0.0568
     13  C13       17.6030   -6.3020    2.9620 C.ar  1224  T5M1224    -0.0614
     14  C14       16.2430   -6.0740    2.8420 C.ar  1224  T5M1224    -0.0614
     15  C15       15.5420   -5.5010    3.8810 C.ar  1224  T5M1224    -0.0568
     16  C16       16.1960   -5.1520    5.0490 C.ar  1224  T5M1224    -0.0254
     17  C17       15.6570   -4.5210    6.3000 C.3   1224  T5M1224     0.0407
     18  C18       14.6250   -4.7510   10.0720 C.ar  1224  T5M1224    -0.0462
     19  C20       13.6060   -4.0690   10.6810 C.ar  1224  T5M1224    -0.0192
     20  C19       15.2390   -0.0040    8.3530 C.3   1224  T5M1224    -0.0559
     21  C21       13.4570   -2.7080   10.4840 C.ar  1224  T5M1224     0.1206
     22  O22       12.4260   -2.0770   11.1130 O.3   1224  T5M1224    -0.5065
     23 H191       16.1450   -0.1540    8.6720 H     1224  T5M1224     0.0238
     24 H192       15.1080   -0.4950    7.5220 H     1224  T5M1224     0.0238
     25 H193       15.1160    0.9460    8.1820 H     1224  T5M1224     0.0238
     26 H11C       14.6110    1.2380   10.4990 H     1224  T5M1224     0.0238
     27 H12C       13.7470    0.1850   11.3070 H     1224  T5M1224     0.0238
     28 H13C       15.3040   -0.0440   11.1210 H     1224  T5M1224     0.0238
     29 H31C       12.4710   -0.8360    8.3710 H     1224  T5M1224     0.0238
     30 H32C       12.2350    0.0290    9.6720 H     1224  T5M1224     0.0238
     31 H33C       12.8600    0.6950    8.3780 H     1224  T5M1224     0.0238
     32  H5        15.9850   -2.2820    8.4940 H     1224  T5M1224     0.0629
     33  H18       14.7210   -5.6800   10.2090 H     1224  T5M1224     0.0626
     34  H20       13.0010   -4.5280   11.2380 H     1224  T5M1224     0.0654
     35  H22       11.9440   -2.6660   11.6080 H     1224  T5M1224     0.2921
     36 H101       18.5900   -4.1200    6.4470 H     1224  T5M1224     0.0514
     37 H102       18.5680   -5.6250    6.9650 H     1224  T5M1224     0.0514
     38  H12       19.1920   -6.1160    4.2040 H     1224  T5M1224     0.0621
     39  H13       18.0810   -6.6970    2.2460 H     1224  T5M1224     0.0618
     40  H14       15.7940   -6.3110    2.0430 H     1224  T5M1224     0.0618
     41  H15       14.6130   -5.3430    3.7970 H     1224  T5M1224     0.0621
     42 H171       14.8690   -4.9940    6.6260 H     1224  T5M1224     0.0514
     43 H172       15.4310   -3.5800    6.1570 H     1224  T5M1224     0.0514
@<TRIPOS>BOND
     1    40    14    1
     2    39    13    1
     3    14    13   ar
     4    14    15   ar
     5    13    12   ar
     6    41    15    1
     7    15    16   ar
     8    12    38    1
     9    12    11   ar
    10    16    11   ar
    11    16    17    1
    12    11    10    1
    13    43    17    1
    14    17    42    1
    15    17     9    1
    16    36    10    1
    17    10    37    1
    18    10     9    1
    19     9     7   am
    20    24    20    1
    21    25    20    1
    22    20    23    1
    23    20     2    1
    24    29     3    1
    25    31     3    1
    26    32     5    1
    27     7     6    1
    28     7     8    2
    29     3     2    1
    30     3    30    1
    31     5     6   ar
    32     5     4   ar
    33     6    18   ar
    34     2     4    1
    35     2     1    1
    36     4    21   ar
    37    18    33    1
    38    18    19   ar
    39    21    19   ar
    40    21    22    1
    41    26     1    1
    42    19    34    1
    43     1    28    1
    44     1    27    1
    45    22    35    1
