@<TRIPOS>MOLECULE
2xi3_GTP_A_1.pdb
 32 34 0 0 0
SMALL
GASTEIGER

@<TRIPOS>ATOM
      1  PG        10.8670    2.0660   22.8110 P.3   1001  GTP1001     0.5373
      2  O1G        9.4880    2.6660   22.6810 O.3   1001  GTP1001    -0.1143
      3  O2G       11.7800    2.6800   21.7810 O.2   1001  GTP1001    -0.2221
      4  O3G       11.4060    2.3050   24.1930 O.3   1001  GTP1001    -0.1143
      5  O3B       10.7510    0.4740   22.5930 O.3   1001  GTP1001    -0.2258
      6  PB        10.5580   -0.1880   21.1360 P.3   1001  GTP1001     0.2277
      7  O1B        9.3480    0.4380   20.4770 O.2   1001  GTP1001    -0.5168
      8  O2B       10.3980   -1.6760   21.3220 O.3   1001  GTP1001    -0.4368
      9  O3A       11.8650    0.2200   20.2870 O.3   1001  GTP1001    -0.2700
     10  PA        13.2520   -0.6060   20.2300 P.3   1001  GTP1001     0.2189
     11  O1A       13.7140   -1.0260   21.6080 O.3   1001  GTP1001    -0.4371
     12  O2A       14.3090    0.2440   19.5640 O.2   1001  GTP1001    -0.5170
     13  O5'       12.8680   -1.8670   19.3070 O.3   1001  GTP1001    -0.3112
     14  C5'       12.7600   -3.1780   19.8200 C.3   1001  GTP1001     0.1813
     15  C4'       13.5860   -4.0980   18.9300 C.3   1001  GTP1001     0.1799
     16  O4'       13.0960   -4.0360   17.6020 O.3   1001  GTP1001    -0.3326
     17  C3'       15.0490   -3.6830   18.8790 C.3   1001  GTP1001     0.2158
     18  O3'       15.8210   -4.8350   19.1030 O.3   1001  GTP1001    -0.2175
     19  C2'       15.2800   -3.2260   17.4550 C.3   1001  GTP1001     0.2310
     20  O2'       16.5410   -3.6190   16.9660 O.3   1001  GTP1001    -0.2158
     21  C1'       14.1930   -3.9710   16.7110 C.3   1001  GTP1001     0.2293
     22  N9        13.8620   -3.2860   15.4540 N.pl3 1001  GTP1001    -0.2354
     23  C8        13.8690   -1.9430   15.1750 C.3   1001  GTP1001     0.2246
     24  N7        13.5060   -1.7800   13.8780 N.2   1001  GTP1001    -0.2322
     25  C5        13.2780   -3.0070   13.3340 C.2   1001  GTP1001     0.2182
     26  C6        12.8900   -3.4390   12.0690 C.1   1001  GTP1001     0.2372
     27  O6        12.6860   -2.6260   11.1730 O.2   1001  GTP1001    -0.2069
     28  N1        12.7460   -4.7900   11.8230 N.2   1001  GTP1001    -0.2485
     29  C2        12.9780   -5.7080   12.8280 C.1   1001  GTP1001     0.2531
     30  N2        12.8390   -7.0140   12.6050 N.pl3 1001  GTP1001    -0.0226
     31  N3        13.3620   -5.2730   14.0750 N.2   1001  GTP1001    -0.3074
     32  C4        13.5050   -3.9530   14.3180 C.2   1001  GTP1001     0.2300
@<TRIPOS>BOND
     1    27    26    2
     2    28    26    2
     3    28    29    2
     4    26    25    1
     5    30    29    1
     6    29    31    2
     7    25    24    2
     8    25    32    1
     9    24    23    1
    10    31    32    2
    11    32    22    1
    12    23    22    1
    13    22    21    1
    14    21    19    1
    15    21    16    1
    16    20    19    1
    17    19    17    1
    18    16    15    1
    19    17    15    1
    20    17    18    1
    21    15    14    1
    22    13    14    1
    23    13    10    1
    24    12    10    2
    25    10     9    1
    26    10    11    1
    27     9     6    1
    28     7     6    2
    29     6     8    1
    30     6     5    1
    31     3     1    2
    32     5     1    1
    33     2     1    1
    34     1     4    1
