@<TRIPOS>MOLECULE
2xi4_AFT_A_1.pdb
 23 27 0 0 0
SMALL
GASTEIGER

@<TRIPOS>ATOM
      1  C8A       99.5890   52.3550   22.4280 C.2   1000  AFT1000     0.1722
      2  C9B      100.0260   55.6970   22.9690 C.ar  1000  AFT1000     0.0580
      3  O7        99.8060   52.8060   21.1330 O.2   1000  AFT1000    -0.4398
      4  C6A       99.6410   54.2390   21.1320 C.3   1000  AFT1000     0.3492
      5  O6A      100.8960   54.9280   20.9910 O.3   1000  AFT1000    -0.4427
      6  C5A      101.0190   55.8590   22.0030 C.ar  1000  AFT1000     0.1449
      7  C5B      101.9620   56.8640   22.1850 C.ar  1000  AFT1000     0.0738
      8  C4B      101.9140   57.7080   23.2980 C.ar  1000  AFT1000     0.1446
      9  O4       102.8680   58.6730   23.4220 O.3   1000  AFT1000    -0.4712
     10  CM       103.5390   58.9970   22.1750 C.3   1000  AFT1000     0.2525
     11  C4A      100.9040   57.5350   24.2700 C.ar  1000  AFT1000     0.0688
     12  C10       99.9520   56.5230   24.0700 C.ar  1000  AFT1000     0.1510
     13  O10       98.9250   56.2680   24.9260 O.2   1000  AFT1000    -0.4211
     14  C11       98.7890   57.0590   26.0220 C.ar  1000  AFT1000     0.3488
     15  O11       97.8500   56.8270   26.7780 O.2   1000  AFT1000    -0.2444
     16  C12       99.6700   58.1120   26.2870 C.ar  1000  AFT1000     0.1150
     17  C3A      100.7580   58.3390   25.4180 C.ar  1000  AFT1000     0.0154
     18  C3       101.5690   59.5730   25.8750 C.2   1000  AFT1000     0.0038
     19  C2A      100.8610   60.0360   27.1520 C.2   1000  AFT1000     0.0423
     20  C9A       99.1040   54.5780   22.5350 C.3   1000  AFT1000     0.1376
     21  C1        99.6830   59.0510   27.3220 C.2   1000  AFT1000     0.2019
     22  C9        99.2440   53.2890   23.3230 C.2   1000  AFT1000     0.0259
     23  O1        98.8420   59.1000   28.2290 O.2   1000  AFT1000    -0.2863
@<TRIPOS>BOND
     1     5     4    1
     2     5     6    1
     3     4     3    1
     4     4    20    1
     5     3     1    1
     6     6     7   ar
     7     6     2   ar
     8    10     9    1
     9     7     8   ar
    10     1    22    2
    11    20     2    1
    12    20    22    1
    13     2    12   ar
    14     8     9    1
    15     8    11   ar
    16    12    11   ar
    17    12    13   ar
    18    11    17   ar
    19    13    14   ar
    20    17    18    1
    21    17    16   ar
    22    18    19    2
    23    14    16   ar
    24    14    15    2
    25    16    21    1
    26    19    21    1
    27    21    23    2
