@<TRIPOS>MOLECULE
2xi6_HEM_A_1.pdb
 43 50 0 0 0
SMALL
GASTEIGER

@<TRIPOS>ATOM
      1  CHA       13.2780   57.5440   20.2970 C.2   288  HEM288      0.0000
      2  CHB       12.3160   54.9460   16.3100 C.2   288  HEM288      0.0000
      3  CHC       15.5160   51.6930   17.8480 C.2   288  HEM288      0.0000
      4  CHD       16.6710   54.3730   21.6420 C.2   288  HEM288      0.0000
      5  C1A       12.7790   57.1170   19.1270 C.ar  288  HEM288      0.0000
      6  C2A       11.7860   57.8690   18.3550 C.ar  288  HEM288      0.0000
      7  C3A       11.5210   57.1610   17.2810 C.ar  288  HEM288      0.0000
      8  C4A       12.2900   55.9340   17.2760 C.ar  288  HEM288      0.0000
      9  CMA       10.5500   57.5090   16.1340 C.3   288  HEM288      0.0000
     10  CAA       11.1970   59.2170   18.8040 C.3   288  HEM288      0.0000
     11  CBA       12.1100   60.3960   18.6040 C.3   288  HEM288      0.0000
     12  CGA       11.4010   61.6180   19.1850 C.2   288  HEM288      0.0000
     13  O1A       10.3390   62.0110   18.6650 O.co2 288  HEM288      0.0000
     14  O2A       11.9550   62.1770   20.0920 O.co2 288  HEM288      0.0000
     15  C1B       13.0640   53.8260   16.4330 C.2   288  HEM288      0.0000
     16  C2B       12.9960   52.6870   15.5750 C.2   288  HEM288      0.0000
     17  C3B       13.8210   51.7670   15.9880 C.2   288  HEM288      0.0000
     18  C4B       14.5070   52.2690   17.1570 C.2   288  HEM288      0.0000
     19  CMB       12.0380   52.5410   14.3950 C.3   288  HEM288      0.0000
     20  CAB       13.9690   50.4120   15.3290 C.3   288  HEM288      0.0000
     21  CBB       13.9970   49.4240   16.1600 C.3   288  HEM288      0.0000
     22  C1C       16.2020   52.2220   18.8960 C.ar  288  HEM288      0.0000
     23  C2C       17.4230   51.6370   19.4750 C.ar  288  HEM288      0.0000
     24  C3C       17.7530   52.3590   20.5320 C.ar  288  HEM288      0.0000
     25  C4C       16.7460   53.4110   20.6850 C.ar  288  HEM288      0.0000
     26  CMC       18.0980   50.4180   18.8210 C.3   288  HEM288      0.0000
     27  CAC       18.9390   52.2580   21.5070 C.2   288  HEM288      0.0000
     28  CBC       19.3010   51.1400   22.0420 C.2   288  HEM288      0.0000
     29  C1D       15.7770   55.3910   21.6620 C.2   288  HEM288      0.0000
     30  C2D       15.6100   56.2480   22.7640 C.2   288  HEM288      0.0000
     31  C3D       14.5580   57.2390   22.4040 C.2   288  HEM288      0.0000
     32  C4D       14.1590   56.8820   21.0660 C.2   288  HEM288      0.0000
     33  CMD       16.3400   56.1450   24.0710 C.3   288  HEM288      0.0000
     34  CAD       14.0940   58.3140   23.3910 C.3   288  HEM288      0.0000
     35  CBD       14.8120   59.6170   23.1470 C.3   288  HEM288      0.0000
     36  CGD       14.3080   60.7450   24.0720 C.2   288  HEM288      0.0000
     37  O1D       14.4920   61.9030   23.7480 O.co2 288  HEM288      0.0000
     38  O2D       13.7210   60.4560   25.0590 O.co2 288  HEM288      0.0000
     39  NA        13.0090   55.9770   18.3890 N.ar  288  HEM288      0.0000
     40  NB        13.9930   53.4950   17.3510 N.2   288  HEM288      0.0000
     41  NC        15.8600   53.2470   19.7220 N.ar  288  HEM288      0.0000
     42  ND        14.9050   55.8400   20.7050 N.2   288  HEM288      0.0000
     43 FE         14.4130   54.6030   19.1350 Fe    288  HEM288      0.0000
@<TRIPOS>BOND
     1    19    16    1
     2    20    17    1
     3    20    21    1
     4    16    17    2
     5    16    15    1
     6    17    18    1
     7     9     7    1
     8     2    15    1
     9     2     8    2
    10    15    40    2
    11    18    40    1
    12    18     3    2
    13     8     7   ar
    14     8    39   ar
    15     7     6   ar
    16    40    43    1
    17     3    22    1
    18     6    10    1
    19     6     5   ar
    20    39     5   ar
    21    39    43    1
    22    11    10    1
    23    11    12    1
    24    13    12   ar
    25    26    23    1
    26    22    23   ar
    27    22    41   ar
    28     5     1    2
    29    43    41    1
    30    43    42    1
    31    12    14   ar
    32    23    24   ar
    33    41    25   ar
    34     1    32    1
    35    24    25   ar
    36    24    27    1
    37    25     4    1
    38    42    32    2
    39    42    29    1
    40    32    31    1
    41    27    28    2
    42     4    29    2
    43    29    30    1
    44    31    30    2
    45    31    34    1
    46    30    33    1
    47    35    34    1
    48    35    36    1
    49    37    36   ar
    50    36    38   ar
