@<TRIPOS>MOLECULE
2xi7_XI7_A_1.pdb
 14 14 0 0 0
SMALL
GASTEIGER

@<TRIPOS>ATOM
      1  O8       -67.8790   54.8010  -30.8470 O.2   1186  XI71186    -0.2794
      2  C9       -68.3480   53.5500  -30.9170 C.2   1186  XI71186     0.2779
      3  C10      -69.2610   53.1540  -29.9980 C.2   1186  XI71186     0.4262
      4  O11      -69.6510   53.9530  -29.1000 O.co2 1186  XI71186    -0.2369
      5  O10      -69.7300   51.9850  -30.0490 O.co2 1186  XI71186    -0.2369
      6  C8       -67.9090   52.6740  -31.8530 C.2   1186  XI71186     0.0910
      7  C7       -66.8540   52.9280  -32.8700 C.2   1186  XI71186     0.1991
      8  C1       -66.3130   51.7520  -33.6590 C.ar  1186  XI71186     0.0391
      9  C6       -65.7260   50.6770  -32.9630 C.ar  1186  XI71186     0.0032
     10  C5       -65.1860   49.5740  -33.6440 C.ar  1186  XI71186     0.0001
     11  C4       -65.2210   49.5460  -35.0440 C.ar  1186  XI71186     0.0000
     12  C3       -65.8030   50.6250  -35.7410 C.ar  1186  XI71186     0.0001
     13  C2       -66.3350   51.7300  -35.0520 C.ar  1186  XI71186     0.0032
     14  O14      -66.2840   54.0050  -33.0400 O.2   1186  XI71186    -0.2865
@<TRIPOS>BOND
     1    12    13   ar
     2    12    11   ar
     3    13     8   ar
     4    11    10   ar
     5     8     9   ar
     6     8     7    1
     7    10     9   ar
     8    14     7    2
     9     7     6    1
    10     6     2    2
    11     2     1    1
    12     2     3    1
    13     5     3   ar
    14     3     4   ar
