@<TRIPOS>MOLECULE
2xib_DFU_A_1.pdb
 10 10 0 0 0
SMALL
GASTEIGER

@<TRIPOS>ATOM
      1  C1         5.1360  -10.5880   88.1690 C.3   1472  DFU1472     0.1242
      2  C2         4.0480  -10.7720   87.1030 C.3   1472  DFU1472     0.2020
      3  C3         2.9560   -9.7270   87.3210 C.3   1472  DFU1472     0.2150
      4  C4         3.5800   -8.3350   87.2030 C.3   1472  DFU1472     0.2005
      5  C5         4.7040   -8.2030   88.2480 C.3   1472  DFU1472     0.1059
      6  C6         5.3700   -6.8370   88.1120 C.3   1472  DFU1472     0.0216
      7  O4         4.0910   -8.1350   85.8610 O.3   1472  DFU1472    -0.2188
      8  O3         1.9210   -9.8720   86.3690 O.3   1472  DFU1472    -0.2176
      9  O2         3.4950  -12.0840   87.1490 O.3   1472  DFU1472    -0.2188
     10  N5         5.7130   -9.2330   88.0340 N.3   1472  DFU1472    -0.2140
@<TRIPOS>BOND
     1     7     4    1
     2     8     3    1
     3     2     9    1
     4     2     3    1
     5     2     1    1
     6     4     3    1
     7     4     5    1
     8    10     1    1
     9    10     5    1
    10     6     5    1
