@<TRIPOS>MOLECULE
2xif_HEM_A_1.pdb
 43 50 0 0 0
SMALL
GASTEIGER

@<TRIPOS>ATOM
      1  CHA       13.3510   57.5340   20.4720 C.2   1251  HEM1251     0.0000
      2  CHB       12.2440   54.7360   16.4060 C.2   1251  HEM1251     0.0000
      3  CHC       15.5560   51.5110   17.8250 C.2   1251  HEM1251     0.0000
      4  CHD       16.7030   54.0770   21.6810 C.2   1251  HEM1251     0.0000
      5  C1A       12.7740   56.9960   19.2350 C.ar  1251  HEM1251     0.0000
      6  C2A       11.7190   57.7510   18.4950 C.ar  1251  HEM1251     0.0000
      7  C3A       11.5440   57.0230   17.3740 C.ar  1251  HEM1251     0.0000
      8  C4A       12.3590   55.8100   17.4070 C.ar  1251  HEM1251     0.0000
      9  CMA       10.5970   57.3950   16.1870 C.3   1251  HEM1251     0.0000
     10  CAA       11.1410   59.0300   19.0030 C.3   1251  HEM1251     0.0000
     11  CBA       12.1220   60.0930   18.4910 C.3   1251  HEM1251     0.0000
     12  CGA       11.4300   61.3870   19.1440 C.2   1251  HEM1251     0.0000
     13  O1A       10.2640   61.8740   18.6880 O.co2 1251  HEM1251     0.0000
     14  O2A       11.9470   62.1400   20.1140 O.co2 1251  HEM1251     0.0000
     15  C1B       13.0720   53.6980   16.5180 C.2   1251  HEM1251     0.0000
     16  C2B       12.9660   52.5910   15.5370 C.2   1251  HEM1251     0.0000
     17  C3B       13.8190   51.6340   15.9280 C.2   1251  HEM1251     0.0000
     18  C4B       14.5450   52.1010   17.2050 C.2   1251  HEM1251     0.0000
     19  CMB       12.0250   52.5510   14.2920 C.3   1251  HEM1251     0.0000
     20  CAB       13.9320   50.1930   15.4260 C.3   1251  HEM1251     0.0000
     21  CBB       14.0630   49.0650   16.2100 C.3   1251  HEM1251     0.0000
     22  C1C       16.2930   52.0990   18.8330 C.ar  1251  HEM1251     0.0000
     23  C2C       17.4430   51.5160   19.4460 C.ar  1251  HEM1251     0.0000
     24  C3C       17.7630   52.1840   20.5560 C.ar  1251  HEM1251     0.0000
     25  C4C       16.7350   53.2870   20.6250 C.ar  1251  HEM1251     0.0000
     26  CMC       18.1310   50.3350   18.7090 C.3   1251  HEM1251     0.0000
     27  CAC       18.9610   52.1730   21.6850 C.3   1251  HEM1251     0.0000
     28  CBC       19.2540   50.9290   21.8580 C.3   1251  HEM1251     0.0000
     29  C1D       15.7540   55.1400   21.7300 C.2   1251  HEM1251     0.0000
     30  C2D       15.4840   56.1060   22.8730 C.2   1251  HEM1251     0.0000
     31  C3D       14.5040   56.9320   22.5410 C.2   1251  HEM1251     0.0000
     32  C4D       14.1670   56.6190   21.1360 C.2   1251  HEM1251     0.0000
     33  CMD       16.3290   55.9530   24.1520 C.3   1251  HEM1251     0.0000
     34  CAD       13.9870   58.0500   23.3940 C.3   1251  HEM1251     0.0000
     35  CBD       14.7240   59.3900   23.2110 C.3   1251  HEM1251     0.0000
     36  CGD       14.2500   60.5060   24.1680 C.2   1251  HEM1251     0.0000
     37  O1D       14.5080   61.6780   23.7690 O.co2 1251  HEM1251     0.0000
     38  O2D       13.6950   60.3180   25.2060 O.co2 1251  HEM1251     0.0000
     39  NA        13.1190   55.8570   18.5460 N.ar  1251  HEM1251     0.0000
     40  NB        14.0000   53.3210   17.4310 N.2   1251  HEM1251     0.0000
     41  NC        15.8750   53.1640   19.5700 N.ar  1251  HEM1251     0.0000
     42  ND        14.8720   55.5420   20.7650 N.2   1251  HEM1251     0.0000
     43 FE         14.3810   54.3970   19.1500 Fe    1251  HEM1251     0.0000
@<TRIPOS>BOND
     1    19    16    1
     2    20    17    1
     3    20    21    1
     4    16    17    2
     5    16    15    1
     6    17    18    1
     7     9     7    1
     8     2    15    1
     9     2     8    2
    10    15    40    2
    11    18    40    1
    12    18     3    2
    13     7     8   ar
    14     7     6   ar
    15     8    39   ar
    16    40    43    1
    17     3    22    1
    18    11    10    1
    19    11    12    1
    20     6    10    1
    21     6     5   ar
    22    39    43    1
    23    39     5   ar
    24    13    12   ar
    25    26    23    1
    26    22    23   ar
    27    22    41   ar
    28    12    14   ar
    29    43    41    1
    30    43    42    1
    31     5     1    2
    32    23    24   ar
    33    41    25   ar
    34     1    32    1
    35    24    25   ar
    36    24    27    1
    37    25     4    1
    38    42    32    2
    39    42    29    1
    40    32    31    1
    41     4    29    2
    42    27    28    1
    43    29    30    1
    44    31    30    2
    45    31    34    1
    46    30    33    1
    47    35    34    1
    48    35    36    1
    49    37    36   ar
    50    36    38   ar
