@<TRIPOS>MOLECULE
2xih_HEM_A_1.pdb
 43 50 0 0 0
SMALL
GASTEIGER

@<TRIPOS>ATOM
      1  CHA       13.1970   57.5100   20.4200 C.2   1251  HEM1251     0.0000
      2  CHB       12.3410   54.9580   16.3350 C.2   1251  HEM1251     0.0000
      3  CHC       15.5250   51.6730   17.8530 C.2   1251  HEM1251     0.0000
      4  CHD       16.7000   54.3110   21.6560 C.2   1251  HEM1251     0.0000
      5  C1A       12.7240   57.0800   19.2220 C.ar  1251  HEM1251     0.0000
      6  C2A       11.7590   57.7750   18.4390 C.ar  1251  HEM1251     0.0000
      7  C3A       11.5210   57.0990   17.3100 C.ar  1251  HEM1251     0.0000
      8  C4A       12.2940   55.9180   17.3160 C.ar  1251  HEM1251     0.0000
      9  CMA       10.5640   57.4350   16.1210 C.3   1251  HEM1251     0.0000
     10  CAA       11.1830   59.1120   18.9460 C.3   1251  HEM1251     0.0000
     11  CBA       12.0980   60.3270   18.6940 C.3   1251  HEM1251     0.0000
     12  CGA       11.4040   61.5970   19.1710 C.2   1251  HEM1251     0.0000
     13  O1A       10.3570   61.9170   18.5700 O.co2 1251  HEM1251     0.0000
     14  O2A       11.9200   62.2380   20.0530 O.co2 1251  HEM1251     0.0000
     15  C1B       13.0830   53.7990   16.4330 C.2   1251  HEM1251     0.0000
     16  C2B       13.0170   52.6710   15.5400 C.2   1251  HEM1251     0.0000
     17  C3B       13.8350   51.7220   15.9880 C.2   1251  HEM1251     0.0000
     18  C4B       14.5280   52.2640   17.1260 C.2   1251  HEM1251     0.0000
     19  CMB       12.0450   52.5340   14.3580 C.3   1251  HEM1251     0.0000
     20  CAB       14.0740   50.3400   15.3550 C.2   1251  HEM1251     0.0000
     21  CBB       14.0910   49.3060   16.1380 C.2   1251  HEM1251     0.0000
     22  C1C       16.2130   52.1880   18.8980 C.ar  1251  HEM1251     0.0000
     23  C2C       17.4280   51.6240   19.4770 C.ar  1251  HEM1251     0.0000
     24  C3C       17.7530   52.3300   20.5510 C.ar  1251  HEM1251     0.0000
     25  C4C       16.7930   53.3890   20.7040 C.ar  1251  HEM1251     0.0000
     26  CMC       18.0830   50.4130   18.7860 C.3   1251  HEM1251     0.0000
     27  CAC       18.9530   52.2330   21.5120 C.2   1251  HEM1251     0.0000
     28  CBC       19.2500   51.1100   22.0840 C.2   1251  HEM1251     0.0000
     29  C1D       15.7810   55.3200   21.6980 C.2   1251  HEM1251     0.0000
     30  C2D       15.6120   56.1530   22.8340 C.2   1251  HEM1251     0.0000
     31  C3D       14.5750   57.1510   22.4820 C.2   1251  HEM1251     0.0000
     32  C4D       14.1430   56.8310   21.1600 C.2   1251  HEM1251     0.0000
     33  CMD       16.3310   56.1050   24.1680 C.3   1251  HEM1251     0.0000
     34  CAD       14.0440   58.2340   23.4630 C.3   1251  HEM1251     0.0000
     35  CBD       14.7160   59.5750   23.1280 C.3   1251  HEM1251     0.0000
     36  CGD       14.2360   60.6930   24.0990 C.2   1251  HEM1251     0.0000
     37  O1D       14.5170   61.8270   23.7130 O.co2 1251  HEM1251     0.0000
     38  O2D       13.6810   60.4290   25.0780 O.co2 1251  HEM1251     0.0000
     39  NA        13.0290   55.9790   18.4530 N.ar  1251  HEM1251     0.0000
     40  NB        13.9950   53.4900   17.3910 N.2   1251  HEM1251     0.0000
     41  NC        15.8850   53.2200   19.7120 N.ar  1251  HEM1251     0.0000
     42  ND        14.9090   55.7500   20.7170 N.2   1251  HEM1251     0.0000
     43 FE         14.4420   54.5960   19.0890 Fe    1251  HEM1251     0.0000
@<TRIPOS>BOND
     1    19    16    1
     2    20    17    1
     3    20    21    2
     4    16    17    2
     5    16    15    1
     6    17    18    1
     7     9     7    1
     8     2    15    1
     9     2     8    2
    10    15    40    2
    11    18    40    1
    12    18     3    2
    13     7     8   ar
    14     7     6   ar
    15     8    39   ar
    16    40    43    1
    17     3    22    1
    18     6    10    1
    19     6     5   ar
    20    39    43    1
    21    39     5   ar
    22    13    12   ar
    23    11    10    1
    24    11    12    1
    25    26    23    1
    26    22    23   ar
    27    22    41   ar
    28    43    41    1
    29    43    42    1
    30    12    14   ar
    31     5     1    2
    32    23    24   ar
    33    41    25   ar
    34     1    32    1
    35    24    25   ar
    36    24    27    1
    37    25     4    1
    38    42    32    2
    39    42    29    1
    40    32    31    1
    41    27    28    2
    42     4    29    2
    43    29    30    1
    44    31    30    2
    45    31    34    1
    46    30    33    1
    47    35    34    1
    48    35    36    1
    49    37    36   ar
    50    36    38   ar
