@<TRIPOS>MOLECULE
2xii_TA9_A_1.pdb
 28 31 0 0 0
SMALL
GASTEIGER

@<TRIPOS>ATOM
      1  CAK      -30.9770    3.2880   24.2500 C.ar  1002  TA91002     0.0434
      2  CAQ      -31.7760    3.8580   25.2470 C.2   1002  TA91002     0.1957
      3  OBB      -31.6940    3.6410   26.4590 O.2   1002  TA91002    -0.2866
      4  CAN      -32.7310    4.6830   24.6720 C.ar  1002  TA91002     0.0390
      5  CAS      -33.7340    5.4850   25.2140 C.ar  1002  TA91002     0.0032
      6  CAH      -34.5360    6.2400   24.3430 C.ar  1002  TA91002     0.0001
      7  CAC      -34.3470    6.1870   22.9550 C.ar  1002  TA91002     0.0000
      8  CAR      -33.3450    5.3830   22.4260 C.ar  1002  TA91002     0.0001
      9  CAM      -32.5470    4.6160   23.2820 C.ar  1002  TA91002     0.0032
     10  CAL      -31.4820    3.7500   23.0260 C.ar  1002  TA91002     0.0033
     11  CAO      -30.9050    3.3320   21.8290 C.ar  1002  TA91002     0.0001
     12  CAT      -29.8160    2.4640   21.8430 C.ar  1002  TA91002     0.0001
     13  CAP      -29.3080    1.9980   23.0570 C.ar  1002  TA91002     0.0047
     14  CAJ      -29.8880    2.4070   24.2600 C.ar  1002  TA91002     0.0581
     15  CAI      -29.2490    1.8770   25.5580 C.2   1002  TA91002     0.2649
     16  OAZ      -28.7230    0.7710   25.5740 O.2   1002  TA91002    -0.2684
     17  NAV      -29.1040    2.7710   26.5420 N.am  1002  TA91002    -0.2001
     18  CAD      -28.4690    2.4570   27.8070 C.3   1002  TA91002     0.1354
     19  CAA      -26.9690    2.3750   27.6440 C.3   1002  TA91002     0.1274
     20  NAW      -26.4510    3.7110   27.2650 N.3   1002  TA91002    -0.2137
     21  CAE      -24.9780    3.5580   26.9930 C.3   1002  TA91002     0.1059
     22  CAU      -24.4140    4.9650   26.6290 C.3   1002  TA91002     0.0216
     23  CAG      -24.2420    2.9390   28.1480 C.3   1002  TA91002     0.2005
     24  OAX      -24.2530    3.8370   29.2490 O.3   1002  TA91002    -0.2188
     25  CAF      -24.8840    1.6100   28.5990 C.3   1002  TA91002     0.2150
     26  OAY      -24.1560    1.0900   29.7290 O.3   1002  TA91002    -0.2176
     27  CAB      -26.3310    1.8900   28.9400 C.3   1002  TA91002     0.2023
     28  OBA      -26.9970    0.6840   29.3880 O.3   1002  TA91002    -0.2188
@<TRIPOS>BOND
     1    11    12   ar
     2    11    10   ar
     3    12    13   ar
     4     8     7   ar
     5     8     9   ar
     6     7     6   ar
     7    10     9    1
     8    10     1   ar
     9    13    14   ar
    10     9     4   ar
    11     1    14   ar
    12     1     2    1
    13    14    15    1
    14     6     5   ar
    15     4     5   ar
    16     4     2    1
    17     2     3    2
    18    15    16    2
    19    15    17   am
    20    17    18    1
    21    22    21    1
    22    21    20    1
    23    21    23    1
    24    20    19    1
    25    19    18    1
    26    19    27    1
    27    23    25    1
    28    23    24    1
    29    25    27    1
    30    25    26    1
    31    27    28    1
