@<TRIPOS>MOLECULE
2xii_TYR_A_1.pdb
 13 13 0 0 0
SMALL
GASTEIGER

@<TRIPOS>ATOM
      1  N        -29.0330   28.8200    1.0240 N.3   1001  TYR1001    -0.1205
      2  CA       -27.9720   29.7860    0.7400 C.3   1001  TYR1001     0.1986
      3  C        -28.5620   31.1190    0.2470 C.2   1001  TYR1001     0.3822
      4  O        -27.8270   32.0150   -0.2050 O.co2 1001  TYR1001    -0.2440
      5  CB       -26.9740   29.2010   -0.2750 C.3   1001  TYR1001     0.0569
      6  CG       -26.3540   27.8860    0.1900 C.ar  1001  TYR1001    -0.0200
      7  CD1      -25.1520   27.8650    0.8990 C.ar  1001  TYR1001    -0.0009
      8  CD2      -26.9950   26.6640   -0.0540 C.ar  1001  TYR1001    -0.0009
      9  CE1      -24.5970   26.6580    1.3400 C.ar  1001  TYR1001     0.0417
     10  CE2      -26.4530   25.4610    0.3860 C.ar  1001  TYR1001     0.0417
     11  CZ       -25.2570   25.4600    1.0770 C.ar  1001  TYR1001     0.1957
     12  OH       -24.7310   24.2610    1.5080 O.3   1001  TYR1001    -0.2866
     13  OXT      -29.7850   31.3270    0.2950 O.co2 1001  TYR1001    -0.2440
@<TRIPOS>BOND
     1     5     6    1
     2     5     2    1
     3     4     3   ar
     4     8     6   ar
     5     8    10   ar
     6     6     7   ar
     7     3    13   ar
     8     3     2    1
     9    10    11   ar
    10     2     1    1
    11     7     9   ar
    12    11     9   ar
    13    11    12    1
