@<TRIPOS>MOLECULE
2xik_J60_A_1.pdb
 29 31 0 0 0
SMALL
GASTEIGER

@<TRIPOS>ATOM
      1  CBA       -3.3370   -1.1200  -22.3290 C.3   1294  J601294     0.0188
      2  CAZ       -3.9640   -2.5150  -22.2640 C.3   1294  J601294     0.0722
      3  NAX       -2.8950   -3.5250  -22.2290 N.3   1294  J601294    -0.2712
      4  CAY       -2.5480   -3.8830  -20.8470 C.3   1294  J601294     0.0722
      5  CBB       -1.3810   -3.0070  -20.3850 C.3   1294  J601294     0.0188
      6  CAW       -3.1590   -4.7150  -23.0610 C.3   1294  J601294     0.0958
      7  CAV       -4.5980   -5.2430  -22.9200 C.3   1294  J601294     0.1327
      8  NAU       -4.5840   -6.6580  -22.4850 N.am  1294  J601294    -0.2001
      9  CAS       -4.1230   -7.6570  -23.2480 C.2   1294  J601294     0.2668
     10  OAT       -3.6530   -7.4910  -24.3740 O.2   1294  J601294    -0.2683
     11  CAN       -4.1500   -9.0740  -22.6380 C.2   1294  J601294     0.0789
     12  CAM       -4.3000   -9.4620  -21.3120 C.2   1294  J601294     0.0143
     13  CAQ       -4.5910   -8.5420  -20.1110 C.3   1294  J601294     0.0339
     14  CAO       -3.8870  -10.2420  -23.3380 C.2   1294  J601294     0.1135
     15  CAR       -3.6440  -10.3540  -24.8470 C.3   1294  J601294     0.0665
     16  NAP       -3.9210  -11.2820  -22.5030 N.2   1294  J601294    -0.4064
     17  CAL       -4.1680  -10.8570  -21.2580 C.2   1294  J601294     0.1280
     18  CAK       -4.2590  -11.5250  -20.0310 C.2   1294  J601294     0.0444
     19  CAG       -4.2190  -12.9120  -19.8200 C.2   1294  J601294     0.0994
     20  CAE       -4.3670  -13.5000  -18.5650 C.2   1294  J601294     0.0398
     21  CAD       -4.4940  -12.9930  -17.2630 C.2   1294  J601294    -0.0025
     22  CAA       -4.6130  -13.8760  -16.1770 C.3   1294  J601294     0.1239
     23 CL         -4.7610  -13.2880  -14.5480 Cl    1294  J601294    -0.1054
     24  CAB       -4.6290  -15.2510  -16.4060 C.2   1294  J601294    -0.0032
     25  CAC       -4.5350  -15.7510  -17.7050 C.2   1294  J601294     0.0300
     26  CAF       -4.4050  -14.8830  -18.7870 C.2   1294  J601294     0.1445
     27  NAH       -4.3140  -15.1200  -20.0990 N.2   1294  J601294    -0.3329
     28  CAI       -4.1910  -13.9580  -20.7450 C.1   1294  J601294     0.2048
     29  OAJ       -4.0020  -13.8830  -21.9580 O.2   1294  J601294    -0.2093
@<TRIPOS>BOND
     1    15    14    1
     2    10     9    2
     3    14    11    1
     4    14    16    2
     5     9    11    1
     6     9     8   am
     7     6     7    1
     8     6     3    1
     9     7     8    1
    10    11    12    2
    11    16    17    2
    12     1     2    1
    13     2     3    1
    14     3     4    1
    15    29    28    2
    16    12    17    1
    17    12    13    1
    18    17    18    1
    19     4     5    1
    20    28    27    2
    21    28    19    1
    22    27    26    2
    23    18    19    2
    24    19    20    1
    25    26    20    1
    26    26    25    1
    27    20    21    2
    28    25    24    2
    29    21    22    1
    30    24    22    1
    31    22    23    1
