@<TRIPOS>MOLECULE
2xil_HEM_A_1.pdb
 43 50 0 0 0
SMALL
GASTEIGER

@<TRIPOS>ATOM
      1  CHA      -14.2100    0.3030    1.2570 C.2   1301  HEM1301     0.0000
      2  CHB      -10.2110    0.3920    3.9290 C.2   1301  HEM1301     0.0000
      3  CHC       -8.8740    4.4730    1.6220 C.2   1301  HEM1301     0.0000
      4  CHD      -12.8500    4.2310   -1.2490 C.2   1301  HEM1301     0.0000
      5  C1A      -13.3360    0.0300    2.0770 C.2   1301  HEM1301     0.0000
      6  C2A      -13.2710   -1.1910    2.9650 C.2   1301  HEM1301     0.0000
      7  C3A      -12.1390   -1.1180    3.6750 C.2   1301  HEM1301     0.0000
      8  C4A      -11.4330    0.1980    3.2670 C.2   1301  HEM1301     0.0000
      9  CMA      -11.7030   -2.1860    4.6960 C.3   1301  HEM1301     0.0000
     10  CAA      -14.4240   -2.1540    2.8210 C.3   1301  HEM1301     0.0000
     11  CBA      -14.0780   -3.0860    1.6530 C.3   1301  HEM1301     0.0000
     12  CGA      -15.2660   -4.1150    1.6440 C.2   1301  HEM1301     0.0000
     13  O1A      -15.5310   -4.8360    2.8190 O.co2 1301  HEM1301     0.0000
     14  O2A      -16.0490   -4.4060    0.6810 O.co2 1301  HEM1301     0.0000
     15  C1B       -9.4980    1.5400    3.4530 C.ar  1301  HEM1301     0.0000
     16  C2B       -8.3350    1.9280    4.1210 C.ar  1301  HEM1301     0.0000
     17  C3B       -8.0400    3.1280    3.6150 C.ar  1301  HEM1301     0.0000
     18  C4B       -9.0040    3.5320    2.5790 C.ar  1301  HEM1301     0.0000
     19  CMB       -7.6730    1.1230    5.2670 C.3   1301  HEM1301     0.0000
     20  CAB       -6.8410    4.0790    3.7880 C.3   1301  HEM1301     0.0000
     21  CBB       -6.2020    4.1640    5.0890 C.3   1301  HEM1301     0.0000
     22  C1C       -9.7450    4.7740    0.6310 C.2   1301  HEM1301     0.0000
     23  C2C       -9.6290    5.7130   -0.3760 C.2   1301  HEM1301     0.0000
     24  C3C      -10.6240    5.6440   -1.2590 C.2   1301  HEM1301     0.0000
     25  C4C      -11.5110    4.5820   -0.7570 C.2   1301  HEM1301     0.0000
     26  CMC       -8.3760    6.6150   -0.4850 C.3   1301  HEM1301     0.0000
     27  CAC      -10.8530    6.3480   -2.5880 C.2   1301  HEM1301     0.0000
     28  CBC      -10.6100    7.6040   -2.6960 C.2   1301  HEM1301     0.0000
     29  C1D      -13.5450    3.2630   -0.6790 C.ar  1301  HEM1301     0.0000
     30  C2D      -14.8400    3.0220   -1.2020 C.ar  1301  HEM1301     0.0000
     31  C3D      -15.3520    1.9340   -0.6150 C.ar  1301  HEM1301     0.0000
     32  C4D      -14.2140    1.4070    0.3210 C.ar  1301  HEM1301     0.0000
     33  CMD      -15.5560    3.7920   -2.3390 C.3   1301  HEM1301     0.0000
     34  CAD      -16.7090    1.1680   -0.5750 C.3   1301  HEM1301     0.0000
     35  CBD      -16.6270    0.0460   -1.6530 C.3   1301  HEM1301     0.0000
     36  CGD      -17.9470   -0.7510   -1.6240 C.2   1301  HEM1301     0.0000
     37  O1D      -17.9350   -1.7580   -2.4630 O.co2 1301  HEM1301     0.0000
     38  O2D      -18.9180   -0.3000   -1.1650 O.co2 1301  HEM1301     0.0000
     39  NA       -12.2220    0.7610    2.3250 N.2   1301  HEM1301     0.0000
     40  NB        -9.8700    2.4950    2.5660 N.ar  1301  HEM1301     0.0000
     41  NC       -10.8770    4.1080    0.3440 N.2   1301  HEM1301     0.0000
     42  ND       -13.1900    2.2950    0.2080 N.ar  1301  HEM1301     0.0000
     43 FE        -11.4900    2.3770    1.3140 Fe    1301  HEM1301     0.0000
@<TRIPOS>BOND
     1    28    27    2
     2    27    24    1
     3    37    36   ar
     4    33    30    1
     5    35    36    1
     6    35    34    1
     7    36    38   ar
     8    24    25    1
     9    24    23    2
    10     4    25    1
    11     4    29    2
    12    30    29   ar
    13    30    31   ar
    14    25    41    2
    15    29    42   ar
    16    31    34    1
    17    31    32   ar
    18    26    23    1
    19    23    22    1
    20    42    32   ar
    21    42    43    1
    22    32     1    2
    23    41    22    1
    24    41    43    1
    25    22     3    2
    26    14    12   ar
    27     1     5    1
    28    43    39    1
    29    43    40    1
    30     3    18    1
    31    12    11    1
    32    12    13   ar
    33    11    10    1
    34     5    39    2
    35     5     6    1
    36    39     8    1
    37    40    18   ar
    38    40    15   ar
    39    18    17   ar
    40    10     6    1
    41     6     7    2
    42     8     7    1
    43     8     2    2
    44    15     2    1
    45    15    16   ar
    46    17    20    1
    47    17    16   ar
    48     7     9    1
    49    20    21    1
    50    16    19    1
