@<TRIPOS>MOLECULE
2xim_XYL_A_1.pdb
 10 9 0 0 0
SMALL
GASTEIGER

@<TRIPOS>ATOM
      1  C1        30.4380   43.9820  171.9840 C.3   397  XYL397      0.2175
      2  C2        31.5880   43.6250  171.1060 C.3   397  XYL397      0.2175
      3  C3        31.6710   42.1340  170.7370 C.3   397  XYL397      0.2175
      4  C4        33.0430   41.7400  170.1920 C.3   397  XYL397      0.2175
      5  C5        33.2380   40.2310  170.2430 C.3   397  XYL397      0.2175
      6  O1        30.4050   45.4240  172.1770 O.3   397  XYL397     -0.2175
      7  O2        31.4980   44.3410  169.8790 O.3   397  XYL397     -0.2175
      8  O3        30.6700   41.8410  169.7510 O.3   397  XYL397     -0.2175
      9  O4        33.3190   42.2190  168.8610 O.3   397  XYL397     -0.2175
     10  O5        33.5130   39.8810  171.5770 O.3   397  XYL397     -0.2175
@<TRIPOS>BOND
     1     9     4    1
     2     8     3    1
     3     7     2    1
     4     4     5    1
     5     4     3    1
     6     5    10    1
     7     3     2    1
     8     2     1    1
     9     1     6    1
