@<TRIPOS>MOLECULE
2xin_SOR_A_1.pdb
 12 11 0 0 0
SMALL
GASTEIGER

@<TRIPOS>ATOM
      1  C1        30.4500   43.8470  171.6540 C.3   397  SOR397      0.2175
      2  C2        31.7290   43.5600  170.8090 C.3   397  SOR397      0.2175
      3  C3        31.8540   42.0790  170.4270 C.3   397  SOR397      0.2175
      4  C4        33.2210   41.7180  169.8320 C.3   397  SOR397      0.2175
      5  C5        33.6480   40.2470  169.9650 C.3   397  SOR397      0.2175
      6  C6        35.0820   40.0380  169.3770 C.3   397  SOR397      0.2175
      7  O1        30.2810   45.2670  171.6890 O.3   397  SOR397     -0.2175
      8  O2        31.6490   44.3620  169.6290 O.3   397  SOR397     -0.2175
      9  O3        30.7660   41.6380  169.6350 O.3   397  SOR397     -0.2175
     10  O4        33.4700   42.2440  168.5170 O.3   397  SOR397     -0.2175
     11  O5        33.6360   39.7360  171.2910 O.3   397  SOR397     -0.2175
     12  O6        34.8420   39.5870  168.0250 O.3   397  SOR397     -0.2175
@<TRIPOS>BOND
     1    12     6    1
     2    10     4    1
     3     6     5    1
     4     8     2    1
     5     9     3    1
     6     4     5    1
     7     4     3    1
     8     5    11    1
     9     3     2    1
    10     2     1    1
    11     1     7    1
