@<TRIPOS>MOLECULE
2xir_00J_A_1.pdb
 34 38 0 0 0
SMALL
GASTEIGER

@<TRIPOS>ATOM
      1  O30       24.1390   22.7260   35.4360 O.2   2169  00J2169    -0.2683
      2  C26       24.9110   22.5830   36.3600 C.2   2169  00J2169     0.2676
      3  N28       26.1460   22.1490   36.1350 N.am  2169  00J2169    -0.1997
      4  C2        26.6990   21.7980   34.8340 C.3   2169  00J2169     0.1388
      5  C25       24.4620   22.9140   37.7440 C.ar  2169  00J2169     0.0882
      6  C21       23.1670   23.3590   38.0250 C.ar  2169  00J2169     0.0418
      7  C6        22.0350   23.5980   37.2590 C.ar  2169  00J2169     0.0064
      8  C24       23.1650   23.5610   39.3960 C.ar  2169  00J2169     0.1480
      9  O31       24.4120   23.2660   40.0040 O.2   2169  00J2169    -0.4575
     10  C17       25.2440   22.8580   39.0050 C.ar  2169  00J2169     0.1276
     11  C1        26.6430   22.4770   39.3810 C.3   2169  00J2169     0.0726
     12  C10       22.0360   24.0120   40.0550 C.ar  2169  00J2169     0.0749
     13  C19       20.8910   24.2500   39.2920 C.ar  2169  00J2169     0.1483
     14  C4        20.8880   24.0480   37.9090 C.ar  2169  00J2169     0.0377
     15  O34       19.7570   24.7070   39.9020 O.3   2169  00J2169    -0.4533
     16  C22       19.5980   26.0570   40.1190 C.ar  2169  00J2169     0.1482
     17  C7        20.6520   26.9580   39.9530 C.ar  2169  00J2169     0.0581
     18  C20       18.3570   26.5490   40.5090 C.ar  2169  00J2169     0.0524
     19  C5        17.2850   25.6750   40.6750 C.ar  2169  00J2169     0.0077
     20  C23       18.2040   27.9210   40.7340 C.ar  2169  00J2169     0.0873
     21  N27       19.2490   28.7690   40.5680 N.ar  2169  00J2169    -0.2435
     22  C8        20.4520   28.3170   40.1850 C.ar  2169  00J2169     0.1020
     23  C9        16.9620   28.4190   41.1230 C.ar  2169  00J2169     0.0561
     24  C18       15.8860   27.5440   41.2920 C.ar  2169  00J2169     0.1401
     25  C3        16.0490   26.1780   41.0670 C.ar  2169  00J2169     0.0371
     26  O33       14.6540   28.0070   41.6800 O.3   2169  00J2169    -0.4739
     27  C16       14.4800   29.3380   42.1650 C.3   2169  00J2169     0.2226
     28  C15       13.2260   29.4100   43.0350 C.3   2169  00J2169     0.1202
     29  N29       12.0280   29.0180   42.2750 N.3   2169  00J2169    -0.2653
     30  C11       11.5690   30.1460   41.4380 C.3   2169  00J2169     0.1047
     31  C12       10.9790   28.6130   43.2300 C.3   2169  00J2169     0.1047
     32  C14        9.6910   28.2700   42.4820 C.3   2169  00J2169     0.1595
     33  O32        9.2930   29.3840   41.6750 O.3   2169  00J2169    -0.3508
     34  C13       10.2820   29.7600   40.7110 C.3   2169  00J2169     0.1595
@<TRIPOS>BOND
     1     4     3    1
     2     1     2    2
     3     3     2   am
     4     2     5    1
     5     7    14   ar
     6     7     6   ar
     7     5     6   ar
     8     5    10   ar
     9    14    13   ar
    10     6     8   ar
    11    10    11    1
    12    10     9   ar
    13    13    15    1
    14    13    12   ar
    15     8     9   ar
    16     8    12   ar
    17    15    16    1
    18    17    16   ar
    19    17    22   ar
    20    16    18   ar
    21    22    21   ar
    22    18    19   ar
    23    18    20   ar
    24    21    20   ar
    25    19    25   ar
    26    34    30    1
    27    34    33    1
    28    20    23   ar
    29    25    24   ar
    30    23    24   ar
    31    24    26    1
    32    30    29    1
    33    33    32    1
    34    26    27    1
    35    27    28    1
    36    29    28    1
    37    29    31    1
    38    32    31    1
