@<TRIPOS>MOLECULE
2xis_XYL_A_1.pdb
 10 9 0 0 0
SMALL
GASTEIGER

@<TRIPOS>ATOM
      1  C1        10.0260   33.9570   47.0140 C.3   390  XYL390      0.2175
      2  C2        11.4640   34.2850   46.4510 C.3   390  XYL390      0.2175
      3  C3        12.1050   32.9260   46.0930 C.3   390  XYL390      0.2175
      4  C4        13.6010   33.0670   45.7470 C.3   390  XYL390      0.2175
      5  C5        14.3010   31.6710   45.6650 C.3   390  XYL390      0.2175
      6  O1         9.5070   35.1200   47.5980 O.3   390  XYL390     -0.2175
      7  O2        11.2690   35.0330   45.2740 O.3   390  XYL390     -0.2175
      8  O3        11.4870   32.3770   44.9630 O.3   390  XYL390     -0.2175
      9  O4        13.8570   33.8720   44.5790 O.3   390  XYL390     -0.2175
     10  O5        14.4180   31.1010   46.9510 O.3   390  XYL390     -0.2175
@<TRIPOS>BOND
     1     9     4    1
     2     8     3    1
     3     7     2    1
     4     5     4    1
     5     5    10    1
     6     4     3    1
     7     3     2    1
     8     2     1    1
     9     1     6    1
