@<TRIPOS>MOLECULE
2xiu_MTN_A_1.pdb
 12 12 0 0 0
SMALL
GASTEIGER

@<TRIPOS>ATOM
      1  O1        32.6760   19.2230   13.8650 O.3   1055  MTN1055    -0.1175
      2  N1        32.5210   18.0890   14.2870 N.4   1055  MTN1055    -0.1311
      3  C1        33.5240   17.3430   15.0360 C.3   1055  MTN1055     0.0909
      4  C2        32.7640   16.1030   15.4400 C.2   1055  MTN1055    -0.0160
      5  C3        31.5420   16.1050   14.8920 C.2   1055  MTN1055    -0.0205
      6  C4        30.5160   15.0070   15.0320 C.3   1055  MTN1055     0.0917
      7  S1        31.2550   13.5010   15.5620 S.3   1055  MTN1055    -0.0773
      8  C5        31.2940   17.3430   14.0760 C.3   1055  MTN1055     0.0886
      9  C6        31.1270   16.9780   12.6090 C.3   1055  MTN1055     0.0227
     10  C7        30.0870   18.0940   14.6210 C.3   1055  MTN1055     0.0227
     11  C8        34.6840   16.9040   14.1300 C.3   1055  MTN1055     0.0230
     12  C9        34.0760   18.1230   16.2220 C.3   1055  MTN1055     0.0230
@<TRIPOS>BOND
     1     9     8    1
     2     1     2    1
     3     8     2    1
     4     8    10    1
     5     8     5    1
     6    11     3    1
     7     2     3    1
     8     5     6    1
     9     5     4    2
    10     6     7    1
    11     3     4    1
    12     3    12    1
