@<TRIPOS>MOLECULE
2xiy_XIY_A_1.pdb
 11 12 0 0 0
SMALL
GASTEIGER

@<TRIPOS>ATOM
      1  NG       -21.9660  -35.2900   -1.5910 N.2   1307  XIY1307    -0.3387
      2  CD1      -21.7560  -34.1650   -0.8950 C.1   1307  XIY1307     0.1480
      3  NE1      -22.0720  -34.3720    0.3940 N.2   1307  XIY1307    -0.3387
      4  CE2      -22.4830  -35.6380    0.5190 C.ar  1307  XIY1307     0.1738
      5  CZ2      -22.9250  -36.3780    1.6130 C.ar  1307  XIY1307     0.0357
      6  CH2      -23.2990  -37.7180    1.4430 C.ar  1307  XIY1307     0.0028
      7  CZ3      -23.2270  -38.3010    0.1740 C.ar  1307  XIY1307     0.0028
      8  CE3      -22.7810  -37.5490   -0.9240 C.ar  1307  XIY1307     0.0357
      9  CD2      -22.4060  -36.2210   -0.7480 C.ar  1307  XIY1307     0.1738
     10  C        -21.2430  -32.8410   -1.4610 C.3   1307  XIY1307     0.3051
     11  O        -20.9960  -31.9200   -0.3980 O.3   1307  XIY1307    -0.2004
@<TRIPOS>BOND
     1     1     2    2
     2     1     9    2
     3    10     2    1
     4    10    11    1
     5     8     9   ar
     6     8     7   ar
     7     2     3    2
     8     9     4   ar
     9     7     6   ar
    10     3     4    2
    11     4     5   ar
    12     6     5   ar
