@<TRIPOS>MOLECULE
2xiz_XIZ_A_1.pdb
 11 11 0 0 0
SMALL
GASTEIGER

@<TRIPOS>ATOM
      1  C1       -21.7960  -31.8710    1.5970 C.2   1307  XIZ1307     0.3880
      2  O1       -21.2350  -30.9190    1.0050 O.co2 1307  XIZ1307    -0.2405
      3  O2       -22.3150  -31.7760    2.7390 O.co2 1307  XIZ1307    -0.2405
      4  C2       -21.8350  -33.1040    0.9290 C.2   1307  XIZ1307     0.0861
      5  C3       -22.4270  -34.2360    1.5060 C.2   1307  XIZ1307     0.0069
      6  C1'      -22.5210  -35.4510    0.8190 C.ar  1307  XIZ1307     0.0033
      7  C2'      -22.1100  -35.5590   -0.5150 C.ar  1307  XIZ1307     0.0207
      8  C3'      -22.2430  -36.7780   -1.1800 C.ar  1307  XIZ1307     0.0989
      9  C5'      -23.1700  -37.7690    0.7130 C.ar  1307  XIZ1307     0.0989
     10  C6'      -23.0680  -36.5700    1.4380 C.ar  1307  XIZ1307     0.0207
     11  N4       -22.7590  -37.8350   -0.5540 N.ar  1307  XIZ1307    -0.2423
@<TRIPOS>BOND
     1     8    11   ar
     2     8     7   ar
     3    11     9   ar
     4     7     6   ar
     5     9    10   ar
     6     6    10   ar
     7     6     5    1
     8     4     5    2
     9     4     1    1
    10     2     1   ar
    11     1     3   ar
