@<TRIPOS>MOLECULE
2xj0_XJ0_A_1.pdb
 12 12 0 0 0
SMALL
GASTEIGER

@<TRIPOS>ATOM
      1  OB       -20.6940  -30.6910    0.5490 O.co2 1307  XJ01307    -0.2405
      2  C        -21.1060  -31.7060    1.1520 C.2   1307  XJ01307     0.3880
      3  OA       -21.3040  -31.7570    2.3860 O.co2 1307  XJ01307    -0.2405
      4  CA       -21.3600  -32.8470    0.4000 C.2   1307  XJ01307     0.0859
      5  CB       -21.8240  -34.0020    1.0190 C.2   1307  XJ01307     0.0060
      6  CG       -22.0930  -35.1700    0.3120 C.2   1307  XJ01307     0.0231
      7  CD       -21.9160  -35.2600   -1.0650 C.3   1307  XJ01307     0.1656
      8  NE       -22.1850  -36.3930   -1.6900 N.2   1307  XJ01307    -0.2004
      9  CZ       -22.6330  -37.4650   -1.0180 C.1   1307  XJ01307     0.1286
     10  NH2      -22.9020  -38.5900   -1.6740 N.pl3 1307  XJ01307    -0.0461
     11  NH1      -22.8120  -37.4040    0.3100 N.2   1307  XJ01307    -0.1781
     12  C10      -22.5550  -36.2960    0.9830 C.2   1307  XJ01307     0.1085
@<TRIPOS>BOND
     1     8     7    1
     2     8     9    2
     3    10     9    1
     4     7     6    1
     5     9    11    2
     6    11    12    1
     7     6    12    2
     8     6     5    1
     9     4     5    2
    10     4     2    1
    11     1     2   ar
    12     2     3   ar
