@<TRIPOS>MOLECULE
2xj1_XJ1_A_1.pdb
 25 27 0 0 0
SMALL
GASTEIGER

@<TRIPOS>ATOM
      1  C3       -20.4820  -32.1700   -4.7560 C.3   1307  XJ11307     0.0231
      2  C4       -20.7090  -30.6430   -4.7420 C.3   1307  XJ11307     0.0208
      3  C5       -21.6460  -30.2350   -3.5910 C.3   1307  XJ11307     0.0919
      4  N8       -21.8830  -28.7740   -3.5700 N.3   1307  XJ11307    -0.1329
      5  C6       -22.9640  -30.9900   -3.7540 C.3   1307  XJ11307     0.0208
      6  C7       -22.7710  -32.5200   -3.8110 C.3   1307  XJ11307     0.0231
      7  C2       -21.8260  -32.9080   -4.9490 C.3   1307  XJ11307     0.0952
      8  N1       -21.5930  -34.3680   -5.0880 N.pl3 1307  XJ11307    -0.2103
      9  C9       -22.1160  -35.4220   -4.4480 C.2   1307  XJ11307     0.2176
     10  N10      -22.0800  -35.5190   -3.1030 N.2   1307  XJ11307    -0.3862
     11  C14      -22.6330  -36.4880   -5.1900 C.2   1307  XJ11307     0.1427
     12  N13      -23.1010  -37.5650   -4.5620 N.2   1307  XJ11307    -0.2572
     13  C12      -23.0910  -37.6520   -3.2210 C.3   1307  XJ11307     0.1841
     14  C11      -22.5510  -36.6120   -2.4530 C.2   1307  XJ11307     0.1352
     15  C15      -22.5370  -36.6250   -1.0330 C.ar  1307  XJ11307     0.0274
     16  C16      -22.3620  -35.4140   -0.3590 C.ar  1307  XJ11307     0.0023
     17  C20      -22.7360  -37.7770   -0.2680 C.ar  1307  XJ11307     0.0023
     18  C19      -22.7450  -37.7090    1.1400 C.ar  1307  XJ11307     0.0001
     19  C18      -22.5590  -36.4850    1.7820 C.ar  1307  XJ11307     0.0000
     20  C17      -22.3470  -35.3270    1.0320 C.ar  1307  XJ11307     0.0003
     21  C21      -22.1900  -34.0870    1.6650 C.2   1307  XJ11307     0.0068
     22  C22      -21.4830  -32.9920    1.1620 C.2   1307  XJ11307     0.0861
     23  C23      -21.4240  -31.7880    1.8820 C.2   1307  XJ11307     0.3880
     24  O25      -20.7680  -30.8650    1.3760 O.co2 1307  XJ11307    -0.2405
     25  O24      -22.0350  -31.6700    2.9760 O.co2 1307  XJ11307    -0.2405
@<TRIPOS>BOND
     1    11    12    2
     2    11     9    1
     3     8     7    1
     4     8     9    1
     5     7     1    1
     6     7     6    1
     7     1     2    1
     8     2     3    1
     9    12    13    1
    10     9    10    2
    11     6     5    1
    12     5     3    1
    13     3     4    1
    14    13    14    1
    15    10    14    2
    16    14    15    1
    17    15    16   ar
    18    15    17   ar
    19    16    20   ar
    20    17    18   ar
    21    20    21    1
    22    20    19   ar
    23    18    19   ar
    24    22    21    2
    25    22    23    1
    26    24    23   ar
    27    23    25   ar
