@<TRIPOS>MOLECULE
2xj2_985_A_1.pdb
 25 27 0 0 0
SMALL
GASTEIGER

@<TRIPOS>ATOM
      1  C1       -22.5470  -36.6700   -2.5280 C.2   1001  9851001     0.1351
      2  N2       -21.9620  -35.6400   -3.1690 N.2   1001  9851001    -0.3877
      3  C3       -21.9530  -35.5170   -4.5080 C.2   1001  9851001     0.2019
      4  C4       -22.6130  -36.4850   -5.2640 C.2   1001  9851001     0.1412
      5  N5       -23.2050  -37.5010   -4.6370 N.2   1001  9851001    -0.2573
      6  C6       -23.2090  -37.6180   -3.3070 C.3   1001  9851001     0.1841
      7  N1       -21.3280  -34.4680   -5.0710 N.pl3 1001  9851001    -0.2809
      8  C2       -20.4860  -33.6190   -4.2060 C.3   1001  9851001     0.1105
      9  C11      -21.3220  -32.4710   -3.5890 C.3   1001  9851001     0.0939
     10  N3       -22.3680  -31.8970   -4.4810 N.3   1001  9851001    -0.2700
     11  C5       -21.9320  -31.7140   -5.8850 C.3   1001  9851001     0.0739
     12  C14      -22.3920  -32.9100   -6.7520 C.3   1001  9851001     0.0388
     13  C7       -21.5230  -34.1740   -6.5190 C.3   1001  9851001     0.0947
     14  C8       -22.7470  -30.5680   -3.9560 C.3   1001  9851001     0.0897
     15  C10      -22.7750  -36.6370    1.6800 C.ar  1001  9851001     0.0000
     16  C16      -22.9370  -37.8380    0.9920 C.ar  1001  9851001     0.0001
     17  C12      -22.8510  -37.8670   -0.4000 C.ar  1001  9851001     0.0023
     18  C13      -22.5770  -36.7070   -1.1180 C.ar  1001  9851001     0.0274
     19  C17      -22.4370  -35.5090   -0.4090 C.ar  1001  9851001     0.0023
     20  C15      -22.5020  -35.4630    0.9810 C.ar  1001  9851001     0.0003
     21  C18      -22.3780  -34.2500    1.6700 C.2   1001  9851001     0.0068
     22  C19      -21.7150  -33.1190    1.1950 C.2   1001  9851001     0.0861
     23  C9       -21.6830  -31.9340    1.9420 C.2   1001  9851001     0.3880
     24  O1       -21.0610  -30.9720    1.4560 O.co2 1001  9851001    -0.2405
     25  O2       -22.2790  -31.8740    3.0460 O.co2 1001  9851001    -0.2405
@<TRIPOS>BOND
     1    12    13    1
     2    12    11    1
     3    13     7    1
     4    11    10    1
     5     4     5    2
     6     4     3    1
     7     7     3    1
     8     7     8    1
     9     5     6    1
    10     3     2    2
    11    10    14    1
    12    10     9    1
    13     8     9    1
    14     6     1    1
    15     2     1    2
    16     1    18    1
    17    18    19   ar
    18    18    17   ar
    19    19    20   ar
    20    17    16   ar
    21    20    21    1
    22    20    15   ar
    23    16    15   ar
    24    22    21    2
    25    22    23    1
    26    24    23   ar
    27    23    25   ar
