@<TRIPOS>MOLECULE
2xj5_HEM_A_1.pdb
 43 50 0 0 0
SMALL
GASTEIGER

@<TRIPOS>ATOM
      1  CHA      -14.2280    0.4050    1.1770 C.2   1295  HEM1295     0.0000
      2  CHB      -10.2480    0.5240    3.8820 C.2   1295  HEM1295     0.0000
      3  CHC       -8.9730    4.6080    1.7140 C.2   1295  HEM1295     0.0000
      4  CHD      -12.6670    4.2410   -1.2470 C.2   1295  HEM1295     0.0000
      5  C1A      -13.2590    0.0920    2.0420 C.2   1295  HEM1295     0.0000
      6  C2A      -13.2800   -1.0700    2.8870 C.2   1295  HEM1295     0.0000
      7  C3A      -12.1910   -1.0540    3.6450 C.2   1295  HEM1295     0.0000
      8  C4A      -11.4400    0.1300    3.3120 C.2   1295  HEM1295     0.0000
      9  CMA      -11.7260   -2.0570    4.7130 C.3   1295  HEM1295     0.0000
     10  CAA      -14.4190   -2.0970    2.8000 C.3   1295  HEM1295     0.0000
     11  CBA      -14.2270   -3.1240    1.6860 C.3   1295  HEM1295     0.0000
     12  CGA      -15.3340   -4.1470    1.7110 C.2   1295  HEM1295     0.0000
     13  O1A      -15.4590   -4.7630    2.7500 O.co2 1295  HEM1295     0.0000
     14  O2A      -15.9890   -4.2710    0.7110 O.co2 1295  HEM1295     0.0000
     15  C1B       -9.5730    1.6230    3.5160 C.ar  1295  HEM1295     0.0000
     16  C2B       -8.3930    2.1050    4.1580 C.ar  1295  HEM1295     0.0000
     17  C3B       -8.0280    3.2250    3.5780 C.ar  1295  HEM1295     0.0000
     18  C4B       -9.0000    3.5460    2.5480 C.ar  1295  HEM1295     0.0000
     19  CMB       -7.7100    1.3670    5.2890 C.3   1295  HEM1295     0.0000
     20  CAB       -6.8190    4.1040    3.8830 C.2   1295  HEM1295     0.0000
     21  CBB       -6.3110    4.2230    5.0600 C.2   1295  HEM1295     0.0000
     22  C1C       -9.8010    4.8170    0.6700 C.2   1295  HEM1295     0.0000
     23  C2C       -9.6120    5.8060   -0.3710 C.2   1295  HEM1295     0.0000
     24  C3C      -10.6450    5.6980   -1.1990 C.2   1295  HEM1295     0.0000
     25  C4C      -11.4950    4.6390   -0.7110 C.2   1295  HEM1295     0.0000
     26  CMC       -8.4430    6.7560   -0.5170 C.3   1295  HEM1295     0.0000
     27  CAC      -10.8940    6.4700   -2.4920 C.2   1295  HEM1295     0.0000
     28  CBC      -10.6080    7.7120   -2.6860 C.2   1295  HEM1295     0.0000
     29  C1D      -13.4750    3.2710   -0.7690 C.ar  1295  HEM1295     0.0000
     30  C2D      -14.8270    3.0370   -1.2300 C.ar  1295  HEM1295     0.0000
     31  C3D      -15.3130    1.8290   -0.4910 C.ar  1295  HEM1295     0.0000
     32  C4D      -14.2220    1.4620    0.3680 C.ar  1295  HEM1295     0.0000
     33  CMD      -15.6040    3.8180   -2.2750 C.3   1295  HEM1295     0.0000
     34  CAD      -16.6820    1.1590   -0.5900 C.3   1295  HEM1295     0.0000
     35  CBD      -16.6520    0.0130   -1.5830 C.3   1295  HEM1295     0.0000
     36  CGD      -18.0040   -0.6800   -1.6850 C.2   1295  HEM1295     0.0000
     37  O1D      -18.0190   -1.6940   -2.3640 O.co2 1295  HEM1295     0.0000
     38  O2D      -18.9650   -0.2230   -1.1250 O.co2 1295  HEM1295     0.0000
     39  NA       -12.1780    0.7770    2.3740 N.2   1295  HEM1295     0.0000
     40  NB        -9.8940    2.5390    2.5920 N.ar  1295  HEM1295     0.0000
     41  NC       -10.9310    4.1740    0.3920 N.2   1295  HEM1295     0.0000
     42  ND       -13.2240    2.3120    0.1270 N.ar  1295  HEM1295     0.0000
     43 FE        -11.5960    2.4890    1.4010 Fe    1295  HEM1295     0.0000
@<TRIPOS>BOND
     1    28    27    2
     2    27    24    1
     3    37    36   ar
     4    33    30    1
     5    36    35    1
     6    36    38   ar
     7    35    34    1
     8     4    29    2
     9     4    25    1
    10    30    29   ar
    11    30    31   ar
    12    24    25    1
    13    24    23    2
    14    29    42   ar
    15    25    41    2
    16    34    31    1
    17    26    23    1
    18    31    32   ar
    19    23    22    1
    20    42    32   ar
    21    42    43    1
    22    32     1    2
    23    41    22    1
    24    41    43    1
    25    22     3    2
    26    14    12   ar
    27     1     5    1
    28    43    39    1
    29    43    40    1
    30    11    12    1
    31    11    10    1
    32    12    13   ar
    33     3    18    1
    34     5    39    2
    35     5     6    1
    36    39     8    1
    37    18    40   ar
    38    18    17   ar
    39    40    15   ar
    40    10     6    1
    41     6     7    2
    42     8     7    1
    43     8     2    2
    44    15     2    1
    45    15    16   ar
    46    17    20    1
    47    17    16   ar
    48     7     9    1
    49    20    21    2
    50    16    19    1
