@<TRIPOS>MOLECULE
2xj6_HEM_A_1.pdb
 43 50 0 0 0
SMALL
GASTEIGER

@<TRIPOS>ATOM
      1  CHA       13.3300   57.6380   20.3390 C.2   1001  HEM1001     0.0000
      2  CHB       12.3750   55.1730   16.2620 C.2   1001  HEM1001     0.0000
      3  CHC       15.5370   51.8470   17.8870 C.2   1001  HEM1001     0.0000
      4  CHD       16.7640   54.5460   21.6070 C.2   1001  HEM1001     0.0000
      5  C1A       12.8020   57.2260   19.1800 C.ar  1001  HEM1001     0.0000
      6  C2A       11.7940   57.9860   18.4630 C.ar  1001  HEM1001     0.0000
      7  C3A       11.5140   57.3040   17.3570 C.ar  1001  HEM1001     0.0000
      8  C4A       12.3270   56.1160   17.2700 C.ar  1001  HEM1001     0.0000
      9  CMA       10.5020   57.5950   16.2410 C.3   1001  HEM1001     0.0000
     10  CAA       11.2010   59.2780   19.0900 C.3   1001  HEM1001     0.0000
     11  CBA       11.9890   60.5210   18.6630 C.3   1001  HEM1001     0.0000
     12  CGA       11.3190   61.8050   19.1790 C.2   1001  HEM1001     0.0000
     13  O1A       10.3070   62.1820   18.6250 O.co2 1001  HEM1001     0.0000
     14  O2A       11.8710   62.4170   20.0810 O.co2 1001  HEM1001     0.0000
     15  C1B       13.1280   54.0240   16.4260 C.2   1001  HEM1001     0.0000
     16  C2B       12.9910   52.8590   15.6100 C.2   1001  HEM1001     0.0000
     17  C3B       13.8290   51.9100   16.0440 C.2   1001  HEM1001     0.0000
     18  C4B       14.5410   52.4530   17.2150 C.2   1001  HEM1001     0.0000
     19  CMB       11.9800   52.7900   14.4760 C.3   1001  HEM1001     0.0000
     20  CAB       13.9300   50.5000   15.4500 C.2   1001  HEM1001     0.0000
     21  CBB       14.2480   49.5020   16.2220 C.2   1001  HEM1001     0.0000
     22  C1C       16.2450   52.3650   18.8930 C.ar  1001  HEM1001     0.0000
     23  C2C       17.4660   51.7560   19.4720 C.ar  1001  HEM1001     0.0000
     24  C3C       17.8020   52.4950   20.5150 C.ar  1001  HEM1001     0.0000
     25  C4C       16.7970   53.5660   20.6580 C.ar  1001  HEM1001     0.0000
     26  CMC       18.1480   50.5200   18.8560 C.3   1001  HEM1001     0.0000
     27  CAC       19.0190   52.3660   21.4630 C.2   1001  HEM1001     0.0000
     28  CBC       19.3240   51.2700   22.0710 C.2   1001  HEM1001     0.0000
     29  C1D       15.8430   55.5400   21.6730 C.2   1001  HEM1001     0.0000
     30  C2D       15.6720   56.3940   22.8070 C.2   1001  HEM1001     0.0000
     31  C3D       14.6160   57.3610   22.4560 C.2   1001  HEM1001     0.0000
     32  C4D       14.2390   57.0110   21.0990 C.2   1001  HEM1001     0.0000
     33  CMD       16.4160   56.3230   24.1160 C.3   1001  HEM1001     0.0000
     34  CAD       14.1020   58.4140   23.4790 C.3   1001  HEM1001     0.0000
     35  CBD       14.7190   59.7530   23.1880 C.3   1001  HEM1001     0.0000
     36  CGD       14.2820   60.9050   24.1300 C.2   1001  HEM1001     0.0000
     37  O1D       14.4590   62.0590   23.7660 O.co2 1001  HEM1001     0.0000
     38  O2D       13.7540   60.6070   25.1590 O.co2 1001  HEM1001     0.0000
     39  NA        13.0790   56.1670   18.3620 N.ar  1001  HEM1001     0.0000
     40  NB        14.0750   53.7090   17.3610 N.2   1001  HEM1001     0.0000
     41  NC        15.9210   53.3880   19.7160 N.ar  1001  HEM1001     0.0000
     42  ND        15.0040   55.9910   20.7210 N.2   1001  HEM1001     0.0000
     43 FE         14.4090   54.7040   19.2120 Fe    1001  HEM1001     0.0000
@<TRIPOS>BOND
     1    19    16    1
     2    20    17    1
     3    20    21    2
     4    16    17    2
     5    16    15    1
     6    17    18    1
     7     9     7    1
     8     2    15    1
     9     2     8    2
    10    15    40    2
    11    18    40    1
    12    18     3    2
    13     8     7   ar
    14     8    39   ar
    15     7     6   ar
    16    40    43    1
    17     3    22    1
    18    39     5   ar
    19    39    43    1
    20     6    10    1
    21     6     5   ar
    22    13    12   ar
    23    11    10    1
    24    11    12    1
    25    26    23    1
    26    22    23   ar
    27    22    41   ar
    28    12    14   ar
    29     5     1    2
    30    43    41    1
    31    43    42    1
    32    23    24   ar
    33    41    25   ar
    34     1    32    1
    35    24    25   ar
    36    24    27    1
    37    25     4    1
    38    42    32    2
    39    42    29    1
    40    32    31    1
    41    27    28    2
    42     4    29    2
    43    29    30    1
    44    31    30    2
    45    31    34    1
    46    30    33    1
    47    35    34    1
    48    35    36    1
    49    37    36   ar
    50    36    38   ar
