@<TRIPOS>MOLECULE
2xj7_GC2_A_1.pdb
 16 17 0 0 0
SMALL
GASTEIGER

@<TRIPOS>ATOM
      1  O1         0.3980  -32.4170   32.3570 O.2   1000  GC21000    -0.2733
      2  C8         1.5920  -32.5180   32.0060 C.2   1000  GC21000     0.2419
      3  C10        1.9700  -33.2280   30.7040 C.3   1000  GC21000     0.0964
      4  N2         2.6280  -31.9320   32.7010 N.am  1000  GC21000    -0.2030
      5  C2         2.5620  -31.1990   33.9910 C.3   1000  GC21000     0.1440
      6  C3         2.2750  -32.2870   35.0610 C.3   1000  GC21000     0.2046
      7  O4         3.4980  -32.7140   35.6260 O.3   1000  GC21000    -0.2185
      8  C4         1.3750  -31.7170   36.1530 C.3   1000  GC21000     0.2008
      9  O2         1.1720  -32.6840   37.1610 O.3   1000  GC21000    -0.2188
     10  C1         1.4970  -30.0730   34.0910 C.3   1000  GC21000     0.0968
     11  N1         0.1340  -30.5980   34.2970 N.3   1000  GC21000    -0.2680
     12  C5        -0.0010  -31.4410   35.5100 C.3   1000  GC21000     0.1215
     13  C9        -0.9490  -29.5930   34.2840 C.3   1000  GC21000     0.0749
     14  C7        -1.8890  -29.9530   35.4500 C.3   1000  GC21000     0.0517
     15  C6        -0.9680  -30.6780   36.4390 C.3   1000  GC21000     0.1704
     16  O3        -0.2490  -29.7020   37.2140 O.3   1000  GC21000    -0.2216
@<TRIPOS>BOND
     1     3     2    1
     2     2     1    2
     3     2     4   am
     4     4     5    1
     5     5    10    1
     6     5     6    1
     7    10    11    1
     8    13    11    1
     9    13    14    1
    10    11    12    1
    11     6     7    1
    12     6     8    1
    13    14    15    1
    14    12     8    1
    15    12    15    1
    16     8     9    1
    17    15    16    1
