@<TRIPOS>MOLECULE
2xj8_HEM_A_1.pdb
 43 50 0 0 0
SMALL
GASTEIGER

@<TRIPOS>ATOM
      1  CHA      -14.2210    0.3030    1.0440 C.2   1295  HEM1295     0.0000
      2  CHB      -10.2250    0.4560    3.7780 C.2   1295  HEM1295     0.0000
      3  CHC       -8.9640    4.5670    1.6120 C.2   1295  HEM1295     0.0000
      4  CHD      -12.6910    4.2460   -1.3280 C.2   1295  HEM1295     0.0000
      5  C1A      -13.2530   -0.0250    1.9200 C.2   1295  HEM1295     0.0000
      6  C2A      -13.2620   -1.1670    2.7880 C.2   1295  HEM1295     0.0000
      7  C3A      -12.1770   -1.1210    3.5490 C.2   1295  HEM1295     0.0000
      8  C4A      -11.4140    0.0420    3.2060 C.2   1295  HEM1295     0.0000
      9  CMA      -11.7180   -2.1140    4.6210 C.3   1295  HEM1295     0.0000
     10  CAA      -14.3960   -2.1920    2.7540 C.3   1295  HEM1295     0.0000
     11  CBA      -14.2230   -3.1750    1.6230 C.3   1295  HEM1295     0.0000
     12  CGA      -15.3130   -4.2000    1.6590 C.2   1295  HEM1295     0.0000
     13  O1A      -15.4430   -4.8220    2.6950 O.co2 1295  HEM1295     0.0000
     14  O2A      -15.9900   -4.3320    0.6640 O.co2 1295  HEM1295     0.0000
     15  C1B       -9.5470    1.5850    3.4410 C.ar  1295  HEM1295     0.0000
     16  C2B       -8.3770    2.0820    4.0740 C.ar  1295  HEM1295     0.0000
     17  C3B       -8.0130    3.2150    3.4870 C.ar  1295  HEM1295     0.0000
     18  C4B       -8.9770    3.5160    2.4510 C.ar  1295  HEM1295     0.0000
     19  CMB       -7.7270    1.3210    5.2090 C.3   1295  HEM1295     0.0000
     20  CAB       -6.8230    4.1140    3.7920 C.2   1295  HEM1295     0.0000
     21  CBB       -6.3050    4.2040    4.9830 C.2   1295  HEM1295     0.0000
     22  C1C       -9.7850    4.7970    0.5720 C.2   1295  HEM1295     0.0000
     23  C2C       -9.6150    5.7860   -0.4780 C.2   1295  HEM1295     0.0000
     24  C3C      -10.6610    5.6810   -1.3140 C.2   1295  HEM1295     0.0000
     25  C4C      -11.5070    4.6480   -0.8130 C.2   1295  HEM1295     0.0000
     26  CMC       -8.4170    6.7430   -0.5980 C.3   1295  HEM1295     0.0000
     27  CAC      -10.9830    6.4460   -2.6130 C.2   1295  HEM1295     0.0000
     28  CBC      -10.6120    7.6550   -2.7800 C.2   1295  HEM1295     0.0000
     29  C1D      -13.4910    3.2540   -0.8500 C.ar  1295  HEM1295     0.0000
     30  C2D      -14.8580    3.0350   -1.3100 C.ar  1295  HEM1295     0.0000
     31  C3D      -15.3390    1.8120   -0.5930 C.ar  1295  HEM1295     0.0000
     32  C4D      -14.2260    1.3900    0.2380 C.ar  1295  HEM1295     0.0000
     33  CMD      -15.6890    3.8550   -2.2890 C.3   1295  HEM1295     0.0000
     34  CAD      -16.7230    1.1720   -0.7120 C.3   1295  HEM1295     0.0000
     35  CBD      -16.7120    0.0380   -1.7140 C.3   1295  HEM1295     0.0000
     36  CGD      -18.0290   -0.7010   -1.7460 C.2   1295  HEM1295     0.0000
     37  O1D      -18.0410   -1.7230   -2.4070 O.co2 1295  HEM1295     0.0000
     38  O2D      -18.9910   -0.2700   -1.1430 O.co2 1295  HEM1295     0.0000
     39  NA       -12.1530    0.6420    2.2460 N.2   1295  HEM1295     0.0000
     40  NB        -9.8440    2.5040    2.5060 N.ar  1295  HEM1295     0.0000
     41  NC       -10.9230    4.1530    0.2740 N.2   1295  HEM1295     0.0000
     42  ND       -13.2090    2.2450    0.0150 N.ar  1295  HEM1295     0.0000
     43 FE        -11.6600    2.5510    1.4070 Fe    1295  HEM1295     0.0000
@<TRIPOS>BOND
     1    28    27    2
     2    27    24    1
     3    37    36   ar
     4    33    30    1
     5    36    35    1
     6    36    38   ar
     7    35    34    1
     8     4    29    2
     9     4    25    1
    10    24    25    1
    11    24    23    2
    12    30    29   ar
    13    30    31   ar
    14    29    42   ar
    15    25    41    2
    16    34    31    1
    17    26    23    1
    18    31    32   ar
    19    23    22    1
    20    42    32   ar
    21    42    43    1
    22    32     1    2
    23    41    22    1
    24    41    43    1
    25    22     3    2
    26    14    12   ar
    27     1     5    1
    28    43    39    1
    29    43    40    1
    30     3    18    1
    31    11    12    1
    32    11    10    1
    33    12    13   ar
    34     5    39    2
    35     5     6    1
    36    39     8    1
    37    18    40   ar
    38    18    17   ar
    39    40    15   ar
    40    10     6    1
    41     6     7    2
    42     8     7    1
    43     8     2    2
    44    15     2    1
    45    15    16   ar
    46    17    20    1
    47    17    16   ar
    48     7     9    1
    49    20    21    2
    50    16    19    1
