@<TRIPOS>MOLECULE
2xj9_AGS_A_1.pdb
 31 33 0 0 0
SMALL
GASTEIGER

@<TRIPOS>ATOM
      1  PG        21.6470   -1.6000   22.3390 P.3   1272  AGS1272     0.4340
      2  S1G       22.8230   -2.5480   22.1040 S.3   1272  AGS1272     0.0416
      3  O2G       20.6480   -2.0500   23.3830 O.3   1272  AGS1272    -0.1305
      4  O3G       20.9270   -1.1060   21.1030 O.2   1272  AGS1272    -0.2423
      5  PB        22.1610    1.2260   22.3000 P.3   1272  AGS1272     0.2262
      6  O1B       23.5020    1.4770   21.6460 O.3   1272  AGS1272    -0.4369
      7  O2B       20.8330    1.3190   21.5920 O.2   1272  AGS1272    -0.5168
      8  O3B       22.2910   -0.2470   22.9580 O.3   1272  AGS1272    -0.2405
      9  PA        20.9680    3.1600   24.0150 P.3   1272  AGS1272     0.2189
     10  O1A       20.7940    4.2640   22.9930 O.2   1272  AGS1272    -0.5170
     11  O2A       19.7890    2.3580   24.4290 O.3   1272  AGS1272    -0.4371
     12  O3A       22.1400    2.1800   23.5800 O.3   1272  AGS1272    -0.2701
     13  O5'       21.6670    3.7640   25.3220 O.3   1272  AGS1272    -0.3112
     14  C5'       21.9660    2.9100   26.4130 C.3   1272  AGS1272     0.1813
     15  C4'       21.2970    3.4310   27.6950 C.3   1272  AGS1272     0.1821
     16  O4'       21.8720    4.6890   27.9310 O.3   1272  AGS1272    -0.3135
     17  C3'       19.8080    3.7120   27.5950 C.3   1272  AGS1272     0.2184
     18  O3'       19.2210    3.5050   28.8680 O.3   1272  AGS1272    -0.2174
     19  C2'       19.6540    5.1860   27.2910 C.3   1272  AGS1272     0.2570
     20  O2'       18.4180    5.6440   27.8580 O.3   1272  AGS1272    -0.2130
     21  C1'       20.8980    5.7310   27.9610 C.3   1272  AGS1272     0.3186
     22  N9        21.6680    6.8370   27.3470 N.pl3 1272  AGS1272    -0.1439
     23  C8        22.3930    6.7720   26.2060 C.3   1272  AGS1272     0.3377
     24  N7        23.0290    7.9520   25.9570 N.2   1272  AGS1272    -0.2095
     25  C5        22.7180    8.7700   26.9790 C.2   1272  AGS1272     0.2526
     26  C6        23.0490   10.1380   27.3470 C.2   1272  AGS1272     0.4393
     27  N6        23.8510   10.8680   26.5470 N.pl3 1272  AGS1272     0.2180
     28  N1        22.5270   10.6110   28.4980 N.2   1272  AGS1272     0.0021
     29  C2        21.7200    9.8960   29.2980 C.3   1272  AGS1272     0.5254
     30  N3        21.3710    8.6410   29.0270 N.2   1272  AGS1272    -0.0055
     31  C4        21.8380    8.0400   27.9030 C.2   1272  AGS1272     0.3518
@<TRIPOS>BOND
     1     4     1    2
     2     7     5    2
     3     6     5    1
     4     2     1    1
     5     5     8    1
     6     5    12    1
     7     1     8    1
     8     1     3    1
     9    10     9    2
    10    12     9    1
    11     9    11    1
    12     9    13    1
    13    13    14    1
    14    24    23    1
    15    24    25    2
    16    23    22    1
    17    14    15    1
    18    27    26    1
    19    25    26    1
    20    25    31    1
    21    19    17    1
    22    19    20    1
    23    19    21    1
    24    26    28    2
    25    22    31    1
    26    22    21    1
    27    17    15    1
    28    17    18    1
    29    15    16    1
    30    31    30    2
    31    16    21    1
    32    28    29    1
    33    30    29    1
