@<TRIPOS>MOLECULE
2xja_ADP_A_1.pdb
 27 29 0 0 0
SMALL
GASTEIGER

@<TRIPOS>ATOM
      1  PB        -4.6720    1.3420   -0.1140 P.3   1533  ADP1533     0.5373
      2  O1B       -4.6390    2.2000    1.1170 O.3   1533  ADP1533    -0.1143
      3  O2B       -4.5890    2.0730   -1.4230 O.2   1533  ADP1533    -0.2221
      4  O3B       -3.6950    0.1860    0.0350 O.3   1533  ADP1533    -0.1143
      5  PA        -7.2870    0.2950    0.7890 P.3   1533  ADP1533     0.2231
      6  O1A       -8.2940   -0.6410    0.1460 O.2   1533  ADP1533    -0.5169
      7  O2A       -6.5680   -0.1810    2.0550 O.3   1533  ADP1533    -0.4370
      8  O3A       -6.1720    0.7260   -0.3350 O.3   1533  ADP1533    -0.2261
      9  O5'       -7.9660    1.7500    1.0710 O.3   1533  ADP1533    -0.3111
     10  C5'       -7.7280    2.5450    2.2580 C.3   1533  ADP1533     0.1813
     11  C4'       -9.0250    3.1710    2.7710 C.3   1533  ADP1533     0.1821
     12  O4'       -9.7600    3.8670    1.7440 O.3   1533  ADP1533    -0.3135
     13  C3'       -9.9620    2.0910    3.2790 C.3   1533  ADP1533     0.2184
     14  O3'      -10.5110    2.6230    4.4750 O.3   1533  ADP1533    -0.2174
     15  C2'      -10.9940    1.8960    2.1650 C.3   1533  ADP1533     0.2570
     16  O2'      -12.3050    1.5320    2.5890 O.3   1533  ADP1533    -0.2130
     17  C1'      -11.0070    3.2190    1.4200 C.3   1533  ADP1533     0.3186
     18  N9       -11.0500    2.9770   -0.0440 N.pl3 1533  ADP1533    -0.1439
     19  C8       -10.9070    1.7870   -0.6730 C.3   1533  ADP1533     0.3377
     20  N7       -10.9770    1.9290   -2.0220 N.2   1533  ADP1533    -0.2095
     21  C5       -11.1690    3.2350   -2.2750 C.2   1533  ADP1533     0.2526
     22  C6       -11.3330    4.0680   -3.4830 C.2   1533  ADP1533     0.4393
     23  N6       -11.3110    3.5030   -4.7120 N.pl3 1533  ADP1533     0.2180
     24  N1       -11.5020    5.4070   -3.3030 N.2   1533  ADP1533     0.0021
     25  C2       -11.5290    5.9910   -2.0810 C.3   1533  ADP1533     0.5254
     26  N3       -11.3900    5.2920   -0.9400 N.2   1533  ADP1533    -0.0055
     27  C4       -11.2110    3.9340   -0.9720 C.2   1533  ADP1533     0.3518
@<TRIPOS>BOND
     1    23    22    1
     2    22    24    2
     3    22    21    1
     4    24    25    1
     5    21    20    2
     6    21    27    1
     7    25    26    1
     8    20    19    1
     9     3     1    2
    10    27    26    2
    11    27    18    1
    12    19    18    1
    13     8     1    1
    14     8     5    1
    15     1     4    1
    16     1     2    1
    17    18    17    1
    18     6     5    2
    19     5     9    1
    20     5     7    1
    21     9    10    1
    22    17    12    1
    23    17    15    1
    24    12    11    1
    25    15    16    1
    26    15    13    1
    27    10    11    1
    28    11    13    1
    29    13    14    1
