@<TRIPOS>MOLECULE
2xjb_DG_A_1.pdb
 23 25 0 0 0
SMALL
GASTEIGER

@<TRIPOS>ATOM
      1  P          6.8500   18.2440   43.1510 P.3   1491  DG1491      0.5327
      2  OP3        7.6210   17.8330   44.3340 O.3   1491  DG1491     -0.1145
      3  OP1        5.8870   19.5930   43.1920 O.3   1491  DG1491     -0.1145
      4  O5'        5.6970   17.0440   42.9600 O.3   1491  DG1491     -0.2675
      5  O3'        4.8930   14.7690   38.9120 O.3   1491  DG1491     -0.2203
      6  C1'        2.6910   14.5250   40.8740 C.3   1491  DG1491      0.1981
      7  C2'        2.8120   15.5340   39.7520 C.3   1491  DG1491      0.0865
      8  C3'        4.3060   15.7800   39.7230 C.3   1491  DG1491      0.1857
      9  C4'        4.7290   15.5750   41.1950 C.3   1491  DG1491      0.1774
     10  C5'        4.9520   16.9890   41.7610 C.3   1491  DG1491      0.1858
     11  O4'        3.6160   14.9990   41.8670 O.3   1491  DG1491     -0.3347
     12  N2         0.2470   10.0170   42.0010 N.pl3 1491  DG1491     -0.0226
     13  O6        -2.4160   13.4940   43.5530 O.2   1491  DG1491     -0.2069
     14  C6        -1.3950   13.0940   42.9990 C.1   1491  DG1491      0.2372
     15  C5        -0.4630   13.9960   42.5460 C.2   1491  DG1491      0.2182
     16  N7        -0.4150   15.3240   42.5720 N.2   1491  DG1491     -0.2322
     17  C8         0.7220   15.6950   41.9680 C.3   1491  DG1491      0.2245
     18  N9         1.3970   14.5920   41.5540 N.pl3 1491  DG1491     -0.2374
     19  C4         0.6870   13.5280   41.9070 C.2   1491  DG1491      0.2299
     20  N3         0.9100   12.2150   41.7270 N.2   1491  DG1491     -0.3074
     21  C2         0.0020   11.3130   42.1630 C.1   1491  DG1491      0.2531
     22  N1        -1.1720   11.7410   42.8040 N.2   1491  DG1491     -0.2485
     23  OP2        8.0210   18.5820   41.9380 O.2   1491  DG1491     -0.2224
@<TRIPOS>BOND
     1     5     8    1
     2     8     7    1
     3     8     9    1
     4     7     6    1
     5     6    18    1
     6     6    11    1
     7     9    10    1
     8     9    11    1
     9    18    19    1
    10    18    17    1
    11    20    19    2
    12    20    21    2
    13    10     4    1
    14    19    15    1
    15    23     1    2
    16    17    16    1
    17    12    21    1
    18    21    22    2
    19    15    16    2
    20    15    14    1
    21    22    14    2
    22     4     1    1
    23    14    13    2
    24     1     3    1
    25     1     2    1
