@<TRIPOS>MOLECULE
2xjb_DTP_A_1.pdb
 30 32 0 0 0
SMALL
GASTEIGER

@<TRIPOS>ATOM
      1  PG        -2.6570   23.0420   64.2060 P.3   1490  DTP1490     0.5373
      2  O1G       -2.7660   23.7480   62.8580 O.2   1490  DTP1490    -0.2221
      3  O2G       -1.2370   22.9290   64.7290 O.3   1490  DTP1490    -0.1143
      4  O3G       -3.5810   23.6400   65.2620 O.3   1490  DTP1490    -0.1143
      5  PB        -2.1440   20.3460   63.3790 P.3   1490  DTP1490     0.2277
      6  O1B       -1.4060   19.7210   64.5260 O.3   1490  DTP1490    -0.4368
      7  O2B       -1.2470   20.8490   62.2710 O.2   1490  DTP1490    -0.5168
      8  O3B       -3.1370   21.5090   63.8810 O.3   1490  DTP1490    -0.2258
      9  PA        -4.4010   18.5200   63.5010 P.3   1490  DTP1490     0.2189
     10  O1A       -5.4850   19.5510   63.6570 O.2   1490  DTP1490    -0.5170
     11  O2A       -4.0850   17.6770   64.7300 O.3   1490  DTP1490    -0.4371
     12  O3A       -3.0270   19.1320   62.8690 O.3   1490  DTP1490    -0.2700
     13  O5'       -4.7730   17.6500   62.1550 O.3   1490  DTP1490    -0.3112
     14  C5'       -4.4980   16.2630   62.0470 C.3   1490  DTP1490     0.1813
     15  C4'       -3.4790   15.8710   60.9790 C.3   1490  DTP1490     0.1795
     16  O4'       -3.5470   16.5710   59.7220 O.3   1490  DTP1490    -0.3155
     17  C3'       -2.0620   16.0130   61.4920 C.3   1490  DTP1490     0.1883
     18  O3'       -1.5620   14.6850   61.3730 O.3   1490  DTP1490    -0.2202
     19  C2'       -1.3310   16.9400   60.5290 C.3   1490  DTP1490     0.1151
     20  C1'       -2.2070   16.8200   59.2800 C.3   1490  DTP1490     0.2873
     21  N9        -2.2400   18.0820   58.4900 N.pl3 1490  DTP1490    -0.1460
     22  C8        -2.1150   19.3230   59.0100 C.3   1490  DTP1490     0.3377
     23  N7        -2.1990   20.2400   58.0450 N.2   1490  DTP1490    -0.2095
     24  C5        -2.3840   19.5890   56.8630 C.2   1490  DTP1490     0.2526
     25  C6        -2.5400   19.9710   55.4490 C.2   1490  DTP1490     0.4393
     26  N6        -2.5090   21.2990   55.1380 N.pl3 1490  DTP1490     0.2180
     27  N1        -2.6850   18.9790   54.5080 N.2   1490  DTP1490     0.0021
     28  C2        -2.7090   17.6700   54.8280 C.3   1490  DTP1490     0.5254
     29  N3        -2.5490   17.2440   56.1000 N.2   1490  DTP1490    -0.0055
     30  C4        -2.4020   18.1470   57.1430 C.2   1490  DTP1490     0.3518
@<TRIPOS>BOND
     1    27    28    1
     2    27    25    2
     3    28    29    1
     4    26    25    1
     5    25    24    1
     6    29    30    2
     7    24    30    1
     8    24    23    2
     9    30    21    1
    10    23    22    1
    11    21    22    1
    12    21    20    1
    13    20    16    1
    14    20    19    1
    15    16    15    1
    16    19    17    1
    17    15    17    1
    18    15    14    1
    19    18    17    1
    20    14    13    1
    21    13     9    1
    22     7     5    2
    23     2     1    2
    24    12     5    1
    25    12     9    1
    26     5     8    1
    27     5     6    1
    28     9    10    2
    29     9    11    1
    30     8     1    1
    31     1     3    1
    32     1     4    1
