@<TRIPOS>MOLECULE
2xjc_5GP_A_1.pdb
 24 26 0 0 0
SMALL
GASTEIGER

@<TRIPOS>ATOM
      1  P          7.0630   18.5480   42.7650 P.3   1489  5GP1489     0.5327
      2  O1P        8.0930   18.8730   41.7000 O.2   1489  5GP1489    -0.2224
      3  O2P        5.9320   19.5310   42.8860 O.3   1489  5GP1489    -0.1145
      4  O3P        7.6770   18.0480   44.0710 O.3   1489  5GP1489    -0.1145
      5  O5'        6.2540   17.2490   42.2670 O.3   1489  5GP1489    -0.2675
      6  C5'        5.3060   17.2360   41.2310 C.3   1489  5GP1489     0.1859
      7  C4'        5.0180   15.7920   40.8750 C.3   1489  5GP1489     0.1801
      8  O4'        3.9600   15.4020   41.7270 O.3   1489  5GP1489    -0.3326
      9  C3'        4.5240   15.6300   39.4320 C.3   1489  5GP1489     0.2158
     10  O3'        5.1020   14.4820   38.8040 O.3   1489  5GP1489    -0.2175
     11  C2'        3.0560   15.3510   39.6000 C.3   1489  5GP1489     0.2310
     12  O2'        2.5710   14.4840   38.5750 O.3   1489  5GP1489    -0.2158
     13  C1'        2.9920   14.6990   40.9690 C.3   1489  5GP1489     0.2293
     14  N9         1.6280   14.8200   41.5670 N.pl3 1489  5GP1489    -0.2354
     15  C8         1.0050   15.9480   41.9700 C.3   1489  5GP1489     0.2246
     16  N7        -0.2250   15.6460   42.4400 N.2   1489  5GP1489    -0.2322
     17  C5        -0.3690   14.3090   42.3720 C.2   1489  5GP1489     0.2182
     18  C6        -1.3900   13.4470   42.7320 C.1   1489  5GP1489     0.2372
     19  O6        -2.4460   13.9250   43.2260 O.2   1489  5GP1489    -0.2069
     20  N1        -1.2490   12.1110   42.5320 N.2   1489  5GP1489    -0.2485
     21  C2        -0.0900   11.6420   41.9850 C.1   1489  5GP1489     0.2531
     22  N2         0.1160   10.3230   41.7870 N.pl3 1489  5GP1489    -0.0226
     23  N3         0.9200   12.4740   41.6280 N.2   1489  5GP1489    -0.3074
     24  C4         0.7970   13.8050   41.8060 C.2   1489  5GP1489     0.2300
@<TRIPOS>BOND
     1    12    11    1
     2    10     9    1
     3     9    11    1
     4     9     7    1
     5    11    13    1
     6     7     6    1
     7     7     8    1
     8    13    14    1
     9    13     8    1
    10     6     5    1
    11    14    24    1
    12    14    15    1
    13    23    24    2
    14    23    21    2
    15     2     1    2
    16    22    21    1
    17    24    17    1
    18    15    16    1
    19    21    20    2
    20     5     1    1
    21    17    16    2
    22    17    18    1
    23    20    18    2
    24    18    19    2
    25     1     3    1
    26     1     4    1
