@<TRIPOS>MOLECULE
2xjd_ATP_A_1.pdb
 31 33 0 0 0
SMALL
GASTEIGER

@<TRIPOS>ATOM
      1  PG        48.8150   23.4190    1.0090 P.3   1489  ATP1489     0.5373
      2  O1G       49.8630   24.0220   -0.0820 O.2   1489  ATP1489    -0.2221
      3  O2G       47.4140   23.4890    0.5340 O.3   1489  ATP1489    -0.1143
      4  O3G       48.9600   24.2530    2.4080 O.3   1489  ATP1489    -0.1143
      5  PB        48.3790   20.7090    1.8480 P.3   1489  ATP1489     0.2277
      6  O1B       47.1490   20.6640    0.8200 O.2   1489  ATP1489    -0.5168
      7  O2B       47.8490   20.9660    3.2050 O.3   1489  ATP1489    -0.4368
      8  O3B       49.3690   21.8810    1.3240 O.3   1489  ATP1489    -0.2258
      9  PA        50.5630   18.8030    1.8730 P.3   1489  ATP1489     0.2189
     10  O1A       50.8340   17.6930    0.6800 O.2   1489  ATP1489    -0.5170
     11  O2A       51.6060   19.8750    1.8350 O.3   1489  ATP1489    -0.4371
     12  O3A       49.0460   19.2540    1.5730 O.3   1489  ATP1489    -0.2700
     13  O5'       50.5420   17.9970    3.3110 O.3   1489  ATP1489    -0.3112
     14  C5'       50.6150   16.5690    3.3620 C.3   1489  ATP1489     0.1813
     15  C4'       49.4990   16.0020    4.2310 C.3   1489  ATP1489     0.1821
     16  O4'       49.5090   16.7420    5.5230 O.3   1489  ATP1489    -0.3135
     17  C3'       48.1130   16.2260    3.6000 C.3   1489  ATP1489     0.2184
     18  O3'       47.3340   15.0290    3.7480 O.3   1489  ATP1489    -0.2174
     19  C2'       47.5190   17.3740    4.4450 C.3   1489  ATP1489     0.2570
     20  O2'       46.1100   17.2680    4.6050 O.3   1489  ATP1489    -0.2130
     21  C1'       48.1570   17.1550    5.8080 C.3   1489  ATP1489     0.3186
     22  N9        48.2250   18.4350    6.5990 N.pl3 1489  ATP1489    -0.1439
     23  C8        48.1110   19.7000    6.1460 C.3   1489  ATP1489     0.3377
     24  N7        48.2510   20.5440    7.1820 N.2   1489  ATP1489    -0.2095
     25  C5        48.4310   19.8130    8.2850 C.2   1489  ATP1489     0.2526
     26  C6        48.6330   20.1230    9.6340 C.2   1489  ATP1489     0.4393
     27  N6        48.6440   21.4170   10.0080 N.pl3 1489  ATP1489     0.2180
     28  N1        48.8120   19.1190   10.5240 N.2   1489  ATP1489     0.0021
     29  C2        48.7930   17.8380   10.1390 C.3   1489  ATP1489     0.5254
     30  N3        48.6060   17.5040    8.8550 N.2   1489  ATP1489    -0.0055
     31  C4        48.4380   18.4700    7.9160 C.2   1489  ATP1489     0.3518
@<TRIPOS>BOND
     1     2     1    2
     2     3     1    1
     3    10     9    2
     4     6     5    2
     5     1     8    1
     6     1     4    1
     7     8     5    1
     8    12     5    1
     9    12     9    1
    10    11     9    1
    11     5     7    1
    12     9    13    1
    13    13    14    1
    14    14    15    1
    15    17    18    1
    16    17    15    1
    17    17    19    1
    18    15    16    1
    19    19    20    1
    20    19    21    1
    21    16    21    1
    22    21    22    1
    23    23    22    1
    24    23    24    1
    25    22    31    1
    26    24    25    2
    27    31    25    1
    28    31    30    2
    29    25    26    1
    30    30    29    1
    31    26    27    1
    32    26    28    2
    33    29    28    1
