@<TRIPOS>MOLECULE
2xje_ATP_A_1.pdb
 31 33 0 0 0
SMALL
GASTEIGER

@<TRIPOS>ATOM
      1  PG        -2.7850   23.1650   64.3110 P.3   1490  ATP1490     0.5373
      2  O1G       -3.8570   23.5370   65.3340 O.3   1490  ATP1490    -0.1143
      3  O2G       -2.7520   24.0140   63.0460 O.2   1490  ATP1490    -0.2221
      4  O3G       -1.4120   23.0230   64.9470 O.3   1490  ATP1490    -0.1143
      5  PB        -2.1310   20.5460   63.4060 P.3   1490  ATP1490     0.2277
      6  O1B       -1.3090   20.1950   64.6230 O.3   1490  ATP1490    -0.4368
      7  O2B       -1.3050   21.0140   62.2140 O.2   1490  ATP1490    -0.5168
      8  O3B       -3.2090   21.6700   63.7830 O.3   1490  ATP1490    -0.2258
      9  PA        -4.3040   18.6090   63.4860 P.3   1490  ATP1490     0.2189
     10  O1A       -4.0250   17.6530   64.6390 O.3   1490  ATP1490    -0.4371
     11  O2A       -5.2900   19.7490   63.6010 O.2   1490  ATP1490    -0.5170
     12  O3A       -2.8790   19.1970   63.0000 O.3   1490  ATP1490    -0.2700
     13  O5'       -4.7800   17.7700   62.1500 O.3   1490  ATP1490    -0.3112
     14  C5'       -4.7540   16.3620   61.9340 C.3   1490  ATP1490     0.1813
     15  C4'       -3.5880   15.8730   61.0380 C.3   1490  ATP1490     0.1821
     16  O4'       -3.5390   16.4600   59.7200 O.3   1490  ATP1490    -0.3135
     17  C3'       -2.2090   16.0720   61.6520 C.3   1490  ATP1490     0.2184
     18  O3'       -1.5150   14.8320   61.5050 O.3   1490  ATP1490    -0.2174
     19  C2'       -1.6150   17.1980   60.7910 C.3   1490  ATP1490     0.2570
     20  O2'       -0.1970   17.3530   60.7210 O.3   1490  ATP1490    -0.2130
     21  C1'       -2.1870   16.8780   59.4300 C.3   1490  ATP1490     0.3186
     22  N9        -2.2200   18.1040   58.5990 N.pl3 1490  ATP1490    -0.1439
     23  C8        -2.1220   19.3540   59.0800 C.3   1490  ATP1490     0.3377
     24  N7        -2.2120   20.2400   58.0740 N.2   1490  ATP1490    -0.2095
     25  C5        -2.3830   19.5480   56.9180 C.2   1490  ATP1490     0.2526
     26  C6        -2.5440   19.8680   55.4920 C.2   1490  ATP1490     0.4393
     27  N6        -2.5710   21.1680   55.1140 N.pl3 1490  ATP1490     0.2180
     28  N1        -2.6790   18.8540   54.6000 N.2   1490  ATP1490     0.0021
     29  C2        -2.6920   17.5680   54.9680 C.3   1490  ATP1490     0.5254
     30  N3        -2.5310   17.2050   56.2520 N.2   1490  ATP1490    -0.0055
     31  C4        -2.3850   18.1300   57.2600 C.2   1490  ATP1490     0.3518
@<TRIPOS>BOND
     1    28    29    1
     2    28    26    2
     3    29    30    1
     4    27    26    1
     5    26    25    1
     6    30    31    2
     7    25    31    1
     8    25    24    2
     9    31    22    1
    10    24    23    1
    11    22    23    1
    12    22    21    1
    13    21    16    1
    14    21    19    1
    15    16    15    1
    16    20    19    1
    17    19    17    1
    18    15    17    1
    19    15    14    1
    20    18    17    1
    21    14    13    1
    22    13     9    1
    23     7     5    2
    24    12     5    1
    25    12     9    1
    26     3     1    2
    27     5     8    1
    28     5     6    1
    29     9    11    2
    30     9    10    1
    31     8     1    1
    32     1     4    1
    33     1     2    1
