@<TRIPOS>MOLECULE
2xje_U5P_A_1.pdb
 21 22 0 0 0
SMALL
GASTEIGER

@<TRIPOS>ATOM
      1  N1         1.0990   14.1780   41.6690 N.am  1489  U5P1489    -0.1766
      2  C2         0.3290   15.1920   42.2850 C.1   1489  U5P1489     0.2845
      3  N3        -0.9420   14.9830   42.6590 N.2   1489  U5P1489    -0.2452
      4  C4        -1.5300   13.8010   42.4640 C.1   1489  U5P1489     0.2182
      5  C5        -0.8150   12.7710   41.8590 C.2   1489  U5P1489     0.1242
      6  C6         0.5060   12.9890   41.4740 C.2   1489  U5P1489     0.0929
      7  O2         0.8290   16.3030   42.5030 O.2   1489  U5P1489    -0.1918
      8  O4        -2.7190   13.6330   42.8220 O.2   1489  U5P1489    -0.2085
      9  C1'        2.5150   14.3520   41.2240 C.3   1489  U5P1489     0.2401
     10  C2'        2.6340   15.1330   39.9380 C.3   1489  U5P1489     0.2319
     11  O2'        2.4070   14.2180   38.8760 O.3   1489  U5P1489    -0.2157
     12  C3'        4.0640   15.6510   39.9580 C.3   1489  U5P1489     0.2158
     13  C4'        4.5240   15.5900   41.4390 C.3   1489  U5P1489     0.1801
     14  O3'        4.8190   14.7940   39.0710 O.3   1489  U5P1489    -0.2175
     15  O4'        3.4160   15.0120   42.1370 O.3   1489  U5P1489    -0.3320
     16  C5'        4.8840   16.9060   42.1860 C.3   1489  U5P1489     0.1859
     17  O5'        6.3020   17.1870   42.1370 O.3   1489  U5P1489    -0.2675
     18  P          7.1390   18.3360   42.9730 P.3   1489  U5P1489     0.5327
     19  O1P        8.2650   18.7620   42.0230 O.2   1489  U5P1489    -0.2224
     20  O2P        6.1160   19.4200   43.2390 O.3   1489  U5P1489    -0.1145
     21  O3P        7.6830   17.6920   44.2350 O.3   1489  U5P1489    -0.1145
@<TRIPOS>BOND
     1    11    10    1
     2    14    12    1
     3    10    12    1
     4    10     9    1
     5    12    13    1
     6     9     1    1
     7     9    15    1
     8    13    15    1
     9    13    16    1
    10     6     1    1
    11     6     5    2
    12     1     2   am
    13     5     4    1
    14    19    18    2
    15    17    16    1
    16    17    18    1
    17     2     7    2
    18     2     3    2
    19     4     3    2
    20     4     8    2
    21    18    20    1
    22    18    21    1
