@<TRIPOS>MOLECULE
2xjf_DG2_A_1.pdb
 15 14 0 0 0
SMALL
GASTEIGER

@<TRIPOS>ATOM
      1  C3         0.4210   21.2200   66.2060 C.3   1489  DG21489     0.2583
      2  C4        -0.5240   20.6310   65.1480 C.3   1489  DG21489     0.1954
      3  O2         1.3490   22.1430   65.6150 O.3   1489  DG21489    -0.2584
      4  O5        -0.9790   21.5730   64.1610 O.3   1489  DG21489    -0.2670
      5  O7         0.0170   23.0320   67.6590 O.co2 1489  DG21489    -0.2428
      6  O8        -1.2170   21.2430   67.9610 O.co2 1489  DG21489    -0.2428
      7  O9         2.8080   23.3370   67.2440 O.3   1489  DG21489    -0.1145
      8  O10        3.2780   20.9270   66.6190 O.3   1489  DG21489    -0.1145
      9  O11        3.6270   22.8070   64.9150 O.2   1489  DG21489    -0.2224
     10  P1         2.8750   22.3020   66.1440 P.3   1489  DG21489     0.5331
     11  C7        -0.3140   21.8710   67.3500 C.2   1489  DG21489     0.3945
     12  P6        -2.2790   21.2360   63.2490 P.3   1489  DG21489     0.5327
     13  O15       -1.7120   20.3340   62.1770 O.2   1489  DG21489    -0.2224
     14  O14       -3.2630   20.5340   64.1480 O.3   1489  DG21489    -0.1145
     15  O13       -2.7890   22.5690   62.7690 O.3   1489  DG21489    -0.1145
@<TRIPOS>BOND
     1    13    12    2
     2    15    12    1
     3    12    14    1
     4    12     4    1
     5     4     2    1
     6     9    10    2
     7     2     1    1
     8     3    10    1
     9     3     1    1
    10    10     8    1
    11    10     7    1
    12     1    11    1
    13    11     5   ar
    14    11     6   ar
