@<TRIPOS>MOLECULE
2xjg_XJG_A_1.pdb
 23 25 0 0 0
SMALL
GASTEIGER

@<TRIPOS>ATOM
      1  C1        14.0990   -1.2060    8.9180 C.3   1224  XJG1224     0.0048
      2  C2        13.8360   -1.7880   10.3100 C.3   1224  XJG1224     0.0253
      3  C3        14.7110   -1.0830   11.3320 C.3   1224  XJG1224     0.0048
      4  C4        14.0460   -3.2980   10.3390 C.ar  1224  XJG1224     0.0118
      5  C5        15.1080   -3.8480    9.6140 C.ar  1224  XJG1224     0.0065
      6  C6        15.3360   -5.2220    9.6040 C.ar  1224  XJG1224     0.0923
      7  C7        16.4980   -5.7500    8.8540 C.2   1224  XJG1224     0.2526
      8  O8        17.5030   -6.0330    9.4770 O.2   1224  XJG1224    -0.2698
      9  N9        16.4330   -5.8750    7.4860 N.am  1224  XJG1224    -0.2678
     10  C10       17.5350   -6.4160    6.6740 C.3   1224  XJG1224     0.1205
     11  C11       16.8640   -6.6500    5.3460 C.ar  1224  XJG1224    -0.0047
     12  C12       17.3110   -7.3450    4.2310 C.ar  1224  XJG1224    -0.0029
     13  C13       16.5080   -7.4380    3.1030 C.ar  1224  XJG1224    -0.0003
     14  C14       15.2600   -6.8350    3.0890 C.ar  1224  XJG1224    -0.0003
     15  C15       14.8130   -6.1230    4.1940 C.ar  1224  XJG1224    -0.0029
     16  C16       15.6150   -6.0100    5.3230 C.ar  1224  XJG1224    -0.0047
     17  C17       15.3490   -5.3330    6.6450 C.3   1224  XJG1224     0.1205
     18  C18       14.4950   -6.0680   10.3460 C.ar  1224  XJG1224     0.2030
     19  O19       14.6810   -7.4160   10.3600 O.3   1224  XJG1224    -0.2863
     20  C20       13.4390   -5.5450   11.0660 C.ar  1224  XJG1224     0.0787
     21  C21       13.1980   -4.1890   11.0700 C.ar  1224  XJG1224     0.1379
     22  O22       12.1650   -3.6460   11.7560 O.3   1224  XJG1224    -0.4716
     23  C19       11.3330   -4.5470   12.5150 C.3   1224  XJG1224     0.2525
@<TRIPOS>BOND
     1    14    13   ar
     2    14    15   ar
     3    13    12   ar
     4    15    16   ar
     5    12    11   ar
     6    16    11   ar
     7    16    17    1
     8    11    10    1
     9    17     9    1
    10    10     9    1
    11     9     7   am
    12     7     8    2
    13     7     6    1
    14     1     2    1
    15     6     5   ar
    16     6    18   ar
    17     5     4   ar
    18     2     4    1
    19     2     3    1
    20     4    21   ar
    21    18    19    1
    22    18    20   ar
    23    20    21   ar
    24    21    22    1
    25    22    23    1
