@<TRIPOS>MOLECULE
2xjj_L81_A_1.pdb
 23 26 0 0 0
SMALL
GASTEIGER

@<TRIPOS>ATOM
      1  C1         1.6920   -1.4160   -3.0030 C.3   1225  L811225     0.0064
      2  C19        1.8320    0.6310   -4.4200 C.3   1225  L811225     0.0064
      3  C2         0.9010   -0.2450   -3.6030 C.3   1225  L811225     0.0426
      4  C3         0.1700    0.5580   -2.5060 C.3   1225  L811225     0.1294
      5  C4        -0.2540   -0.7900   -4.4180 C.2   1225  L811225    -0.0070
      6  C5        -0.2570   -1.4280   -5.6590 C.2   1225  L811225    -0.0124
      7  C6        -1.4500   -1.9410   -6.1920 C.3   1225  L811225     0.1599
      8  C7        -1.4440   -2.5990   -7.5470 C.2   1225  L811225     0.2372
      9  O8        -1.7630   -3.7830   -7.6510 O.2   1225  L811225    -0.2740
     10  N9        -1.1470   -1.8420   -8.6480 N.am  1225  L811225    -0.2707
     11  C10       -1.1020   -2.3880  -10.0230 C.3   1225  L811225     0.1202
     12  C11       -1.3730   -1.1670  -10.8570 C.ar  1225  L811225    -0.0047
     13  C12       -1.6260   -1.0550  -12.2170 C.ar  1225  L811225    -0.0029
     14  C13       -1.8390    0.1920  -12.7830 C.ar  1225  L811225    -0.0003
     15  C14       -1.8100    1.3300  -11.9910 C.ar  1225  L811225    -0.0003
     16  C15       -1.5540    1.2280  -10.6340 C.ar  1225  L811225    -0.0029
     17  C16       -1.3290   -0.0170  -10.0610 C.ar  1225  L811225    -0.0047
     18  C17       -1.0330   -0.3760   -8.6290 C.3   1225  L811225     0.1202
     19  C18       -2.6450   -1.8030   -5.4500 C.2   1225  L811225     0.1870
     20  O19       -3.8150   -2.3140   -5.9390 O.2   1225  L811225    -0.2904
     21  C20       -2.6280   -1.1810   -4.1950 C.2   1225  L811225     0.0566
     22  C21       -1.4320   -0.6870   -3.6900 C.2   1225  L811225     0.0747
     23  N5        -1.1600   -0.0440   -2.4900 N.2   1225  L811225    -0.2703
@<TRIPOS>BOND
     1    14    13   ar
     2    14    15   ar
     3    13    12   ar
     4    15    16   ar
     5    12    17   ar
     6    12    11    1
     7    16    17   ar
     8    17    18    1
     9    11    10    1
    10    10    18    1
    11    10     8   am
    12     9     8    2
    13     8     7    1
    14     7     6    1
    15     7    19    1
    16    20    19    1
    17     6     5    2
    18    19    21    2
    19     2     3    1
    20     5    22    1
    21     5     3    1
    22    21    22    1
    23    22    23    2
    24     3     1    1
    25     3     4    1
    26     4    23    1
