@<TRIPOS>MOLECULE
2xjp_BMA_A_1.pdb
 23 23 0 0 0
SMALL
GASTEIGER

@<TRIPOS>ATOM
      1  C1        44.6740   66.0090   49.2250 C.3   1278  BMA1278     0.2551
      2  C2        44.4140   66.7550   47.9460 C.3   1278  BMA1278     0.1424
      3  C3        42.9680   66.5360   47.5660 C.3   1278  BMA1278     0.1146
      4  C4        42.5960   65.0840   47.5530 C.3   1278  BMA1278     0.1119
      5  C5        42.8820   64.5000   48.9250 C.3   1278  BMA1278     0.1134
      6  C6        42.4350   63.0500   49.0220 C.3   1278  BMA1278     0.0730
      7  O1        46.0080   66.1050   49.5940 O.3   1278  BMA1278    -0.3586
      8  O2        45.2300   66.2110   46.9680 O.3   1278  BMA1278    -0.3836
      9  O3        42.6470   67.1580   46.3390 O.3   1278  BMA1278    -0.3864
     10  O4        41.1990   64.9880   47.2950 O.3   1278  BMA1278    -0.3865
     11  O5        44.2750   64.6690   49.2150 O.3   1278  BMA1278    -0.3341
     12  O6        43.2350   62.2190   49.8450 O.3   1278  BMA1278    -0.3924
     13  H2        44.6780   67.8010   48.0980 H     1278  BMA1278     0.0676
     14  H3        42.3400   66.9480   48.3580 H     1278  BMA1278     0.0648
     15  H4        43.1490   64.5950   46.7510 H     1278  BMA1278     0.0647
     16  H5        42.4770   65.1810   49.6740 H     1278  BMA1278     0.0647
     17  H61       42.4790   62.5880   48.0350 H     1278  BMA1278     0.0584
     18  H62       41.4010   63.0110   49.3630 H     1278  BMA1278     0.0584
     19  HO1       46.5210   65.8560   50.0830 H     1278  BMA1278     0.2130
     20  HO2       44.7140   65.8150   46.3100 H     1278  BMA1278     0.2101
     21  HO3       42.2950   66.4950   45.7780 H     1278  BMA1278     0.2100
     22  HO4       40.7020   65.1290   48.1270 H     1278  BMA1278     0.2100
     23  HO6       44.0730   62.6800   50.0610 H     1278  BMA1278     0.2095
@<TRIPOS>BOND
     1    21     9    1
     2    20     8    1
     3     9     3    1
     4    15     4    1
     5     8     2    1
     6    10     4    1
     7    10    22    1
     8     4     3    1
     9     4     5    1
    10     3     2    1
    11     3    14    1
    12     2    13    1
    13     2     1    1
    14    17     6    1
    15     5     6    1
    16     5    11    1
    17     5    16    1
    18     6    18    1
    19     6    12    1
    20    11     1    1
    21     1     7    1
    22     7    19    1
    23    12    23    1
