@<TRIPOS>MOLECULE
2xjp_MAN_A_1.pdb
 23 23 0 0 0
SMALL
GASTEIGER

@<TRIPOS>ATOM
      1  C1        44.6740   66.0090   49.2250 C.3   1277  MAN1277     0.2551
      2  C2        44.4140   66.7550   47.9460 C.3   1277  MAN1277     0.1424
      3  C3        42.9680   66.5360   47.5660 C.3   1277  MAN1277     0.1146
      4  C4        42.5960   65.0840   47.5530 C.3   1277  MAN1277     0.1119
      5  C5        42.8820   64.5000   48.9250 C.3   1277  MAN1277     0.1134
      6  C6        42.2470   63.2210   49.3630 C.3   1277  MAN1277     0.0730
      7  O1        44.0650   66.6770   50.3000 O.3   1277  MAN1277    -0.3586
      8  O2        45.2300   66.2110   46.9680 O.3   1277  MAN1277    -0.3836
      9  O3        42.6470   67.1580   46.3390 O.3   1277  MAN1277    -0.3864
     10  O4        41.1990   64.9880   47.2950 O.3   1277  MAN1277    -0.3865
     11  O5        44.2750   64.6690   49.2150 O.3   1277  MAN1277    -0.3341
     12  O6        43.0580   62.4610   48.5180 O.3   1277  MAN1277    -0.3924
     13  H2        44.6780   67.8010   48.0980 H     1277  MAN1277     0.0676
     14  H3        42.3400   66.9480   48.3580 H     1277  MAN1277     0.0648
     15  H4        43.1490   64.5950   46.7510 H     1277  MAN1277     0.0647
     16  H5        42.4770   65.1810   49.6740 H     1277  MAN1277     0.0647
     17  H61       41.1630   63.3170   49.3120 H     1277  MAN1277     0.0584
     18  H62       42.5160   63.0180   50.4010 H     1277  MAN1277     0.0584
     19  HO1       44.3910   66.2130   51.1640 H     1277  MAN1277     0.2130
     20  HO2       44.7140   65.8150   46.3100 H     1277  MAN1277     0.2101
     21  HO3       42.2950   66.4950   45.7780 H     1277  MAN1277     0.2100
     22  HO4       40.7020   65.1290   48.1270 H     1277  MAN1277     0.2100
     23  HO6       43.8490   62.1580   49.0100 H     1277  MAN1277     0.2095
@<TRIPOS>BOND
     1    21     9    1
     2    20     8    1
     3     9     3    1
     4    15     4    1
     5     8     2    1
     6    10     4    1
     7    10    22    1
     8     4     3    1
     9     4     5    1
    10     3     2    1
    11     3    14    1
    12     2    13    1
    13     2     1    1
    14    12    23    1
    15    12     6    1
    16     5    11    1
    17     5     6    1
    18     5    16    1
    19    11     1    1
    20     1     7    1
    21    17     6    1
    22     6    18    1
    23     7    19    1
