@<TRIPOS>MOLECULE
2xjr_MAN_A_1.pdb
 11 11 0 0 0
SMALL
GASTEIGER

@<TRIPOS>ATOM
      1  C1        44.6840   66.2580   49.5000 C.3   1278  MAN1278     0.1777
      2  C2        44.5430   66.8440   48.0890 C.3   1278  MAN1278     0.2141
      3  C3        43.0850   66.6480   47.6430 C.3   1278  MAN1278     0.2173
      4  C4        42.7040   65.1530   47.7040 C.3   1278  MAN1278     0.2142
      5  C5        42.9560   64.6420   49.1430 C.3   1278  MAN1278     0.1810
      6  O2        45.3960   66.1920   47.1570 O.3   1278  MAN1278    -0.2176
      7  O3        42.8210   67.1910   46.3730 O.3   1278  MAN1278    -0.2175
      8  O4        41.3330   65.0440   47.3970 O.3   1278  MAN1278    -0.2176
      9  O5        44.3090   64.8920   49.5260 O.3   1278  MAN1278    -0.3481
     10  C6        42.6030   63.1780   49.3590 C.3   1278  MAN1278     0.2141
     11  O6        43.4490   62.4040   48.5530 O.3   1278  MAN1278    -0.2176
@<TRIPOS>BOND
     1     7     3    1
     2     6     2    1
     3     8     4    1
     4     3     4    1
     5     3     2    1
     6     4     5    1
     7     2     1    1
     8    11    10    1
     9     5    10    1
    10     5     9    1
    11     1     9    1
