@<TRIPOS>MOLECULE
2xjs_MAN_A_1.pdb
 11 11 0 0 0
SMALL
GASTEIGER

@<TRIPOS>ATOM
      1  C1        44.6260   66.3320   49.5870 C.3   1277  MAN1277     0.1777
      2  C2        44.4840   66.9350   48.1860 C.3   1277  MAN1277     0.2141
      3  C3        43.0370   66.7250   47.7530 C.3   1277  MAN1277     0.2173
      4  C4        42.6180   65.2630   47.7950 C.3   1277  MAN1277     0.2142
      5  C5        42.8620   64.7630   49.2300 C.3   1277  MAN1277     0.1810
      6  C6        42.5690   63.2820   49.3890 C.3   1277  MAN1277     0.2141
      7  O2        45.3400   66.2910   47.2750 O.3   1277  MAN1277    -0.2176
      8  O3        42.7850   67.3120   46.5160 O.3   1277  MAN1277    -0.2175
      9  O4        41.2600   65.1270   47.4320 O.3   1277  MAN1277    -0.2176
     10  O5        44.2220   64.9780   49.6010 O.3   1277  MAN1277    -0.3481
     11  O6        43.4260   62.5420   48.5620 O.3   1277  MAN1277    -0.2176
@<TRIPOS>BOND
     1     8     3    1
     2     7     2    1
     3     9     4    1
     4     3     4    1
     5     3     2    1
     6     4     5    1
     7     2     1    1
     8    11     6    1
     9     5     6    1
    10     5    10    1
    11     1    10    1
