@<TRIPOS>MOLECULE
2xjt_MAN_A_1.pdb
 11 11 0 0 0
SMALL
GASTEIGER

@<TRIPOS>ATOM
      1  C1        44.5240   66.4110   49.5410 C.3   1279  MAN1279     0.1777
      2  C2        44.3480   67.0020   48.1340 C.3   1279  MAN1279     0.2141
      3  C3        42.9050   66.7590   47.6780 C.3   1279  MAN1279     0.2173
      4  C4        42.5540   65.2900   47.7460 C.3   1279  MAN1279     0.2142
      5  C5        42.8060   64.8020   49.1780 C.3   1279  MAN1279     0.1810
      6  O2        45.2290   66.3630   47.2420 O.3   1279  MAN1279    -0.2176
      7  O3        42.6550   67.3100   46.4030 O.3   1279  MAN1279    -0.2175
      8  O4        41.1990   65.1680   47.4320 O.3   1279  MAN1279    -0.2176
      9  O5        44.1560   65.0410   49.5640 O.3   1279  MAN1279    -0.3481
     10  C6        42.5380   63.3320   49.3720 C.3   1279  MAN1279     0.2141
     11  O6        43.3710   62.5950   48.5440 O.3   1279  MAN1279    -0.2176
@<TRIPOS>BOND
     1     7     3    1
     2     6     2    1
     3     8     4    1
     4     3     4    1
     5     3     2    1
     6     4     5    1
     7     2     1    1
     8    11    10    1
     9     5    10    1
    10     5     9    1
    11     1     9    1
