@<TRIPOS>MOLECULE
2xju_MAN_A_1.pdb
 11 11 0 0 0
SMALL
GASTEIGER

@<TRIPOS>ATOM
      1  C1        44.7020   66.8630   49.2980 C.3   1278  MAN1278     0.1777
      2  C2        44.5020   67.6300   47.9900 C.3   1278  MAN1278     0.2141
      3  C3        43.0430   67.5040   47.5420 C.3   1278  MAN1278     0.2173
      4  C4        42.5510   66.0500   47.5480 C.3   1278  MAN1278     0.2142
      5  C5        42.8130   65.4610   48.9400 C.3   1278  MAN1278     0.1810
      6  C6        42.3680   64.0260   49.1690 C.3   1278  MAN1278     0.2141
      7  O2        45.3730   67.0670   47.0400 O.3   1278  MAN1278    -0.2176
      8  O3        42.8540   68.1330   46.2800 O.3   1278  MAN1278    -0.2175
      9  O4        41.1770   65.9590   47.2830 O.3   1278  MAN1278    -0.2176
     10  O5        44.2170   65.5390   49.1540 O.3   1278  MAN1278    -0.3481
     11  O6        43.1390   63.1980   48.3320 O.3   1278  MAN1278    -0.2176
@<TRIPOS>BOND
     1     8     3    1
     2     7     2    1
     3     9     4    1
     4     3     4    1
     5     3     2    1
     6     4     5    1
     7     2     1    1
     8    11     6    1
     9     5    10    1
    10     5     6    1
    11    10     1    1
