@<TRIPOS>MOLECULE
2xjv_BGC_A_1.pdb
 12 12 0 0 0
SMALL
GASTEIGER

@<TRIPOS>ATOM
      1  C2        44.6590   66.9560   47.7870 C.3   1277  BGC1277     0.2434
      2  C3        43.1430   66.9900   47.6890 C.3   1277  BGC1277     0.2199
      3  C4        42.6610   65.5390   47.6510 C.3   1277  BGC1277     0.2144
      4  C5        43.1240   64.8370   48.9420 C.3   1277  BGC1277     0.1836
      5  C6        42.8060   63.3480   48.9110 C.3   1277  BGC1277     0.2142
      6  C1        45.0210   66.3220   49.1220 C.3   1277  BGC1277     0.3024
      7  O1        46.4270   66.3460   49.2450 O.3   1277  BGC1277    -0.1869
      8  O2        45.1740   68.2580   47.7050 O.3   1277  BGC1277    -0.2148
      9  O3        42.7490   67.7260   46.5550 O.3   1277  BGC1277    -0.2174
     10  O4        41.2550   65.4940   47.5100 O.3   1277  BGC1277    -0.2176
     11  O5        44.5280   64.9860   49.1550 O.3   1277  BGC1277    -0.3236
     12  O6        41.8020   63.0770   49.8680 O.3   1277  BGC1277    -0.2176
@<TRIPOS>BOND
     1     9     2    1
     2    10     3    1
     3     3     2    1
     4     3     4    1
     5     2     1    1
     6     8     1    1
     7     1     6    1
     8     5     4    1
     9     5    12    1
    10     4    11    1
    11     6    11    1
    12     6     7    1
