@<TRIPOS>MOLECULE
2xjx_XJX_A_1.pdb
 30 33 0 0 0
SMALL
GASTEIGER

@<TRIPOS>ATOM
      1  C1        13.7900    0.2930   10.8000 C.3   1232  XJX1232     0.0048
      2  C2        13.0970   -0.4090    9.6270 C.3   1232  XJX1232     0.0255
      3  C3        13.5650    0.1830    8.3020 C.3   1232  XJX1232     0.0048
      4  C4        13.2800   -1.9250    9.7160 C.ar  1232  XJX1232     0.0168
      5  C5        14.3780   -2.5560    9.1330 C.ar  1232  XJX1232     0.0068
      6  C6        14.5930   -3.9280    9.2840 C.ar  1232  XJX1232     0.0952
      7  C7        15.7630   -4.5690    8.6230 C.2   1232  XJX1232     0.2678
      8  O8        16.6840   -4.9850    9.2970 O.2   1232  XJX1232    -0.2665
      9  N9        15.7930   -4.5970    7.2830 N.ar  1232  XJX1232    -0.2716
     10  C10       16.8820   -5.2180    6.5150 C.ar  1232  XJX1232     0.0830
     11  C11       16.2660   -5.3750    5.1530 C.ar  1232  XJX1232     0.0191
     12  C12       16.7890   -5.9840    4.0190 C.ar  1232  XJX1232     0.0013
     13  C13       16.0530   -6.0150    2.8480 C.ar  1232  XJX1232    -0.0029
     14  C14       14.7880   -5.4370    2.7930 C.ar  1232  XJX1232    -0.0061
     15  C15       13.9870   -5.4480    1.5140 C.3   1232  XJX1232     0.0992
     16  N16       14.2970   -4.2660    0.6280 N.3   1232  XJX1232    -0.2665
     17  C18       14.3080   -2.9860    1.4120 C.3   1232  XJX1232     0.0899
     18  C19       14.6380   -1.7950    0.5240 C.3   1232  XJX1232     0.0897
     19  N20       15.9580   -2.0120   -0.1410 N.3   1232  XJX1232    -0.2691
     20  C22       16.3690   -0.8250   -0.9480 C.3   1232  XJX1232     0.0897
     21  C23       15.9120   -3.2530   -0.9730 C.3   1232  XJX1232     0.0897
     22  C24       15.5990   -4.4530   -0.0930 C.3   1232  XJX1232     0.0899
     23  C25       14.2820   -4.8340    3.9410 C.ar  1232  XJX1232    -0.0014
     24  C26       15.0190   -4.8100    5.1120 C.ar  1232  XJX1232     0.0188
     25  C27       14.6670   -4.1830    6.4330 C.ar  1232  XJX1232     0.0830
     26  C28       13.7150   -4.6850   10.0390 C.ar  1232  XJX1232     0.2034
     27  O29       13.9370   -6.0300   10.1850 O.3   1232  XJX1232    -0.2863
     28  C30       12.6260   -4.0730   10.6590 C.ar  1232  XJX1232     0.0838
     29  C31       12.4170   -2.7110   10.5120 C.ar  1232  XJX1232     0.1949
     30  O32       11.3200   -2.1630   11.1170 O.3   1232  XJX1232    -0.2868
@<TRIPOS>BOND
     1    21    19    1
     2    21    22    1
     3    20    19    1
     4    19    18    1
     5    22    16    1
     6    18    17    1
     7    16    17    1
     8    16    15    1
     9    15    14    1
    10    14    13   ar
    11    14    23   ar
    12    13    12   ar
    13    23    24   ar
    14    12    11   ar
    15    24    11   ar
    16    24    25   ar
    17    11    10   ar
    18    25     9   ar
    19    10     9   ar
    20     9     7   am
    21     3     2    1
    22     7     6    1
    23     7     8    2
    24     5     6   ar
    25     5     4   ar
    26     6    26   ar
    27     2     4    1
    28     2     1    1
    29     4    29   ar
    30    26    27    1
    31    26    28   ar
    32    29    28   ar
    33    29    30    1
