@<TRIPOS>MOLECULE
2xk1_EWB_A_1.pdb
 21 22 0 0 0
SMALL
GASTEIGER

@<TRIPOS>ATOM
      1  O6       -26.5250   43.1340   62.3490 O.2   500  EWB500      0.0000
      2  C5       -26.8930   42.7560   61.2440 C.2   500  EWB500      0.0000
      3  N4       -26.8090   41.4770   60.8500 N.am  500  EWB500      0.0000
      4  C3       -26.2390   40.4940   61.7680 C.3   500  EWB500      0.0000
      5  C16      -24.7490   40.4360   61.4670 C.3   500  EWB500      0.0000
      6  B        -26.8890   39.0340   61.6290 B     500  EWB500      0.0000
      7  O1       -26.9960   38.6530   60.1420 O.3   500  EWB500      0.0000
      8  O2       -28.2780   39.0490   62.2880 O.3   500  EWB500      0.0000
      9  C7       -27.4350   43.7810   60.3000 C.ar  500  EWB500      0.0000
     10  C8       -28.6320   44.4570   60.5540 C.ar  500  EWB500      0.0000
     11  C11      -29.0800   45.4070   59.6380 C.ar  500  EWB500      0.0000
     12  C12      -28.3280   45.6750   58.4930 C.ar  500  EWB500      0.0000
     13  C13      -27.1320   45.0040   58.2430 C.ar  500  EWB500      0.0000
     14  C14      -26.6870   44.0530   59.1500 C.ar  500  EWB500      0.0000
     15  C9       -29.4560   44.1910   61.8080 C.3   500  EWB500      0.0000
     16  C17      -30.2250   42.8840   61.7850 C.ar  500  EWB500      0.0000
     17  C22      -30.5450   42.2770   63.0000 C.ar  500  EWB500      0.0000
     18  C21      -31.2660   41.0850   63.0060 C.ar  500  EWB500      0.0000
     19  C20      -31.6630   40.4980   61.7970 C.ar  500  EWB500      0.0000
     20  C19      -31.3520   41.1020   60.5760 C.ar  500  EWB500      0.0000
     21  C18      -30.6280   42.2950   60.5770 C.ar  500  EWB500      0.0000
@<TRIPOS>BOND
     1    13    12   ar
     2    13    14   ar
     3    12    11   ar
     4    14     9   ar
     5    11    10   ar
     6     7     6    1
     7     9    10   ar
     8     9     2    1
     9    10    15    1
    10    20    21   ar
    11    20    19   ar
    12    21    16   ar
    13     3     2   am
    14     3     4    1
    15     2     1    2
    16     5     4    1
    17     6     4    1
    18     6     8    1
    19    16    15    1
    20    16    17   ar
    21    19    18   ar
    22    17    18   ar
