@<TRIPOS>MOLECULE
2xk2_ADP_A_1.pdb
 27 29 0 0 0
SMALL
GASTEIGER

@<TRIPOS>ATOM
      1  PB         1.4510   -0.1750    5.1640 P.3   1226  ADP1226     0.5373
      2  O1B        1.5390   -1.3250    6.1110 O.3   1226  ADP1226    -0.1143
      3  O2B        0.0570   -0.0180    4.5200 O.3   1226  ADP1226    -0.1143
      4  O3B        2.5100   -0.2360    4.0270 O.2   1226  ADP1226    -0.2221
      5  PA         2.3170    1.4890    7.4440 P.3   1226  ADP1226     0.2231
      6  O1A        2.3590    2.9820    7.6460 O.2   1226  ADP1226    -0.5169
      7  O2A        1.5710    0.6520    8.4170 O.3   1226  ADP1226    -0.4370
      8  O3A        1.7590    1.1730    5.9540 O.3   1226  ADP1226    -0.2261
      9  O5'        3.7810    0.9350    7.3190 O.3   1226  ADP1226    -0.3111
     10  C5'        4.7400    1.5600    6.4650 C.3   1226  ADP1226     0.1813
     11  C4'        5.8560    0.5770    6.1210 C.3   1226  ADP1226     0.1821
     12  O4'        6.7420    0.4330    7.2460 O.3   1226  ADP1226    -0.3135
     13  C3'        5.4080   -0.8530    5.8060 C.3   1226  ADP1226     0.2184
     14  O3'        4.9350   -0.9740    4.4720 O.3   1226  ADP1226    -0.2174
     15  C2'        6.7240   -1.6350    6.0390 C.3   1226  ADP1226     0.2570
     16  O2'        7.5840   -1.6070    4.9140 O.3   1226  ADP1226    -0.2130
     17  C1'        7.3400   -0.8820    7.2340 C.3   1226  ADP1226     0.3186
     18  N9         7.0640   -1.5250    8.5180 N.pl3 1226  ADP1226    -0.1439
     19  C8         6.2090   -1.0740    9.4790 C.3   1226  ADP1226     0.3377
     20  N7         6.2020   -1.8950   10.5540 N.2   1226  ADP1226    -0.2095
     21  C5         7.0370   -2.8950   10.2630 C.2   1226  ADP1226     0.2526
     22  C6         7.4250   -4.0580   10.9550 C.2   1226  ADP1226     0.4393
     23  N6         6.9390   -4.3810   12.2030 N.pl3 1226  ADP1226     0.2180
     24  N1         8.3350   -4.8820   10.3970 N.2   1226  ADP1226     0.0021
     25  C2         8.7990   -4.5730    9.1780 C.3   1226  ADP1226     0.5254
     26  N3         8.4880   -3.5110    8.4350 N.2   1226  ADP1226    -0.0055
     27  C4         7.6120   -2.7000    9.0170 C.2   1226  ADP1226     0.3518
@<TRIPOS>BOND
     1     4     1    2
     2    14    13    1
     3     3     1    1
     4    16    15    1
     5     1     8    1
     6     1     2    1
     7    13    15    1
     8    13    11    1
     9     8     5    1
    10    15    17    1
    11    11    10    1
    12    11    12    1
    13    10     9    1
    14    17    12    1
    15    17    18    1
    16     9     5    1
    17     5     6    2
    18     5     7    1
    19    26    27    2
    20    26    25    1
    21    18    27    1
    22    18    19    1
    23    27    21    1
    24    25    24    1
    25    19    20    1
    26    21    20    2
    27    21    22    1
    28    24    22    2
    29    22    23    1
