@<TRIPOS>MOLECULE
2xk3_XK3_A_1.pdb
 23 25 0 0 0
SMALL
GASTEIGER

@<TRIPOS>ATOM
      1  C01       28.5480    9.0850  -24.5050 C.3   1280  XK31280     0.0050
      2  C02       28.4350    8.7300  -23.0640 C.3   1280  XK31280     0.0270
      3  C03       27.8460    9.8000  -22.2150 C.ar  1280  XK31280    -0.0134
      4  C04       28.0870   11.4280  -22.4020 C.ar  1280  XK31280     0.0033
      5  C05       27.2800   12.1500  -21.4040 C.ar  1280  XK31280     0.0352
      6  S06       26.4660   10.9920  -20.5000 S.2   1280  XK31280    -0.0844
      7  C07       26.8590    9.6030  -21.0390 C.ar  1280  XK31280     0.0553
      8  C08       26.3910    8.4080  -20.5080 C.2   1280  XK31280     0.1680
      9  C09       26.3700    7.2100  -21.2440 C.3   1280  XK31280     0.3220
     10  N10       25.8530    6.0730  -20.6400 N.2   1280  XK31280    -0.0482
     11  C11       25.3390    6.1200  -19.3570 C.2   1280  XK31280     0.4361
     12  N12       24.7530    4.9670  -18.7640 N.pl3 1280  XK31280     0.2184
     13  C13       25.3340    7.3320  -18.6550 C.2   1280  XK31280     0.1979
     14  C14       24.7460    7.4870  -17.2790 C.3   1280  XK31280     0.0603
     15  C15       25.4030    8.4510  -16.2790 C.3   1280  XK31280     0.0078
     16  C16       25.0880    8.1770  -14.8190 C.3   1280  XK31280     0.0117
     17  C17       23.6030    7.9570  -14.5690 C.3   1280  XK31280     0.1034
     18  C18       23.1000    8.1160  -13.1840 C.2   1280  XK31280     0.3643
     19  O19       23.4520    9.0770  -12.5350 O.co2 1280  XK31280    -0.2457
     20  O20       22.4330    7.0910  -12.5650 O.co2 1280  XK31280    -0.2457
     21  C21       22.9760    6.9080  -15.5020 C.3   1280  XK31280     0.0117
     22  C22       23.2660    7.1700  -16.9800 C.3   1280  XK31280     0.0078
     23  N23       25.8480    8.4680  -19.2500 N.2   1280  XK31280    -0.3978
@<TRIPOS>BOND
     1     1     2    1
     2     2     3    1
     3     4     3   ar
     4     4     5   ar
     5     3     7   ar
     6     5     6   ar
     7     9    10    1
     8     9     8    1
     9     7     8    1
    10     7     6   ar
    11    10    11    2
    12     8    23    2
    13    11    12    1
    14    11    13    1
    15    23    13    2
    16    13    14    1
    17    14    22    1
    18    14    15    1
    19    22    21    1
    20    15    16    1
    21    21    17    1
    22    16    17    1
    23    17    18    1
    24    18    20   ar
    25    18    19   ar
