@<TRIPOS>MOLECULE
2xk4_OL2_A_1.pdb
 31 33 0 0 0
SMALL
GASTEIGER

@<TRIPOS>ATOM
      1  C01      -26.9990   19.1330  -13.1220 C.3   1280  OL21280     0.0512
      2  C02      -25.9840   19.4960  -14.2050 C.3   1280  OL21280     0.2055
      3  O03      -25.3220   20.7150  -14.0540 O.3   1280  OL21280    -0.4752
      4  C04      -24.6760   21.3130  -15.1400 C.ar  1280  OL21280     0.1449
      5  C05      -25.3670   21.5220  -16.3410 C.ar  1280  OL21280     0.0399
      6  C06      -24.7160   22.1550  -17.4050 C.ar  1280  OL21280     0.0403
      7  C07      -25.3530   22.3530  -18.6160 C.2   1280  OL21280     0.2208
      8  N08      -25.8770   21.3080  -19.2600 N.2   1280  OL21280    -0.3939
      9  C09      -26.4430   21.4640  -20.4620 C.2   1280  OL21280     0.1629
     10  C10      -27.0020   20.3530  -21.0710 C.ar  1280  OL21280     0.0360
     11  C11      -26.8730   19.1100  -20.4430 C.ar  1280  OL21280     0.0426
     12  C12      -27.4120   17.9640  -21.0430 C.ar  1280  OL21280     0.1755
     13  O13      -27.3030   16.7180  -20.4070 O.3   1280  OL21280    -0.4683
     14  C14      -26.7810   16.6440  -19.1090 C.3   1280  OL21280     0.2526
     15  C15      -28.0780   18.0640  -22.2730 C.ar  1280  OL21280     0.2061
     16  O16      -28.5700   16.8860  -22.8500 O.3   1280  OL21280    -0.4654
     17  C17      -27.6560   15.9420  -23.3580 C.3   1280  OL21280     0.2528
     18  C18      -28.2010   19.3160  -22.9100 C.ar  1280  OL21280     0.1755
     19  O19      -28.8730   19.4530  -24.1310 O.3   1280  OL21280    -0.4683
     20  C20      -28.3710   18.7980  -25.2570 C.3   1280  OL21280     0.2526
     21  C21      -27.6620   20.4580  -22.3020 C.ar  1280  OL21280     0.0426
     22  C22      -26.4290   22.7150  -21.0860 C.3   1280  OL21280     0.3216
     23  N23      -25.8530   23.7490  -20.4640 N.2   1280  OL21280    -0.0480
     24  C24      -25.2920   23.5950  -19.2550 C.2   1280  OL21280     0.4403
     25  N25      -24.6630   24.7210  -18.5950 N.pl3 1280  OL21280     0.2188
     26  C26      -23.3830   22.5650  -17.2800 C.ar  1280  OL21280     0.0032
     27  C27      -22.6960   22.3660  -16.0800 C.ar  1280  OL21280     0.0097
     28  C28      -23.3450   21.7410  -15.0130 C.ar  1280  OL21280     0.1136
     29  C29      -22.5770   21.5290  -13.7150 C.2   1280  OL21280     0.3907
     30  O30      -23.0810   21.7940  -12.6750 O.co2 1280  OL21280    -0.2404
     31  O31      -21.2030   21.2720  -13.7920 O.co2 1280  OL21280    -0.2404
@<TRIPOS>BOND
     1    20    19    1
     2    19    18    1
     3    17    16    1
     4    18    21   ar
     5    18    15   ar
     6    16    15    1
     7    21    10   ar
     8    15    12   ar
     9    22    23    1
    10    22     9    1
    11    10     9    1
    12    10    11   ar
    13    12    11   ar
    14    12    13    1
    15    23    24    2
    16     9     8    2
    17    13    14    1
    18     8     7    2
    19    24     7    1
    20    24    25    1
    21     7     6    1
    22     6    26   ar
    23     6     5   ar
    24    26    27   ar
    25     5     4   ar
    26    27    28   ar
    27     4    28   ar
    28     4     3    1
    29    28    29    1
    30     2     3    1
    31     2     1    1
    32    31    29   ar
    33    29    30   ar
