@<TRIPOS>MOLECULE
2xk6_EQH_A_1.pdb
 24 27 0 0 0
SMALL
GASTEIGER

@<TRIPOS>ATOM
      1  N01       24.7280    5.1080  -18.3040 N.pl3 1280  EQH1280     0.2188
      2  C02       25.3080    6.2410  -18.9590 C.2   1280  EQH1280     0.4400
      3  N03       25.7650    6.1030  -20.2730 N.2   1280  EQH1280    -0.0483
      4  C04       26.3020    7.1490  -20.9090 C.3   1280  EQH1280     0.3180
      5  C05       26.4130    8.4550  -20.2300 C.2   1280  EQH1280     0.1499
      6  C06       27.0450    9.5610  -21.0170 C.3   1280  EQH1280     0.0999
      7  S07       26.4610   11.1080  -20.2860 S.3   1280  EQH1280    -0.1341
      8  C08       27.1550   12.2840  -21.2510 C.3   1280  EQH1280     0.0580
      9  C09       28.2980   11.5590  -22.0810 C.3   1280  EQH1280     0.0129
     10  C10       27.8550   10.0120  -22.2790 C.3   1280  EQH1280     0.0174
     11  C11       28.7110    9.3720  -23.3490 C.3   1280  EQH1280     0.0012
     12  C12       28.6160    8.7530  -24.7610 C.3   1280  EQH1280     0.0000
     13  C13       29.9480    9.3340  -24.2720 C.3   1280  EQH1280     0.0000
     14  N14       25.9660    8.6020  -18.9260 N.2   1280  EQH1280    -0.3978
     15  C15       25.4150    7.5310  -18.2810 C.2   1280  EQH1280     0.2161
     16  C16       24.8660    7.6850  -16.8730 C.2   1280  EQH1280     0.0108
     17  C17       25.6110    8.5470  -15.7970 C.2   1280  EQH1280    -0.0270
     18  C18       24.8920    8.8870  -14.4670 C.3   1280  EQH1280     0.0370
     19  C19       23.5820    8.1160  -14.2040 C.3   1280  EQH1280     0.1080
     20  C20       22.9590    8.1150  -12.8320 C.2   1280  EQH1280     0.3647
     21  O21       22.5020    7.0790  -12.3660 O.co2 1280  EQH1280    -0.2457
     22  O22       22.9120    9.2800  -12.0970 O.co2 1280  EQH1280    -0.2457
     23  C23       22.6970    8.0600  -15.4620 C.3   1280  EQH1280     0.0163
     24  C24       23.3980    7.2430  -16.5630 C.3   1280  EQH1280     0.0294
@<TRIPOS>BOND
     1    12    13    1
     2    12    11    1
     3    13    11    1
     4    11    10    1
     5    10     9    1
     6    10     6    1
     7     9     8    1
     8     8     7    1
     9     6     7    1
    10     6     5    1
    11     4     3    1
    12     4     5    1
    13     3     2    2
    14     5    14    2
    15     2     1    1
    16     2    15    1
    17    14    15    2
    18    15    16    1
    19    16    24    1
    20    16    17    2
    21    24    23    1
    22    17    18    1
    23    23    19    1
    24    18    19    1
    25    19    20    1
    26    20    21   ar
    27    20    22   ar
