@<TRIPOS>MOLECULE
2xk7_30E_A_1.pdb
 30 32 0 0 0
SMALL
GASTEIGER

@<TRIPOS>ATOM
      1  C01      -26.5980   22.7870  -14.3120 C.3   1280  30E1280     0.0001
      2  C02      -25.7130   21.7020  -13.6960 C.3   1280  30E1280     0.0023
      3  C03      -24.7020   21.0100  -14.6250 C.3   1280  30E1280     0.0306
      4  C04      -25.0880   20.7770  -16.0920 C.3   1280  30E1280     0.0938
      5  N05      -24.8130   22.0050  -16.8080 N.pl3 1280  30E1280    -0.2774
      6  C06      -25.2160   22.2750  -18.2250 C.2   1280  30E1280     0.2745
      7  N07      -25.8490   21.2130  -18.9070 N.2   1280  30E1280    -0.3793
      8  C08      -26.3000   21.3680  -20.2200 C.2   1280  30E1280     0.1645
      9  C09      -26.8710   20.2430  -20.8510 C.ar  1280  30E1280     0.0361
     10  C10      -26.7600   18.9610  -20.1670 C.ar  1280  30E1280     0.0426
     11  C11      -27.3060   17.7420  -20.8060 C.ar  1280  30E1280     0.1755
     12  O12      -27.2070   16.4790  -20.1860 O.3   1280  30E1280    -0.4683
     13  C13      -26.6950   16.3540  -18.8890 C.3   1280  30E1280     0.2526
     14  C14      -27.9290   17.8360  -22.1180 C.ar  1280  30E1280     0.2061
     15  O15      -28.4060   16.6550  -22.7090 O.3   1280  30E1280    -0.4654
     16  C16      -27.4550   15.7110  -23.1600 C.3   1280  30E1280     0.2528
     17  C17      -28.0040   19.1100  -22.8100 C.ar  1280  30E1280     0.1755
     18  O18      -28.5570   19.1690  -24.0980 O.3   1280  30E1280    -0.4683
     19  C19      -28.8360   20.4020  -24.6760 C.3   1280  30E1280     0.2526
     20  C20      -27.4660   20.3430  -22.1720 C.ar  1280  30E1280     0.0426
     21  C21      -26.1090   22.6100  -20.9070 C.3   1280  30E1280     0.3217
     22  N22      -25.4710   23.6910  -20.2100 N.2   1280  30E1280    -0.0468
     23  C23      -25.0340   23.5510  -18.8980 C.2   1280  30E1280     0.4547
     24  N24      -24.4400   24.6920  -18.2330 N.pl3 1280  30E1280     0.2204
     25  C25      -23.7740   22.9420  -16.3590 C.3   1280  30E1280     0.0939
     26  C26      -22.6530   22.2170  -15.5810 C.3   1280  30E1280     0.0328
     27  C27      -23.2000   21.3250  -14.4400 C.3   1280  30E1280     0.1067
     28  C28      -22.7540   21.5980  -13.0110 C.2   1280  30E1280     0.3644
     29  O29      -23.1770   20.9200  -12.1300 O.co2 1280  30E1280    -0.2457
     30  O30      -21.8810   22.6490  -12.7270 O.co2 1280  30E1280    -0.2457
@<TRIPOS>BOND
     1    19    18    1
     2    18    17    1
     3    16    15    1
     4    17    20   ar
     5    17    14   ar
     6    15    14    1
     7    20     9   ar
     8    14    11   ar
     9    21     8    1
    10    21    22    1
    11     9     8    1
    12     9    10   ar
    13    11    12    1
    14    11    10   ar
    15     8     7    2
    16    22    23    2
    17    12    13    1
    18     7     6    2
    19    23    24    1
    20    23     6    1
    21     6     5    1
    22     5    25    1
    23     5     4    1
    24    25    26    1
    25     4     3    1
    26    26    27    1
    27     3    27    1
    28     3     2    1
    29    27    28    1
    30     1     2    1
    31    28    30   ar
    32    28    29   ar
