@<TRIPOS>MOLECULE
2xk8_5R1_A_1.pdb
 30 32 0 0 0
SMALL
GASTEIGER

@<TRIPOS>ATOM
      1  C01       20.9640    6.7870  -14.9110 C.3   1280  5R11280     0.2525
      2  O02       21.6670    7.9680  -14.6830 O.3   1280  5R11280    -0.4712
      3  C03       22.9780    8.0880  -15.1450 C.ar  1280  5R11280     0.1451
      4  C04       23.2690    7.8130  -16.4910 C.ar  1280  5R11280     0.0399
      5  C05       24.5810    7.9670  -16.9590 C.ar  1280  5R11280     0.0403
      6  C06       24.9100    7.7140  -18.2870 C.2   1280  5R11280     0.2208
      7  N07       25.5210    8.6770  -18.9870 N.2   1280  5R11280    -0.3939
      8  C08       25.8850    8.4990  -20.2630 C.2   1280  5R11280     0.1629
      9  C09       26.4670    9.5610  -20.9490 C.ar  1280  5R11280     0.0360
     10  C10       26.4500   10.8360  -20.3490 C.ar  1280  5R11280     0.0426
     11  C11       27.0100   11.9380  -21.0100 C.ar  1280  5R11280     0.1755
     12  O12       27.0380   13.2210  -20.4360 O.3   1280  5R11280    -0.4683
     13  C13       26.5090   13.4590  -19.1580 C.3   1280  5R11280     0.2526
     14  C14       27.5740   11.7570  -22.2780 C.ar  1280  5R11280     0.2061
     15  O15       28.0940   12.8700  -22.9370 O.3   1280  5R11280    -0.4654
     16  C16       27.1730   13.7910  -23.4670 C.3   1280  5R11280     0.2528
     17  C17       27.5790   10.4960  -22.8920 C.ar  1280  5R11280     0.1755
     18  O18       28.1300   10.3690  -24.1700 O.3   1280  5R11280    -0.4683
     19  C19       28.2880    9.1100  -24.7570 C.3   1280  5R11280     0.2526
     20  C20       27.0260    9.3880  -22.2280 C.ar  1280  5R11280     0.0426
     21  C21       25.6280    7.2710  -20.8810 C.3   1280  5R11280     0.3216
     22  N22       25.0350    6.2930  -20.1790 N.2   1280  5R11280    -0.0480
     23  C23       24.6770    6.4740  -18.8970 C.2   1280  5R11280     0.4403
     24  N24       24.0340    5.4000  -18.1700 N.pl3 1280  5R11280     0.2188
     25  C25       25.5850    8.4060  -16.0830 C.ar  1280  5R11280     0.0032
     26  C26       25.2930    8.6830  -14.7400 C.ar  1280  5R11280     0.0097
     27  C27       23.9830    8.5230  -14.2700 C.ar  1280  5R11280     0.1136
     28  C28       23.6610    8.8280  -12.8040 C.2   1280  5R11280     0.3907
     29  O29       22.5670    8.6660  -12.3790 O.co2 1280  5R11280    -0.2404
     30  O30       24.6750    9.2820  -11.9520 O.co2 1280  5R11280    -0.2404
@<TRIPOS>BOND
     1    19    18    1
     2    18    17    1
     3    16    15    1
     4    15    14    1
     5    17    14   ar
     6    17    20   ar
     7    14    11   ar
     8    20     9   ar
     9    11    12    1
    10    11    10   ar
    11     9    10   ar
    12     9     8    1
    13    21     8    1
    14    21    22    1
    15    12    13    1
    16     8     7    2
    17    22    23    2
    18     7     6    2
    19    23     6    1
    20    23    24    1
    21     6     5    1
    22     5     4   ar
    23     5    25   ar
    24     4     3   ar
    25    25    26   ar
    26     3     2    1
    27     3    27   ar
    28     1     2    1
    29    26    27   ar
    30    27    28    1
    31    28    29   ar
    32    28    30   ar
