@<TRIPOS>MOLECULE
2xk9_XK9_A_1.pdb
 29 31 0 0 0
SMALL
GASTEIGER

@<TRIPOS>ATOM
      1  O3       -49.4250   16.0170   -3.8370 O.2   1511  XK91511    -0.1260
      2  N7       -48.5750   17.1210   -3.4920 N.pl3 1511  XK91511     0.0602
      3  O2       -48.6520   17.6130   -2.1630 O.2   1511  XK91511    -0.1260
      4  C3       -47.7140   17.6810   -4.3580 C.ar  1511  XK91511     0.1722
      5  C2       -47.0550   18.8570   -3.9970 C.ar  1511  XK91511     0.0267
      6  C4       -47.4530   17.1090   -5.6020 C.ar  1511  XK91511     0.1539
      7  N1       -47.9290   16.0360   -6.2110 N.2   1511  XK91511    -0.3955
      8  C8       -47.3310   15.9560   -7.4100 C.2   1511  XK91511     0.1866
      9  C7       -46.5060   16.9910   -7.5980 C.2   1511  XK91511     0.0394
     10  C5       -46.5510   17.7210   -6.4800 C.ar  1511  XK91511     0.0340
     11  C6       -45.9110   18.8990   -6.1160 C.ar  1511  XK91511     0.0027
     12  C1       -46.1580   19.4680   -4.8740 C.ar  1511  XK91511     0.0019
     13  C9       -47.6150   14.8550   -8.4340 C.2   1511  XK91511     0.2987
     14  O1       -48.5070   14.0330   -8.1960 O.2   1511  XK91511    -0.2652
     15  N2       -46.8650   14.9010   -9.5530 N.am  1511  XK91511    -0.1733
     16  C10      -47.0230   14.0950  -10.6320 C.ar  1511  XK91511     0.0738
     17  C15      -46.2130   14.2930  -11.7600 C.ar  1511  XK91511     0.0166
     18  C14      -46.3710   13.5150  -12.9170 C.ar  1511  XK91511     0.0026
     19  C13      -47.3700   12.5220  -12.9770 C.ar  1511  XK91511     0.0167
     20  C12      -48.1740   12.3480  -11.8490 C.ar  1511  XK91511     0.0026
     21  C11      -48.0100   13.1280  -10.7020 C.ar  1511  XK91511     0.0166
     22  C16      -47.5440   11.7410  -14.1270 C.2   1511  XK91511     0.0972
     23  C17      -48.1860   10.3650  -14.0960 C.3   1511  XK91511     0.0554
     24  N3       -47.1370   12.2310  -15.2950 N.2   1511  XK91511    -0.0740
     25  N4       -47.2120   11.6260  -16.3830 N.pl3 1511  XK91511     0.0561
     26  C18      -46.7910   12.2450  -17.5070 C.2   1511  XK91511     0.5542
     27  N6       -46.8680   11.6900  -18.7090 N.pl3 1511  XK91511     0.1370
     28  N5       -46.2840   13.4570  -17.4490 N.4   1511  XK91511     0.1153
     29  OBC      -45.8650   14.0680  -18.6050 O.3   1511  XK91511     0.0295
@<TRIPOS>BOND
     1    27    26    2
     2    29    28    1
     3    26    28    1
     4    26    25    1
     5    25    24    1
     6    24    22    2
     7    22    23    1
     8    22    19    1
     9    19    18   ar
    10    19    20   ar
    11    18    17   ar
    12    20    21   ar
    13    17    16   ar
    14    21    16   ar
    15    16    15    1
    16    15    13   am
    17    13    14    2
    18    13     8    1
    19     9     8    1
    20     9    10    2
    21     8     7    2
    22    10    11   ar
    23    10     6   ar
    24     7     6    2
    25    11    12   ar
    26     6     4   ar
    27    12     5   ar
    28     4     5   ar
    29     4     2    1
    30     1     2    2
    31     2     3    2
