@<TRIPOS>MOLECULE
2xka_GSP_A_1.pdb
 32 34 0 0 0
SMALL
GASTEIGER

@<TRIPOS>ATOM
      1  PG        47.9920  -44.8350  -10.6500 P.3   900  GSP900      0.4340
      2  O3B       47.3910  -45.1480   -9.1920 O.3   900  GSP900     -0.2405
      3  S1G       49.6510  -44.9340  -10.5220 S.3   900  GSP900      0.0416
      4  O2G       47.6030  -45.9820  -11.5940 O.2   900  GSP900     -0.2423
      5  O3G       47.6690  -43.4150  -11.1820 O.3   900  GSP900     -0.1305
      6  PB        46.7240  -44.0680   -8.1890 P.3   900  GSP900      0.2262
      7  O1B       46.3830  -42.7730   -8.8410 O.2   900  GSP900     -0.5168
      8  O2B       47.6540  -43.9180   -7.0600 O.3   900  GSP900     -0.4369
      9  PA        43.9410  -44.2950   -7.5100 P.3   900  GSP900      0.2189
     10  O1A       43.4450  -43.6640   -8.7620 O.2   900  GSP900     -0.5170
     11  O2A       43.9090  -43.2480   -6.4700 O.3   900  GSP900     -0.4371
     12  O3A       45.4300  -44.8970   -7.6800 O.3   900  GSP900     -0.2701
     13  O5'       43.0580  -45.5830   -7.1170 O.3   900  GSP900     -0.3112
     14  C5'       43.6410  -46.6610   -6.4170 C.3   900  GSP900      0.1813
     15  C4'       42.5780  -47.4530   -5.6640 C.3   900  GSP900      0.1799
     16  O4'       41.7680  -46.5880   -4.8880 O.3   900  GSP900     -0.3326
     17  C3'       41.6230  -48.1690   -6.5830 C.3   900  GSP900      0.2158
     18  O3'       41.1550  -49.3300   -5.9530 O.3   900  GSP900     -0.2175
     19  C2'       40.4950  -47.1860   -6.7420 C.3   900  GSP900      0.2310
     20  O2'       39.2460  -47.7910   -6.9290 O.3   900  GSP900     -0.2158
     21  C1'       40.4770  -46.4920   -5.4120 C.3   900  GSP900      0.2293
     22  N9        40.0590  -45.0900   -5.5240 N.pl3 900  GSP900     -0.2354
     23  C8        40.3310  -44.1180   -6.4700 C.3   900  GSP900      0.2246
     24  N7        39.6780  -42.9730   -6.1080 N.2   900  GSP900     -0.2322
     25  C5        38.9960  -43.2140   -4.9470 C.2   900  GSP900      0.2182
     26  C6        38.1730  -42.4590   -4.1060 C.1   900  GSP900      0.2372
     27  O6        37.9310  -41.2940   -4.3560 O.2   900  GSP900     -0.2069
     28  N1        37.6300  -43.0030   -2.9730 N.2   900  GSP900     -0.2485
     29  C2        37.8870  -44.3210   -2.6620 C.1   900  GSP900      0.2531
     30  N2        37.3950  -44.9160   -1.5820 N.pl3 900  GSP900     -0.0226
     31  N3        38.6940  -45.0710   -3.4730 N.2   900  GSP900     -0.3074
     32  C4        39.2390  -44.5330   -4.5920 C.2   900  GSP900      0.2300
@<TRIPOS>BOND
     1     4     1    2
     2     5     1    1
     3     1     3    1
     4     1     2    1
     5     2     6    1
     6     7     6    2
     7    10     9    2
     8     6    12    1
     9     6     8    1
    10    12     9    1
    11     9    13    1
    12     9    11    1
    13    13    14    1
    14    20    19    1
    15    19    17    1
    16    19    21    1
    17    17    18    1
    18    17    15    1
    19    23    24    1
    20    23    22    1
    21    14    15    1
    22    24    25    2
    23    15    16    1
    24    22    21    1
    25    22    32    1
    26    21    16    1
    27    25    32    1
    28    25    26    1
    29    32    31    2
    30    27    26    2
    31    26    28    2
    32    31    29    2
    33    28    29    2
    34    29    30    1
