@<TRIPOS>MOLECULE
2xkb_GDP_A_1.pdb
 28 30 0 0 0
SMALL
GASTEIGER

@<TRIPOS>ATOM
      1  PB        21.8870 -187.8630   34.5250 P.3   900  GDP900      0.5373
      2  O1B       20.5240 -188.3630   34.0810 O.3   900  GDP900     -0.1143
      3  O2B       22.9400 -188.6120   33.7370 O.2   900  GDP900     -0.2221
      4  O3B       22.0800 -186.3870   34.2890 O.3   900  GDP900     -0.1143
      5  O3A       22.0060 -188.2040   36.0930 O.3   900  GDP900     -0.2261
      6  PA        22.2910 -187.0450   37.1610 P.3   900  GDP900      0.2231
      7  O1A       22.1380 -187.6050   38.5690 O.3   900  GDP900     -0.4370
      8  O2A       21.3670 -185.8960   36.8610 O.2   900  GDP900     -0.5169
      9  O5'       23.7920 -186.5470   36.8830 O.3   900  GDP900     -0.3111
     10  C5'       24.1290 -185.1780   37.0700 C.3   900  GDP900      0.1813
     11  C4'       25.2070 -184.9280   38.1280 C.3   900  GDP900      0.1799
     12  O4'       24.7360 -183.9670   39.0900 O.3   900  GDP900     -0.3326
     13  C3'       25.6440 -186.1270   38.9480 C.3   900  GDP900      0.2158
     14  O3'       27.0690 -186.0300   39.0920 O.3   900  GDP900     -0.2175
     15  C2'       24.9410 -185.9610   40.2850 C.3   900  GDP900      0.2310
     16  O2'       25.7680 -186.3880   41.3470 O.3   900  GDP900     -0.2158
     17  C1'       24.7100 -184.4760   40.4240 C.3   900  GDP900      0.2293
     18  N9        23.3710 -184.1550   40.9610 N.pl3 900  GDP900     -0.2354
     19  C8        22.2860 -184.9680   40.9610 C.3   900  GDP900      0.2246
     20  N7        21.1990 -184.3560   41.5040 N.2   900  GDP900     -0.2322
     21  C5        21.5950 -183.1180   41.8530 C.2   900  GDP900      0.2182
     22  C6        20.9510 -181.9530   42.4740 C.1   900  GDP900      0.2372
     23  O6        19.7620 -182.0300   42.7980 O.2   900  GDP900     -0.2069
     24  N1        21.6660 -180.8480   42.6840 N.2   900  GDP900     -0.2485
     25  C2        22.9580 -180.7580   42.3380 C.1   900  GDP900      0.2531
     26  N2        23.5910 -179.5920   42.5890 N.pl3 900  GDP900     -0.0226
     27  N3        23.6350 -181.7860   41.7560 N.2   900  GDP900     -0.3074
     28  C4        23.0180 -182.9740   41.4940 C.2   900  GDP900      0.2300
@<TRIPOS>BOND
     1     3     1    2
     2     2     1    1
     3     4     1    1
     4     1     5    1
     5     5     6    1
     6     8     6    2
     7     9    10    1
     8     9     6    1
     9    10    11    1
    10     6     7    1
    11    11    13    1
    12    11    12    1
    13    13    14    1
    14    13    15    1
    15    12    17    1
    16    15    17    1
    17    15    16    1
    18    17    18    1
    19    18    19    1
    20    18    28    1
    21    19    20    1
    22    28    27    2
    23    28    21    1
    24    20    21    2
    25    27    25    2
    26    21    22    1
    27    25    26    1
    28    25    24    2
    29    22    24    2
    30    22    23    2
