@<TRIPOS>MOLECULE
2xkc_4VQ_A_1.pdb
 29 31 0 0 0
SMALL
GASTEIGER

@<TRIPOS>ATOM
      1  CAD       21.1770   -7.2750   14.5330 C.3   1280  4VQ1280     0.0312
      2  CAT       22.6500   -7.4280   14.9040 C.ar  1280  4VQ1280    -0.0154
      3  CAK       23.0610   -7.2020   16.2360 C.ar  1280  4VQ1280    -0.0013
      4  CBA       23.6170   -7.7920   13.9040 C.ar  1280  4VQ1280     0.0758
      5  CAS       23.1850   -8.0450   12.4600 C.2   1280  4VQ1280     0.3874
      6  OAG       23.5810   -9.0060   11.8910 O.co2 1280  4VQ1280    -0.2406
      7  OAF       22.4820   -7.0630   11.7500 O.co2 1280  4VQ1280    -0.2406
      8  CAI       24.9780   -7.9240   14.2600 C.ar  1280  4VQ1280     0.0063
      9  CAH       25.3760   -7.7070   15.5480 C.ar  1280  4VQ1280     0.0030
     10  CAV       24.3770   -7.3310   16.5780 C.ar  1280  4VQ1280     0.0370
     11  CBB       24.8230   -7.0650   18.0140 C.2   1280  4VQ1280     0.2207
     12  NAO       25.3660   -8.0190   18.7260 N.2   1280  4VQ1280    -0.3939
     13  CAU       24.6270   -5.7210   18.6060 C.2   1280  4VQ1280     0.4403
     14  NAE       24.0060   -4.6720   17.8220 N.pl3 1280  4VQ1280     0.2188
     15  NAN       25.0010   -5.4840   19.8370 N.2   1280  4VQ1280    -0.0480
     16  CAJ       25.5680   -6.4710   20.5740 C.3   1280  4VQ1280     0.3216
     17  CAX       25.7530   -7.7720   20.0020 C.2   1280  4VQ1280     0.1629
     18  CAW       26.4030   -8.8830   20.8220 C.ar  1280  4VQ1280     0.0360
     19  CAM       26.9680   -8.5950   22.0290 C.ar  1280  4VQ1280     0.0426
     20  CAL       26.4600  -10.2640   20.2820 C.ar  1280  4VQ1280     0.0426
     21  CAY       27.0560  -11.2570   21.0060 C.ar  1280  4VQ1280     0.1755
     22  OAP       27.0880  -12.5690   20.5150 O.3   1280  4VQ1280    -0.4683
     23  CAA       26.6840  -12.8380   19.2010 C.3   1280  4VQ1280     0.2526
     24  CBC       27.6250  -10.9610   22.2640 C.ar  1280  4VQ1280     0.2061
     25  OAR       28.2400  -11.9790   22.9990 O.3   1280  4VQ1280    -0.4654
     26  CAC       29.5720  -12.3100   22.7280 C.3   1280  4VQ1280     0.2528
     27  CAZ       27.5810   -9.6210   22.7780 C.ar  1280  4VQ1280     0.1755
     28  OAQ       28.1370   -9.3240   24.0240 O.3   1280  4VQ1280    -0.4683
     29  CAB       27.5360   -9.8340   25.1790 C.3   1280  4VQ1280     0.2526
@<TRIPOS>BOND
     1     7     5   ar
     2     6     5   ar
     3     5     4    1
     4     4     8   ar
     5     4     2   ar
     6     8     9   ar
     7     1     2    1
     8     2     3   ar
     9     9    10   ar
    10     3    10   ar
    11    10    11    1
    12    14    13    1
    13    11    13    1
    14    11    12    2
    15    13    15    2
    16    12    17    2
    17    23    22    1
    18    15    16    1
    19    17    16    1
    20    17    18    1
    21    20    18   ar
    22    20    21   ar
    23    22    21    1
    24    18    19   ar
    25    21    24   ar
    26    19    27   ar
    27    24    27   ar
    28    24    25    1
    29    26    25    1
    30    27    28    1
    31    28    29    1
