@<TRIPOS>MOLECULE
2xkd_T3M_A_1.pdb
 28 30 0 0 0
SMALL
GASTEIGER

@<TRIPOS>ATOM
      1  O26       23.5060   -8.1920   11.8360 O.co2 1280  T3M1280    -0.2406
      2  C24       22.8010   -7.4720   12.8080 C.2   1280  T3M1280     0.3878
      3  O25       21.8210   -6.8680   12.5110 O.co2 1280  T3M1280    -0.2406
      4  C23       23.3050   -7.4160   14.2490 C.ar  1280  T3M1280     0.0798
      5  C22       24.6880   -7.6580   14.5310 C.ar  1280  T3M1280     0.0067
      6  C21       25.1660   -7.5360   15.8490 C.ar  1280  T3M1280     0.0030
      7  C27       22.4250   -7.0400   15.2880 C.ar  1280  T3M1280     0.0067
      8  C28       22.8830   -6.9150   16.5640 C.ar  1280  T3M1280     0.0030
      9  C20       24.3110   -7.1950   16.8560 C.ar  1280  T3M1280     0.0373
     10  C19       24.8530   -7.0130   18.2670 C.2   1280  T3M1280     0.2207
     11  N14       25.4780   -8.0320   18.8880 N.2   1280  T3M1280    -0.3939
     12  C17       24.7490   -5.7360   18.9190 C.2   1280  T3M1280     0.4403
     13  N18       24.0810   -4.6270   18.2900 N.pl3 1280  T3M1280     0.2188
     14  N16       25.2400   -5.5590   20.1680 N.2   1280  T3M1280    -0.0480
     15  C15       25.8260   -6.5570   20.7740 C.3   1280  T3M1280     0.3216
     16  C13       25.9920   -7.8480   20.0740 C.2   1280  T3M1280     0.1629
     17  C12       26.6240   -9.0200   20.8010 C.ar  1280  T3M1280     0.0360
     18  C4        27.2230   -8.8390   22.0720 C.ar  1280  T3M1280     0.0426
     19  C11       26.5680  -10.2640   20.2240 C.ar  1280  T3M1280     0.0426
     20  C8        27.1370  -11.4280   20.9280 C.ar  1280  T3M1280     0.1755
     21  O9        27.0890  -12.7130   20.3670 O.3   1280  T3M1280    -0.4683
     22  C10       26.6140  -12.8850   19.0590 C.3   1280  T3M1280     0.2526
     23  C5        27.7210  -11.2520   22.1440 C.ar  1280  T3M1280     0.2061
     24  O6        28.2690  -12.3530   22.7990 O.3   1280  T3M1280    -0.4654
     25  C7        27.4040  -13.2210   23.4820 C.3   1280  T3M1280     0.2528
     26  C3        27.7760   -9.9800   22.7430 C.ar  1280  T3M1280     0.1755
     27  O2        28.3210   -9.8480   24.0230 O.3   1280  T3M1280    -0.4683
     28  C1        28.6130   -8.5720   24.5130 C.3   1280  T3M1280     0.2526
@<TRIPOS>BOND
     1     1     2   ar
     2     3     2   ar
     3     2     4    1
     4     4     5   ar
     5     4     7   ar
     6     5     6   ar
     7     7     8   ar
     8     6     9   ar
     9     8     9   ar
    10     9    10    1
    11    10    11    2
    12    10    12    1
    13    13    12    1
    14    11    16    2
    15    12    14    2
    16    22    21    1
    17    16    15    1
    18    16    17    1
    19    14    15    1
    20    19    17   ar
    21    19    20   ar
    22    21    20    1
    23    17    18   ar
    24    20    23   ar
    25    18    26   ar
    26    23    26   ar
    27    23    24    1
    28    26    27    1
    29    24    25    1
    30    27    28    1
