@<TRIPOS>MOLECULE
2xke_WI2_A_1.pdb
 24 26 0 0 0
SMALL
GASTEIGER

@<TRIPOS>ATOM
      1  CAL      -22.7460    7.2100   16.4480 C.3   1280  WI21280     0.0939
      2  CAJ      -22.3490    6.9820   14.9860 C.3   1280  WI21280     0.0328
      3  CAW      -23.0220    7.9920   14.0840 C.3   1280  WI21280     0.1068
      4  CAQ      -22.6180    7.7310   12.6530 C.2   1280  WI21280     0.3644
      5  OAD      -21.9200    6.8140   12.2270 O.co2 1280  WI21280    -0.2457
      6  OAC      -23.3230    8.4850   11.7790 O.co2 1280  WI21280    -0.2457
      7  CAK      -24.5240    7.8580   14.3220 C.3   1280  WI21280     0.0328
      8  CAM      -24.9800    8.0770   15.7770 C.3   1280  WI21280     0.0939
      9  NAX      -24.2230    7.1490   16.6760 N.pl3 1280  WI21280    -0.2774
     10  CAV      -24.7210    6.8900   17.9790 C.2   1280  WI21280     0.2745
     11  NAO      -25.2600    7.9270   18.6830 N.2   1280  WI21280    -0.3793
     12  CAR      -24.5390    5.6140   18.6020 C.2   1280  WI21280     0.4547
     13  NAB      -24.0130    4.4920   18.0000 N.pl3 1280  WI21280     0.2204
     14  NAN      -24.9380    5.4430   19.9050 N.2   1280  WI21280    -0.0468
     15  CAH      -25.4790    6.4770   20.5720 C.3   1280  WI21280     0.3217
     16  CAU      -25.6470    7.7410   19.9690 C.2   1280  WI21280     0.1644
     17  CAT      -26.2840    8.8240   20.7690 C.ar  1280  WI21280     0.0329
     18  CAI      -27.0680    8.6300   21.9040 C.ar  1280  WI21280     0.0393
     19  CAG      -26.0800   10.1390   20.3130 C.ar  1280  WI21280     0.0026
     20  CAE      -26.6280   11.2430   20.9840 C.ar  1280  WI21280     0.0032
     21  CAF      -27.4080   11.0510   22.1310 C.ar  1280  WI21280     0.0369
     22  CAS      -27.6190    9.7380   22.5720 C.ar  1280  WI21280     0.1388
     23  OAP      -28.3320    9.4520   23.7050 O.3   1280  WI21280    -0.4714
     24  CAA      -29.2910   10.3970   24.1460 C.3   1280  WI21280     0.2525
@<TRIPOS>BOND
     1     6     4   ar
     2     5     4   ar
     3     4     3    1
     4     3     7    1
     5     3     2    1
     6     7     8    1
     7     2     1    1
     8     8     9    1
     9     1     9    1
    10     9    10    1
    11    10    12    1
    12    10    11    2
    13    13    12    1
    14    12    14    2
    15    11    16    2
    16    14    15    1
    17    16    15    1
    18    16    17    1
    19    19    17   ar
    20    19    20   ar
    21    17    18   ar
    22    20    21   ar
    23    18    22   ar
    24    21    22   ar
    25    22    23    1
    26    23    24    1
