@<TRIPOS>MOLECULE
2xkf_BX1_A_1.pdb
 28 30 0 0 0
SMALL
GASTEIGER

@<TRIPOS>ATOM
      1  C01      -26.1830   16.5240  -19.0830 C.3   1280  BX11280     0.2526
      2  O02      -27.1310   16.8110  -20.0470 O.3   1280  BX11280    -0.4683
      3  C03      -27.1060   18.0280  -20.7090 C.ar  1280  BX11280     0.1755
      4  C04      -26.5220   19.2250  -20.0550 C.ar  1280  BX11280     0.0426
      5  C05      -26.5010   20.5020  -20.7520 C.ar  1280  BX11280     0.0361
      6  C06      -25.9090   21.6290  -20.0950 C.2   1280  BX11280     0.1645
      7  C07      -25.7730   22.8880  -20.7690 C.3   1280  BX11280     0.3217
      8  N08      -25.1790   23.9730  -20.1040 N.2   1280  BX11280    -0.0468
      9  C09      -24.7200   23.8280  -18.7830 C.2   1280  BX11280     0.4547
     10  N10      -24.1040   24.9120  -18.1100 N.pl3 1280  BX11280     0.2204
     11  C11      -24.8480   22.5650  -18.1180 C.2   1280  BX11280     0.2745
     12  N12      -24.3480   22.4240  -16.7570 N.pl3 1280  BX11280    -0.2774
     13  C13      -25.1390   21.4770  -15.9620 C.3   1280  BX11280     0.0939
     14  C14      -24.4390   20.9950  -14.6900 C.3   1280  BX11280     0.0328
     15  C15      -23.3340   21.8960  -14.1890 C.3   1280  BX11280     0.1068
     16  C16      -22.8700   21.7250  -12.7900 C.2   1280  BX11280     0.3644
     17  O17      -22.9460   20.6290  -12.2640 O.co2 1280  BX11280    -0.2457
     18  O18      -22.1310   22.7110  -12.1900 O.co2 1280  BX11280    -0.2457
     19  C19      -22.3340   22.3120  -15.2580 C.3   1280  BX11280     0.0328
     20  C20      -22.9020   22.1940  -16.6950 C.3   1280  BX11280     0.0939
     21  N21      -25.4320   21.4790  -18.7720 N.2   1280  BX11280    -0.3793
     22  C22      -27.0600   20.6200  -22.0960 C.ar  1280  BX11280     0.0426
     23  C23      -27.6410   19.4280  -22.7410 C.ar  1280  BX11280     0.1755
     24  O24      -28.1730   19.5180  -24.0120 O.3   1280  BX11280    -0.4683
     25  C25      -28.3930   20.7590  -24.5680 C.3   1280  BX11280     0.2526
     26  C26      -27.6590   18.1380  -22.0380 C.ar  1280  BX11280     0.2061
     27  O27      -28.1950   17.0170  -22.6330 O.3   1280  BX11280    -0.4654
     28  C28      -27.3450   16.0110  -23.0470 C.3   1280  BX11280     0.2528
@<TRIPOS>BOND
     1    25    24    1
     2    24    23    1
     3    28    27    1
     4    23    22   ar
     5    23    26   ar
     6    27    26    1
     7    22     5   ar
     8    26     3   ar
     9     7     8    1
    10     7     6    1
    11     5     6    1
    12     5     4   ar
    13     3     4   ar
    14     3     2    1
    15     8     9    2
    16     6    21    2
    17     2     1    1
    18     9    11    1
    19     9    10    1
    20    21    11    2
    21    11    12    1
    22    12    20    1
    23    12    13    1
    24    20    19    1
    25    13    14    1
    26    19    15    1
    27    14    15    1
    28    15    16    1
    29    16    17   ar
    30    16    18   ar
