@<TRIPOS>MOLECULE
2xkg_HEM_A_1.pdb
 43 50 0 0 0
SMALL
GASTEIGER

@<TRIPOS>ATOM
      1  CHA       24.9560   31.1710    8.7870 C.2   144  HEM144      0.0000
      2  CHB       26.8390   34.2730   11.9760 C.2   144  HEM144      0.0000
      3  CHC       31.1790   32.1030   11.5690 C.2   144  HEM144      0.0000
      4  CHD       29.3690   29.1010    8.2440 C.2   144  HEM144      0.0000
      5  C1A       25.0800   32.1710    9.7120 C.2   144  HEM144      0.0000
      6  C2A       24.0050   33.0540   10.1340 C.2   144  HEM144      0.0000
      7  C3A       24.5450   33.9060   11.0160 C.2   144  HEM144      0.0000
      8  C4A       25.9510   33.6020   11.1530 C.2   144  HEM144      0.0000
      9  CMA       23.8620   35.0770   11.7400 C.3   144  HEM144      0.0000
     10  CAA       22.5270   32.9470    9.6770 C.3   144  HEM144      0.0000
     11  CBA       21.7910   31.9960   10.6370 C.3   144  HEM144      0.0000
     12  CGA       20.2950   32.0370   10.4130 C.2   144  HEM144      0.0000
     13  O1A       19.8680   32.3780    9.2850 O.co2 144  HEM144      0.0000
     14  O2A       19.5450   31.5670   11.3180 O.co2 144  HEM144      0.0000
     15  C1B       28.1470   33.9060   12.2120 C.ar  144  HEM144      0.0000
     16  C2B       29.0570   34.5540   13.1130 C.ar  144  HEM144      0.0000
     17  C3B       30.2610   33.9860   12.9750 C.ar  144  HEM144      0.0000
     18  C4B       30.1390   32.9140   11.9970 C.ar  144  HEM144      0.0000
     19  CMB       28.6590   35.7250   14.0280 C.3   144  HEM144      0.0000
     20  CAB       31.5230   34.2480   13.8310 C.2   144  HEM144      0.0000
     21  CBB       31.9150   35.4840   14.1460 C.2   144  HEM144      0.0000
     22  C1C       31.0650   31.1120   10.6210 C.2   144  HEM144      0.0000
     23  C2C       32.1400   30.2490   10.1840 C.2   144  HEM144      0.0000
     24  C3C       31.6640   29.4860    9.1950 C.2   144  HEM144      0.0000
     25  C4C       30.2510   29.7760    9.0490 C.2   144  HEM144      0.0000
     26  CMC       33.5880   30.2820   10.7280 C.3   144  HEM144      0.0000
     27  CAC       32.4270   28.3430    8.4950 C.2   144  HEM144      0.0000
     28  CBC       32.2160   28.0180    7.2260 C.2   144  HEM144      0.0000
     29  C1D       28.0500   29.4110    8.0620 C.ar  144  HEM144      0.0000
     30  C2D       27.1800   28.7600    7.1340 C.ar  144  HEM144      0.0000
     31  C3D       25.8380   29.4090    7.2720 C.ar  144  HEM144      0.0000
     32  C4D       25.9880   30.3810    8.3300 C.ar  144  HEM144      0.0000
     33  CMD       27.5750   27.7250    6.0810 C.3   144  HEM144      0.0000
     34  CAD       24.5670   29.1430    6.4520 C.3   144  HEM144      0.0000
     35  CBD       24.6280   30.0470    5.2290 C.3   144  HEM144      0.0000
     36  CGD       23.4680   29.7130    4.3170 C.2   144  HEM144      0.0000
     37  O1D       23.6290   29.7780    3.0730 O.co2 144  HEM144      0.0000
     38  O2D       22.3310   29.4980    4.8160 O.co2 144  HEM144      0.0000
     39  NA        26.2330   32.4800   10.3810 N.2   144  HEM144      0.0000
     40  NB        28.8490   32.9250   11.5150 N.ar  144  HEM144      0.0000
     41  NC        29.9050   30.7490    9.9590 N.2   144  HEM144      0.0000
     42  ND        27.3080   30.3510    8.7880 N.ar  144  HEM144      0.0000
     43 FE         28.0710   31.6350   10.1550 Fe    144  HEM144      0.0000
@<TRIPOS>BOND
     1    37    36   ar
     2    36    38   ar
     3    36    35    1
     4    35    34    1
     5    33    30    1
     6    34    31    1
     7    30    31   ar
     8    30    29   ar
     9    28    27    2
    10    31    32   ar
    11    29     4    2
    12    29    42   ar
    13     4    25    1
    14    32     1    2
    15    32    42   ar
    16    27    24    1
    17     1     5    1
    18    42    43    1
    19    25    24    1
    20    25    41    2
    21    24    23    2
    22    13    12   ar
    23    10     6    1
    24    10    11    1
    25     5     6    1
    26     5    39    2
    27    41    43    1
    28    41    22    1
    29     6     7    2
    30    43    39    1
    31    43    40    1
    32    23    22    1
    33    23    26    1
    34    39     8    1
    35    12    11    1
    36    12    14   ar
    37    22     3    2
    38     7     8    1
    39     7     9    1
    40     8     2    2
    41    40    18   ar
    42    40    15   ar
    43     3    18    1
    44     2    15    1
    45    18    17   ar
    46    15    16   ar
    47    17    16   ar
    48    17    20    1
    49    16    19    1
    50    20    21    2
