@<TRIPOS>MOLECULE
2xkh_HEM_A_1.pdb
 43 50 0 0 0
SMALL
GASTEIGER

@<TRIPOS>ATOM
      1  CHA       24.9650   30.8910    8.8350 C.2   1110  HEM1110     0.0000
      2  CHB       26.9650   34.1820   11.7560 C.2   1110  HEM1110     0.0000
      3  CHC       31.2790   31.9080   11.4220 C.2   1110  HEM1110     0.0000
      4  CHD       29.4370   28.8700    8.1620 C.2   1110  HEM1110     0.0000
      5  C1A       25.1380   31.9450    9.6930 C.2   1110  HEM1110     0.0000
      6  C2A       24.0830   32.7890   10.2170 C.2   1110  HEM1110     0.0000
      7  C3A       24.6380   33.6870   11.0310 C.2   1110  HEM1110     0.0000
      8  C4A       26.0630   33.4460   11.0380 C.2   1110  HEM1110     0.0000
      9  CMA       23.9150   34.7920   11.8320 C.3   1110  HEM1110     0.0000
     10  CAA       22.5780   32.6290    9.9300 C.3   1110  HEM1110     0.0000
     11  CBA       21.9770   31.9260   11.1400 C.3   1110  HEM1110     0.0000
     12  CGA       20.6670   31.3370   10.7240 C.2   1110  HEM1110     0.0000
     13  O1A       19.6560   32.0800   10.7800 O.co2 1110  HEM1110     0.0000
     14  O2A       20.6460   30.1450   10.3150 O.co2 1110  HEM1110     0.0000
     15  C1B       28.2470   33.7740   12.0240 C.ar  1110  HEM1110     0.0000
     16  C2B       29.1450   34.3220   13.0110 C.ar  1110  HEM1110     0.0000
     17  C3B       30.3180   33.6770   12.9020 C.ar  1110  HEM1110     0.0000
     18  C4B       30.2300   32.6890   11.8620 C.ar  1110  HEM1110     0.0000
     19  CMB       28.7620   35.4520   13.9970 C.3   1110  HEM1110     0.0000
     20  CAB       31.6090   33.8610   13.7200 C.2   1110  HEM1110     0.0000
     21  CBB       31.7760   34.9150   14.5170 C.2   1110  HEM1110     0.0000
     22  C1C       31.1910   30.9030   10.4910 C.2   1110  HEM1110     0.0000
     23  C2C       32.2490   30.0190   10.0600 C.2   1110  HEM1110     0.0000
     24  C3C       31.7370   29.1850    9.1600 C.2   1110  HEM1110     0.0000
     25  C4C       30.3440   29.5120    8.9740 C.2   1110  HEM1110     0.0000
     26  CMC       33.7080   30.0260   10.5600 C.3   1110  HEM1110     0.0000
     27  CAC       32.5120   28.0690    8.4400 C.2   1110  HEM1110     0.0000
     28  CBC       32.2890   27.8790    7.1370 C.2   1110  HEM1110     0.0000
     29  C1D       28.1020   29.1950    8.0410 C.ar  1110  HEM1110     0.0000
     30  C2D       27.2640   28.6520    7.0080 C.ar  1110  HEM1110     0.0000
     31  C3D       25.8810   29.2650    7.1980 C.ar  1110  HEM1110     0.0000
     32  C4D       26.0000   30.1400    8.3350 C.ar  1110  HEM1110     0.0000
     33  CMD       27.7000   27.6360    5.9460 C.3   1110  HEM1110     0.0000
     34  CAD       24.6330   29.0110    6.3360 C.3   1110  HEM1110     0.0000
     35  CBD       24.9320   29.4830    4.9190 C.3   1110  HEM1110     0.0000
     36  CGD       23.6510   29.5060    4.1320 C.2   1110  HEM1110     0.0000
     37  O1D       23.7230   29.6890    2.8990 O.co2 1110  HEM1110     0.0000
     38  O2D       22.5560   29.3480    4.7260 O.co2 1110  HEM1110     0.0000
     39  NA        26.3580   32.3690   10.2040 N.2   1110  HEM1110     0.0000
     40  NB        29.0060   32.8960   11.2350 N.ar  1110  HEM1110     0.0000
     41  NC        30.0470   30.5690    9.8070 N.2   1110  HEM1110     0.0000
     42  ND        27.3330   30.0840    8.8330 N.ar  1110  HEM1110     0.0000
     43 FE         28.3280   31.4210   10.0930 Fe    1110  HEM1110     0.0000
@<TRIPOS>BOND
     1    37    36   ar
     2    36    38   ar
     3    36    35    1
     4    35    34    1
     5    33    30    1
     6    34    31    1
     7    30    31   ar
     8    30    29   ar
     9    28    27    2
    10    31    32   ar
    11    29     4    2
    12    29    42   ar
    13     4    25    1
    14    32    42   ar
    15    32     1    2
    16    27    24    1
    17    42    43    1
    18     1     5    1
    19    25    24    1
    20    25    41    2
    21    24    23    2
    22     5    39    2
    23     5     6    1
    24    41    43    1
    25    41    22    1
    26    10     6    1
    27    10    11    1
    28    23    22    1
    29    23    26    1
    30    43    39    1
    31    43    40    1
    32    39     8    1
    33     6     7    2
    34    14    12   ar
    35    22     3    2
    36    12    13   ar
    37    12    11    1
    38     7     8    1
    39     7     9    1
    40     8     2    2
    41    40    18   ar
    42    40    15   ar
    43     3    18    1
    44     2    15    1
    45    18    17   ar
    46    15    16   ar
    47    17    16   ar
    48    17    20    1
    49    16    19    1
    50    20    21    2
