@<TRIPOS>MOLECULE
2xki_HEM_A_1.pdb
 43 50 0 0 0
SMALL
GASTEIGER

@<TRIPOS>ATOM
      1  CHA       17.7120   12.3020    8.8270 C.2   1110  HEM1110     0.0000
      2  CHB       15.7870    9.2680   12.0290 C.2   1110  HEM1110     0.0000
      3  CHC       11.5410   11.4790   11.5000 C.2   1110  HEM1110     0.0000
      4  CHD       13.3870   14.3380    8.1190 C.2   1110  HEM1110     0.0000
      5  C1A       17.5630   11.3090    9.7510 C.2   1110  HEM1110     0.0000
      6  C2A       18.6150   10.4170   10.2060 C.2   1110  HEM1110     0.0000
      7  C3A       18.0730    9.5430   11.0670 C.2   1110  HEM1110     0.0000
      8  C4A       16.6880    9.8980   11.2130 C.2   1110  HEM1110     0.0000
      9  CMA       18.7530    8.4120   11.8430 C.3   1110  HEM1110     0.0000
     10  CAA       20.0930   10.4880    9.7840 C.3   1110  HEM1110     0.0000
     11  CBA       20.8550   11.4610   10.6970 C.3   1110  HEM1110     0.0000
     12  CGA       22.3400   11.4420   10.4450 C.2   1110  HEM1110     0.0000
     13  O1A       22.7500   11.0690    9.3270 O.co2 1110  HEM1110     0.0000
     14  O2A       23.1060   11.9450   11.3020 O.co2 1110  HEM1110     0.0000
     15  C1B       14.4750    9.6070   12.1830 C.ar  1110  HEM1110     0.0000
     16  C2B       13.5620    9.0240   13.1240 C.ar  1110  HEM1110     0.0000
     17  C3B       12.3710    9.6240   12.9590 C.ar  1110  HEM1110     0.0000
     18  C4B       12.5270   10.6580   11.9660 C.ar  1110  HEM1110     0.0000
     19  CMB       13.9850    7.8650   14.0340 C.3   1110  HEM1110     0.0000
     20  CAB       11.0610    9.4190   13.7140 C.2   1110  HEM1110     0.0000
     21  CBB       10.5890    8.2120   13.9900 C.2   1110  HEM1110     0.0000
     22  C1C       11.6440   12.4520   10.5420 C.2   1110  HEM1110     0.0000
     23  C2C       10.5640   13.2870   10.0390 C.2   1110  HEM1110     0.0000
     24  C3C       11.0760   14.0350    9.0560 C.2   1110  HEM1110     0.0000
     25  C4C       12.4810   13.7160    8.9330 C.2   1110  HEM1110     0.0000
     26  CMC        9.1040   13.3100   10.5350 C.3   1110  HEM1110     0.0000
     27  CAC       10.2830   15.0790    8.2680 C.2   1110  HEM1110     0.0000
     28  CBC       10.5940   15.4550    7.0260 C.2   1110  HEM1110     0.0000
     29  C1D       14.7080   14.0490    8.0020 C.ar  1110  HEM1110     0.0000
     30  C2D       15.5770   14.6670    7.0550 C.ar  1110  HEM1110     0.0000
     31  C3D       16.9020   14.0620    7.2720 C.ar  1110  HEM1110     0.0000
     32  C4D       16.7180   13.0860    8.3070 C.ar  1110  HEM1110     0.0000
     33  CMD       15.2080   15.6970    5.9980 C.3   1110  HEM1110     0.0000
     34  CAD       18.1460   14.2910    6.4580 C.3   1110  HEM1110     0.0000
     35  CBD       18.1340   13.3440    5.2620 C.3   1110  HEM1110     0.0000
     36  CGD       19.2820   13.6230    4.3260 C.2   1110  HEM1110     0.0000
     37  O1D       19.0870   13.5780    3.1030 O.co2 1110  HEM1110     0.0000
     38  O2D       20.4000   13.8390    4.8210 O.co2 1110  HEM1110     0.0000
     39  NA        16.3870   10.9830   10.3930 N.2   1110  HEM1110     0.0000
     40  NB        13.8290   10.6240   11.5020 N.ar  1110  HEM1110     0.0000
     41  NC        12.8080   12.7350    9.8510 N.2   1110  HEM1110     0.0000
     42  ND        15.4020   13.0910    8.7250 N.ar  1110  HEM1110     0.0000
     43 FE         14.6050   11.8820   10.1440 Fe    1110  HEM1110     0.0000
@<TRIPOS>BOND
     1    37    36   ar
     2    36    38   ar
     3    36    35    1
     4    35    34    1
     5    33    30    1
     6    34    31    1
     7    28    27    2
     8    30    31   ar
     9    30    29   ar
    10    31    32   ar
    11    29     4    2
    12    29    42   ar
    13     4    25    1
    14    27    24    1
    15    32    42   ar
    16    32     1    2
    17    42    43    1
    18     1     5    1
    19    25    24    1
    20    25    41    2
    21    24    23    2
    22    13    12   ar
    23     5     6    1
    24     5    39    2
    25    10     6    1
    26    10    11    1
    27    41    43    1
    28    41    22    1
    29    23    26    1
    30    23    22    1
    31    43    39    1
    32    43    40    1
    33     6     7    2
    34    39     8    1
    35    12    11    1
    36    12    14   ar
    37    22     3    2
    38     7     8    1
    39     7     9    1
    40     8     2    2
    41     3    18    1
    42    40    18   ar
    43    40    15   ar
    44    18    17   ar
    45     2    15    1
    46    15    16   ar
    47    17    16   ar
    48    17    20    1
    49    16    19    1
    50    20    21    2
