@<TRIPOS>MOLECULE
2xkk_MFX_F_1.pdb
 29 33 0 0 0
SMALL
GASTEIGER

@<TRIPOS>ATOM
      1  F        -17.2210   43.9140  -11.8190 F     1100  MFX1100    -0.2028
      2  O01      -18.0770   46.6410  -15.6480 O.3   1100  MFX1100    -0.4686
      3  O02      -21.9040   43.0420  -12.9470 O.2   1100  MFX1100    -0.2862
      4  O03      -24.3530   43.1550  -14.2740 O.co2 1100  MFX1100    -0.2404
      5  O        -24.3940   44.5860  -16.0590 O.co2 1100  MFX1100    -0.2404
      6  N01      -16.2620   45.7900  -13.7230 N.pl3 1100  MFX1100    -0.3019
      7  N02      -13.4810   46.4570  -12.9760 N.3   1100  MFX1100    -0.2177
      8  N        -20.7050   45.7080  -15.7140 N.ar  1100  MFX1100    -0.3252
      9  C01      -15.2570   47.9520  -13.5360 C.3   1100  MFX1100     0.0375
     10  C02      -14.7530   47.0340  -12.4660 C.3   1100  MFX1100     0.0941
     11  C03      -16.1450   47.0760  -14.3950 C.3   1100  MFX1100     0.0924
     12  C04      -15.7640   45.9140  -12.3750 C.3   1100  MFX1100     0.1083
     13  C05      -14.1010   48.5410  -14.3060 C.3   1100  MFX1100     0.0046
     14  C06      -20.3670   46.6720  -16.7510 C.3   1100  MFX1100     0.0857
     15  C07      -13.4690   47.4610  -15.1430 C.3   1100  MFX1100     0.0189
     16  C08      -21.2160   47.9000  -16.9060 C.3   1100  MFX1100     0.0245
     17  C09      -19.8040   48.0160  -16.4110 C.3   1100  MFX1100     0.0245
     18  C10      -13.5330   46.1430  -14.4190 C.3   1100  MFX1100     0.0887
     19  C11      -17.5900   45.3040  -13.7330 C.ar  1100  MFX1100     0.1116
     20  C12      -19.7870   45.2820  -14.7480 C.ar  1100  MFX1100     0.0987
     21  C13      -18.4860   45.7320  -14.6980 C.ar  1100  MFX1100     0.1698
     22  C14      -20.1870   44.3690  -13.8020 C.ar  1100  MFX1100     0.0603
     23  C15      -18.0250   44.3870  -12.7920 C.ar  1100  MFX1100     0.1565
     24  C16      -21.9750   45.2300  -15.7130 C.ar  1100  MFX1100     0.0857
     25  C17      -19.3210   43.9230  -12.8330 C.ar  1100  MFX1100     0.0358
     26  C18      -22.4540   44.3520  -14.8440 C.ar  1100  MFX1100     0.1357
     27  C19      -21.5590   43.8480  -13.7940 C.ar  1100  MFX1100     0.2050
     28  C20      -23.8780   43.9930  -15.0740 C.2   1100  MFX1100     0.3923
     29  C        -17.0090   45.9460  -16.2700 C.3   1100  MFX1100     0.2526
@<TRIPOS>BOND
     1    16    14    1
     2    16    17    1
     3    14    17    1
     4    14     8    1
     5    29     2    1
     6     5    28   ar
     7     8    24   ar
     8     8    20   ar
     9    24    26   ar
    10     2    21    1
    11    15    18    1
    12    15    13    1
    13    28    26    1
    14    28     4   ar
    15    26    27   ar
    16    20    21   ar
    17    20    22   ar
    18    21    19   ar
    19    18     7    1
    20    11     6    1
    21    11     9    1
    22    13     9    1
    23    22    27   ar
    24    22    25   ar
    25    27     3    2
    26    19     6    1
    27    19    23   ar
    28     6    12    1
    29     9    10    1
    30     7    10    1
    31    25    23   ar
    32    23     1    1
    33    10    12    1
