@<TRIPOS>MOLECULE
2xko_AKG_A_1.pdb
 10 9 0 0 0
SMALL
GASTEIGER

@<TRIPOS>ATOM
      1  C1       -13.2140   29.3150   -1.7940 C.2   1223  AKG1223     0.4219
      2  O1       -14.4010   29.0130   -1.7060 O.co2 1223  AKG1223    -0.2373
      3  O2       -12.7900   30.4810   -1.7500 O.co2 1223  AKG1223    -0.2373
      4  C2       -12.3190   28.1250   -1.9510 C.2   1223  AKG1223     0.2526
      5  O5       -12.9150   27.0680   -1.9230 O.2   1223  AKG1223    -0.2843
      6  C3       -10.7790   28.1640   -2.0510 C.3   1223  AKG1223     0.0881
      7  C4       -10.3320   27.7780   -3.4530 C.3   1223  AKG1223     0.1224
      8  C5        -9.7670   26.3530   -3.5270 C.2   1223  AKG1223     0.3653
      9  O3       -10.5900   25.4670   -3.8140 O.co2 1223  AKG1223    -0.2456
     10  O4        -8.5290   26.1800   -3.4070 O.co2 1223  AKG1223    -0.2456
@<TRIPOS>BOND
     1     9     8   ar
     2     8     7    1
     3     8    10   ar
     4     7     6    1
     5     6     4    1
     6     4     5    2
     7     4     1    1
     8     1     3   ar
     9     1     2   ar
