@<TRIPOS>MOLECULE
2xkp_AKG_A_1.pdb
 10 9 0 0 0
SMALL
GASTEIGER

@<TRIPOS>ATOM
      1  C1       -18.3930  -17.6790    0.9090 C.2   1223  AKG1223     0.4219
      2  O1       -17.3960  -17.1440    1.4420 O.co2 1223  AKG1223    -0.2373
      3  O2       -18.3220  -18.5730    0.0220 O.co2 1223  AKG1223    -0.2373
      4  C2       -19.7620  -17.1890    1.4070 C.2   1223  AKG1223     0.2526
      5  O5       -19.8030  -16.3110    2.2690 O.2   1223  AKG1223    -0.2843
      6  C3       -21.0500  -17.7780    0.8330 C.3   1223  AKG1223     0.0881
      7  C4       -21.9030  -16.6440    0.2810 C.3   1223  AKG1223     0.1224
      8  C5       -23.3110  -16.6910    0.8670 C.2   1223  AKG1223     0.3653
      9  O3       -23.6400  -15.7860    1.6600 O.co2 1223  AKG1223    -0.2456
     10  O4       -24.0590  -17.6240    0.5070 O.co2 1223  AKG1223    -0.2456
@<TRIPOS>BOND
     1     3     1   ar
     2     7     6    1
     3     7     8    1
     4    10     8   ar
     5     6     4    1
     6     8     9   ar
     7     1     4    1
     8     1     2   ar
     9     4     5    2
