@<TRIPOS>MOLECULE
2xkr_HEM_A_1.pdb
 43 50 0 0 0
SMALL
GASTEIGER

@<TRIPOS>ATOM
      1  CHA       19.7000   39.6160   86.9630 C.2   1400  HEM1400     0.0000
      2  CHB       15.8750   42.3040   85.6990 C.2   1400  HEM1400     0.0000
      3  CHC       18.8540   45.7690   84.0460 C.2   1400  HEM1400     0.0000
      4  CHD       22.6720   42.8790   84.8100 C.2   1400  HEM1400     0.0000
      5  C1A       18.4020   40.0290   86.7730 C.2   1400  HEM1400     0.0000
      6  C2A       17.2110   39.2970   87.1600 C.2   1400  HEM1400     0.0000
      7  C3A       16.1530   40.0450   86.8040 C.2   1400  HEM1400     0.0000
      8  C4A       16.6460   41.2720   86.1990 C.2   1400  HEM1400     0.0000
      9  CMA       14.6670   39.6830   86.9840 C.3   1400  HEM1400     0.0000
     10  CAA       17.1780   37.9030   87.8350 C.3   1400  HEM1400     0.0000
     11  CBA       16.6160   38.0800   89.2560 C.3   1400  HEM1400     0.0000
     12  CGA       16.0410   36.8070   89.8270 C.2   1400  HEM1400     0.0000
     13  O1A       15.9530   35.7680   89.1290 O.co2 1400  HEM1400     0.0000
     14  O2A       15.6500   36.8540   91.0230 O.co2 1400  HEM1400     0.0000
     15  C1B       16.3510   43.4730   85.1540 C.ar  1400  HEM1400     0.0000
     16  C2B       15.5510   44.6050   84.7290 C.ar  1400  HEM1400     0.0000
     17  C3B       16.3760   45.5480   84.2610 C.ar  1400  HEM1400     0.0000
     18  C4B       17.7290   45.0670   84.4010 C.ar  1400  HEM1400     0.0000
     19  CMB       14.0120   44.6620   84.8070 C.3   1400  HEM1400     0.0000
     20  CAB       16.0520   46.9460   83.7080 C.2   1400  HEM1400     0.0000
     21  CBB       14.8700   47.5230   83.9510 C.2   1400  HEM1400     0.0000
     22  C1C       20.1470   45.3060   84.1480 C.2   1400  HEM1400     0.0000
     23  C2C       21.3350   46.0610   83.8420 C.2   1400  HEM1400     0.0000
     24  C3C       22.3790   45.2600   84.0420 C.2   1400  HEM1400     0.0000
     25  C4C       21.8970   43.9690   84.4790 C.2   1400  HEM1400     0.0000
     26  CMC       21.4000   47.5310   83.3720 C.3   1400  HEM1400     0.0000
     27  CAC       23.8520   45.6610   83.8230 C.2   1400  HEM1400     0.0000
     28  CBC       24.8140   44.8040   84.1810 C.2   1400  HEM1400     0.0000
     29  C1D       22.2350   41.7510   85.4560 C.ar  1400  HEM1400     0.0000
     30  C2D       23.0750   40.6570   85.8710 C.ar  1400  HEM1400     0.0000
     31  C3D       22.1610   39.6490   86.5400 C.ar  1400  HEM1400     0.0000
     32  C4D       20.8370   40.2250   86.4710 C.ar  1400  HEM1400     0.0000
     33  CMD       24.5980   40.5100   85.6970 C.3   1400  HEM1400     0.0000
     34  CAD       22.5720   38.2980   87.1560 C.3   1400  HEM1400     0.0000
     35  CBD       22.6470   38.4580   88.6730 C.3   1400  HEM1400     0.0000
     36  CGD       22.9900   37.1450   89.3250 C.2   1400  HEM1400     0.0000
     37  O1D       22.7230   36.0820   88.7180 O.co2 1400  HEM1400     0.0000
     38  O2D       23.5070   37.1660   90.4820 O.co2 1400  HEM1400     0.0000
     39  NA        18.0280   41.2340   86.2030 N.2   1400  HEM1400     0.0000
     40  NB        17.6760   43.7900   84.9320 N.ar  1400  HEM1400     0.0000
     41  NC        20.5190   44.0310   84.5450 N.2   1400  HEM1400     0.0000
     42  ND        20.9200   41.4580   85.8300 N.ar  1400  HEM1400     0.0000
     43 FE         19.2950   42.6720   85.4580 Fe    1400  HEM1400     0.0000
@<TRIPOS>BOND
     1    26    23    1
     2    20    21    2
     3    20    17    1
     4    27    24    1
     5    27    28    2
     6    23    24    2
     7    23    22    1
     8    24    25    1
     9     3    22    2
    10     3    18    1
    11    22    41    1
    12    17    18   ar
    13    17    16   ar
    14    18    40   ar
    15    25    41    2
    16    25     4    1
    17    41    43    1
    18    16    19    1
    19    16    15   ar
    20     4    29    2
    21    40    15   ar
    22    40    43    1
    23    15     2    1
    24    29    42   ar
    25    29    30   ar
    26    43    42    1
    27    43    39    1
    28    33    30    1
    29     2     8    2
    30    42    32   ar
    31    30    31   ar
    32     8    39    1
    33     8     7    1
    34    39     5    2
    35    32    31   ar
    36    32     1    2
    37    31    34    1
    38     5     1    1
    39     5     6    1
    40     7     9    1
    41     7     6    2
    42    34    35    1
    43     6    10    1
    44    10    11    1
    45    35    36    1
    46    37    36   ar
    47    13    12   ar
    48    11    12    1
    49    36    38   ar
    50    12    14   ar
