@<TRIPOS>MOLECULE
2xkw_P1B_A_1.pdb
 25 27 0 0 0
SMALL
GASTEIGER

@<TRIPOS>ATOM
      1  O4        14.6150    3.8460   37.8530 O.2   1478  P1B1478    -0.2125
      2  C4        13.9320    4.3000   38.7630 C.1   1478  P1B1478     0.2022
      3  N3        13.3820    5.5290   38.6880 N.2   1478  P1B1478    -0.2557
      4  C5        13.6040    3.4590   40.0110 C.3   1478  P1B1478     0.1865
      5  S1        12.6220    4.6670   40.9510 S.3   1478  P1B1478     0.0093
      6  C2        12.6590    5.8810   39.7600 C.1   1478  P1B1478     0.2450
      7  O2        12.0920    6.9590   39.8900 O.2   1478  P1B1478    -0.2017
      8  C6        14.8640    2.8900   40.6630 C.3   1478  P1B1478     0.0562
      9  C21       14.4420    7.0490   49.9830 C.ar  1478  P1B1478    -0.0015
     10  C7        14.7830    2.7590   42.1840 C.ar  1478  P1B1478    -0.0199
     11  C12       13.5870    2.4750   42.8410 C.ar  1478  P1B1478    -0.0011
     12  C11       13.5900    2.3890   44.2310 C.ar  1478  P1B1478     0.0366
     13  C10       14.7710    2.5770   44.9570 C.ar  1478  P1B1478     0.1385
     14  C9        15.9600    2.8530   44.2930 C.ar  1478  P1B1478     0.0366
     15  C8        15.9600    2.9420   42.9080 C.ar  1478  P1B1478    -0.0011
     16  O13       14.7640    2.4690   46.3110 O.3   1478  P1B1478    -0.4750
     17  C14       15.6050    3.4000   47.0020 C.3   1478  P1B1478     0.2117
     18  C15       14.9440    3.6470   48.3620 C.3   1478  P1B1478     0.0931
     19  C24       17.2400    9.2970   50.4790 C.3   1478  P1B1478     0.0051
     20  C23       15.9490    8.9410   50.0890 C.3   1478  P1B1478     0.0279
     21  C20       15.6680    7.6400   49.6780 C.ar  1478  P1B1478    -0.0030
     22  C19       16.6130    6.9140   48.9570 C.ar  1478  P1B1478     0.0941
     23  N18       16.3590    5.6760   48.5620 N.ar  1478  P1B1478    -0.2484
     24  C22       14.1950    5.7480   49.5570 C.ar  1478  P1B1478     0.0145
     25  C17       15.1850    5.0750   48.8400 C.ar  1478  P1B1478     0.0627
@<TRIPOS>BOND
     1     1     2    2
     2     3     2    2
     3     3     6    2
     4     2     4    1
     5     6     7    2
     6     6     5    1
     7     4     8    1
     8     4     5    1
     9     8    10    1
    10    10    11   ar
    11    10    15   ar
    12    11    12   ar
    13    15    14   ar
    14    12    13   ar
    15    14    13   ar
    16    13    16    1
    17    16    17    1
    18    17    18    1
    19    18    25    1
    20    23    25   ar
    21    23    22   ar
    22    25    24   ar
    23    22    21   ar
    24    24     9   ar
    25    21     9   ar
    26    21    20    1
    27    20    19    1
