@<TRIPOS>MOLECULE
2xl3_III_D_1.pdb
 41 40 0 0 0
SMALL
GASTEIGER

@<TRIPOS>ATOM
      1  N         28.8100   -3.5940    9.2850 N.3     1  ALA1       -0.1231
      2  CA        27.5350   -3.1120    8.7560 C.3     1  ALA1        0.1694
      3  C         27.4680   -3.2460    7.2300 C.2     1  ALA1        0.2592
      4  O         28.4410   -3.6350    6.5750 O.2     1  ALA1       -0.2718
      5  CB        27.2840   -1.6670    9.1840 C.3     1  ALA1        0.0304
      6  N         26.3090   -2.9210    6.6720 N.am    2  ARG2       -0.1966
      7  CA        26.0680   -3.0730    5.2400 C.3     2  ARG2        0.1729
      8  C         26.7480   -1.9310    4.4880 C.2     2  ARG2        0.2617
      9  O         26.9540   -1.9880    3.2760 O.2     2  ARG2       -0.2715
     10  CB        24.5560   -3.0620    4.9710 C.3     2  ARG2        0.0348
     11  CG        24.1330   -3.4640    3.5650 C.3     2  ARG2        0.0492
     12  CD        22.6940   -3.0060    3.2660 C.3     2  ARG2        0.2205
     13  NE        21.6590   -3.8280    3.8960 N.pl3   2  ARG2       -0.0865
     14  CZ        21.2320   -4.9930    3.4090 C.cat   2  ARG2        0.5346
     15  NH1       21.7740   -5.4810    2.2980 N.pl3   2  ARG2        0.1354
     16  NH2       20.2780   -5.6830    4.0390 N.pl3   2  ARG2        0.1354
     17  N         27.1100   -0.8960    5.2350 N.am    3  THR3       -0.1937
     18  CA        27.6200    0.3310    4.6460 C.3     3  THR3        0.2028
     19  C         29.1520    0.4350    4.6610 C.2     3  THR3        0.2642
     20  O         29.7210    1.3010    3.9960 O.2     3  THR3       -0.2714
     21  CB        26.9630    1.5840    5.2960 C.3     3  THR3        0.1808
     22  OG1       27.2170    1.6060    6.7120 O.3     3  THR3       -0.2208
     23  CG2       25.4480    1.5810    5.0480 C.3     3  THR3        0.0379
     24  N         29.8240   -0.4460    5.3970 N.am    4  LYS4       -0.1963
     25  CA        31.2890   -0.4180    5.4290 C.3     4  LYS4        0.1728
     26  C         31.9000   -1.1010    4.1880 C.2     4  LYS4        0.2616
     27  O         32.7760   -0.5270    3.5290 O.2     4  LYS4       -0.2715
     28  CB        31.8360   -1.0360    6.7250 C.3     4  LYS4        0.0311
     29  CG        30.9370   -0.8740    7.9630 C.3     4  LYS4        0.0038
     30  CD        30.9020    0.5480    8.5230 C.3     4  LYS4        0.0206
     31  CE        30.0770    0.5960    9.8210 C.3     4  LYS4        0.1093
     32  NZ        29.9410    1.9640   10.4300 N.3     4  LYS4       -0.1314
     33  N         31.4280   -2.3140    3.8780 N.am    5  GLN5       -0.1977
     34  CA        31.8730   -3.0760    2.7020 C.3     5  GLN5        0.1601
     35  C         31.3630   -4.5250    2.7540 C.2     5  GLN5        0.2287
     36  O         30.1850   -4.8050    2.4980 O.2     5  GLN5       -0.2864
     37  CB        33.4060   -3.0640    2.5760 C.3     5  GLN5        0.0394
     38  CG        33.9360   -3.0490    1.1370 C.3     5  GLN5        0.0908
     39  CD        34.4440   -4.4110    0.6600 C.2     5  GLN5        0.2608
     40  OE1       34.3320   -5.4210    1.3660 O.2     5  GLN5       -0.2717
     41  NE2       35.0090   -4.4380   -0.5470 N.am    5  GLN5       -0.0878
@<TRIPOS>BOND
     1    41    39   am
     2    39    38    1
     3    39    40    2
     4    38    37    1
     5    15    14    1
     6    36    35    2
     7    37    34    1
     8    34    35    1
     9    34    33    1
    10    12    11    1
    11    12    13    1
    12     9     8    2
    13    14    13    2
    14    14    16    1
    15    27    26    2
    16    11    10    1
    17    33    26   am
    18    20    19    2
    19    26    25    1
    20     8    17   am
    21     8     7    1
    22    18    19    1
    23    18    17    1
    24    18    21    1
    25    19    24   am
    26    10     7    1
    27    23    21    1
    28     7     6    1
    29    21    22    1
    30    24    25    1
    31    25    28    1
    32     4     3    2
    33     6     3   am
    34    28    29    1
    35     3     2    1
    36    29    30    1
    37    30    31    1
    38     2     5    1
    39     2     1    1
    40    31    32    1
