@<TRIPOS>MOLECULE
2xl6_HEC_A_1.pdb
 43 50 0 0 0
SMALL
GASTEIGER

@<TRIPOS>ATOM
      1 FE        -22.9050   25.7900    9.0200 Fe    128  HEC128      0.0000
      2  CHA      -26.2970   26.1390    9.2800 C.2   128  HEC128      0.0000
      3  CHB      -22.6960   25.8730   12.4160 C.2   128  HEC128      0.0000
      4  CHC      -19.5830   25.0550    8.8130 C.2   128  HEC128      0.0000
      5  CHD      -23.2020   25.3760    5.6600 C.2   128  HEC128      0.0000
      6  NA       -24.2450   25.9720   10.5370 N.2   128  HEC128      0.0000
      7  C1A      -25.6160   26.0160   10.4560 C.2   128  HEC128      0.0000
      8  C2A      -26.1970   25.9690   11.7800 C.2   128  HEC128      0.0000
      9  C3A      -25.1950   25.8840   12.6540 C.2   128  HEC128      0.0000
     10  C4A      -23.9670   25.8860   11.8880 C.2   128  HEC128      0.0000
     11  CMA      -25.2840   25.7770   14.1930 C.3   128  HEC128      0.0000
     12  CAA      -27.7030   25.9780   12.0690 C.3   128  HEC128      0.0000
     13  CBA      -28.2830   24.5940   11.8780 C.3   128  HEC128      0.0000
     14  CGA      -29.7210   24.5350   12.3110 C.2   128  HEC128      0.0000
     15  O1A      -30.4200   25.5900   12.4380 O.co2 128  HEC128      0.0000
     16  O2A      -30.1580   23.3880   12.5640 O.co2 128  HEC128      0.0000
     17  NB       -21.4240   25.4970   10.3550 N.ar  128  HEC128      0.0000
     18  C1B      -21.5270   25.6580   11.7130 C.ar  128  HEC128      0.0000
     19  C2B      -20.2060   25.5200   12.2970 C.ar  128  HEC128      0.0000
     20  C3B      -19.3490   25.3310   11.2900 C.ar  128  HEC128      0.0000
     21  C4B      -20.1100   25.2530   10.0610 C.ar  128  HEC128      0.0000
     22  CMB      -19.8690   25.7340   13.7930 C.3   128  HEC128      0.0000
     23  CAB      -17.8260   25.1350   11.3520 C.3   128  HEC128      0.0000
     24  CBB      -17.3400   24.3160   12.5740 C.3   128  HEC128      0.0000
     25  NC       -21.6380   25.2930    7.5430 N.2   128  HEC128      0.0000
     26  C1C      -20.2810   25.0990    7.6290 C.2   128  HEC128      0.0000
     27  C2C      -19.7220   24.8320    6.3310 C.2   128  HEC128      0.0000
     28  C3C      -20.7020   24.9710    5.4620 C.2   128  HEC128      0.0000
     29  C4C      -21.9270   25.2330    6.1990 C.2   128  HEC128      0.0000
     30  CMC      -18.2120   24.6920    6.0680 C.3   128  HEC128      0.0000
     31  CAC      -20.5730   25.0720    3.9610 C.3   128  HEC128      0.0000
     32  CBC      -19.6910   24.0270    3.2380 C.3   128  HEC128      0.0000
     33  ND       -24.4450   25.7820    7.6980 N.ar  128  HEC128      0.0000
     34  C1D      -24.3550   25.6080    6.3360 C.ar  128  HEC128      0.0000
     35  C2D      -25.6330   25.7730    5.7280 C.ar  128  HEC128      0.0000
     36  C3D      -26.5850   26.0440    6.8360 C.ar  128  HEC128      0.0000
     37  C4D      -25.7830   25.9890    8.0240 C.ar  128  HEC128      0.0000
     38  CMD      -25.9330   25.7050    4.2350 C.3   128  HEC128      0.0000
     39  CAD      -28.0770   26.3210    6.7020 C.3   128  HEC128      0.0000
     40  CBD      -28.8860   25.1400    7.1820 C.3   128  HEC128      0.0000
     41  CGD      -30.2900   25.5330    7.5190 C.2   128  HEC128      0.0000
     42  O1D      -30.9190   26.3180    6.7510 O.co2 128  HEC128      0.0000
     43  O2D      -30.7860   25.0330    8.5740 O.co2 128  HEC128      0.0000
@<TRIPOS>BOND
     1    32    31    1
     2    31    28    1
     3    38    35    1
     4    28    29    1
     5    28    27    2
     6     5    29    1
     7     5    34    2
     8    35    34   ar
     9    35    36   ar
    10    30    27    1
    11    29    25    2
    12    27    26    1
    13    34    33   ar
    14    39    36    1
    15    39    40    1
    16    42    41   ar
    17    36    37   ar
    18    40    41    1
    19    41    43   ar
    20    25    26    1
    21    25     1    1
    22    26     4    2
    23    33    37   ar
    24    33     1    1
    25    37     2    2
    26     4    21    1
    27     1    17    1
    28     1     6    1
    29     2     7    1
    30    21    17   ar
    31    21    20   ar
    32    17    18   ar
    33     7     6    2
    34     7     8    1
    35     6    10    1
    36    20    23    1
    37    20    19   ar
    38    23    24    1
    39    18    19   ar
    40    18     3    1
    41     8    12    1
    42     8     9    2
    43    13    12    1
    44    13    14    1
    45    10     3    2
    46    10     9    1
    47    19    22    1
    48    14    15   ar
    49    14    16   ar
    50     9    11    1
