@<TRIPOS>MOLECULE
2xl8_HEC_A_1.pdb
 43 50 0 0 0
SMALL
GASTEIGER

@<TRIPOS>ATOM
      1  CHA        8.3580   36.2250   21.6410 C.2   1127  HEC1127     0.0000
      2  C1A        8.0630   36.8500   20.4250 C.ar  1127  HEC1127     0.0000
      3  C2A        8.3880   36.3220   19.1040 C.ar  1127  HEC1127     0.0000
      4  CAA        9.0770   35.0100   18.7850 C.3   1127  HEC1127     0.0000
      5  CBA        8.0500   33.8510   18.7060 C.3   1127  HEC1127     0.0000
      6  CGA        8.6990   32.5630   18.2990 C.2   1127  HEC1127     0.0000
      7  O1A        9.2790   31.8750   19.1380 O.co2 1127  HEC1127     0.0000
      8  O2A        8.6100   32.2180   17.0860 O.co2 1127  HEC1127     0.0000
      9  C3A        7.9560   37.2370   18.1960 C.ar  1127  HEC1127     0.0000
     10  CMA        8.0050   37.1590   16.6690 C.3   1127  HEC1127     0.0000
     11  C4A        7.3770   38.3180   18.9370 C.ar  1127  HEC1127     0.0000
     12  NA         7.4550   38.0660   20.2750 N.ar  1127  HEC1127     0.0000
     13  CHB        6.8120   39.4710   18.3850 C.2   1127  HEC1127     0.0000
     14  C1B        6.1050   40.4840   19.0250 C.2   1127  HEC1127     0.0000
     15  C2B        5.4770   41.6260   18.4210 C.2   1127  HEC1127     0.0000
     16  CMB        5.6230   42.0130   16.9370 C.3   1127  HEC1127     0.0000
     17  C3B        4.8330   42.2870   19.3840 C.2   1127  HEC1127     0.0000
     18  CAB        3.9930   43.5490   19.3270 C.3   1127  HEC1127     0.0000
     19  CBB        3.1130   43.6540   18.0700 C.3   1127  HEC1127     0.0000
     20  C4B        5.0480   41.5460   20.6240 C.2   1127  HEC1127     0.0000
     21  NB         5.8510   40.4700   20.3590 N.2   1127  HEC1127     0.0000
     22  CHC        4.5550   41.9050   21.8800 C.2   1127  HEC1127     0.0000
     23  C1C        4.8300   41.2910   23.0790 C.ar  1127  HEC1127     0.0000
     24  C2C        4.3490   41.7470   24.3810 C.ar  1127  HEC1127     0.0000
     25  CMC        3.4310   42.9530   24.5550 C.3   1127  HEC1127     0.0000
     26  C3C        4.8630   40.8920   25.2900 C.ar  1127  HEC1127     0.0000
     27  CAC        4.7130   40.8810   26.8030 C.3   1127  HEC1127     0.0000
     28  CBC        3.4690   41.5190   27.3800 C.3   1127  HEC1127     0.0000
     29  C4C        5.6570   39.9050   24.5850 C.ar  1127  HEC1127     0.0000
     30  NC         5.6220   40.1760   23.2280 N.ar  1127  HEC1127     0.0000
     31  CHD        6.3940   38.8580   25.1430 C.2   1127  HEC1127     0.0000
     32  C1D        7.1200   37.8610   24.5040 C.2   1127  HEC1127     0.0000
     33  C2D        7.7270   36.7510   25.1600 C.2   1127  HEC1127     0.0000
     34  CMD        7.7410   36.4960   26.6220 C.3   1127  HEC1127     0.0000
     35  C3D        8.2710   35.9550   24.1200 C.2   1127  HEC1127     0.0000
     36  CAD        8.9430   34.6230   24.2730 C.3   1127  HEC1127     0.0000
     37  CBD        7.9290   33.4490   24.1770 C.3   1127  HEC1127     0.0000
     38  CGD        8.5700   32.1050   24.3970 C.2   1127  HEC1127     0.0000
     39  O1D        8.0880   31.3180   25.2350 O.co2 1127  HEC1127     0.0000
     40  O2D        9.5950   31.8240   23.6910 O.co2 1127  HEC1127     0.0000
     41  C4D        8.0210   36.6660   22.8840 C.2   1127  HEC1127     0.0000
     42  ND         7.3320   37.8310   23.1360 N.2   1127  HEC1127     0.0000
     43 FE          6.7580   39.2720   21.7750 Fe    1127  HEC1127     0.0000
@<TRIPOS>BOND
     1    10     9    1
     2    16    15    1
     3     8     6   ar
     4    19    18    1
     5     9    11   ar
     6     9     3   ar
     7     6     5    1
     8     6     7   ar
     9    13    11    2
    10    13    14    1
    11    15    14    1
    12    15    17    2
    13     5     4    1
    14     4     3    1
    15    11    12   ar
    16    14    21    2
    17     3     2   ar
    18    18    17    1
    19    17    20    1
    20    12     2   ar
    21    12    43    1
    22    21    20    1
    23    21    43    1
    24     2     1    2
    25    20    22    2
    26     1    41    1
    27    43    42    1
    28    43    30    1
    29    22    23    1
    30    41    42    2
    31    41    35    1
    32    23    30   ar
    33    23    24   ar
    34    42    32    1
    35    30    29   ar
    36    40    38   ar
    37    35    36    1
    38    35    33    2
    39    37    36    1
    40    37    38    1
    41    24    25    1
    42    24    26   ar
    43    38    39   ar
    44    32    31    2
    45    32    33    1
    46    29    31    1
    47    29    26   ar
    48    33    34    1
    49    26    27    1
    50    27    28    1
