@<TRIPOS>MOLECULE
2xld_HEC_A_1.pdb
 43 50 0 0 0
SMALL
GASTEIGER

@<TRIPOS>ATOM
      1 FE          6.8970   39.0600   21.5160 Fe    1127  HEC1127     0.0000
      2  CHA        8.5480   35.9840   21.3100 C.2   1127  HEC1127     0.0000
      3  CHB        6.8850   39.2730   18.0680 C.2   1127  HEC1127     0.0000
      4  CHC        4.6520   41.7110   21.6780 C.2   1127  HEC1127     0.0000
      5  CHD        6.6840   38.7180   24.8900 C.2   1127  HEC1127     0.0000
      6  NA         7.6270   37.8440   20.0000 N.ar  1127  HEC1127     0.0000
      7  C1A        8.2280   36.6140   20.1300 C.ar  1127  HEC1127     0.0000
      8  C2A        8.4830   36.1030   18.8130 C.ar  1127  HEC1127     0.0000
      9  C3A        8.0380   37.0180   17.9330 C.ar  1127  HEC1127     0.0000
     10  C4A        7.4410   38.1370   18.6530 C.ar  1127  HEC1127     0.0000
     11  CMA        8.0760   36.8870   16.3980 C.3   1127  HEC1127     0.0000
     12  CAA        9.1520   34.7640   18.4840 C.3   1127  HEC1127     0.0000
     13  CBA        8.1620   33.6270   18.6150 C.3   1127  HEC1127     0.0000
     14  CGA        8.7590   32.2910   18.2400 C.2   1127  HEC1127     0.0000
     15  O1A        9.4960   31.6890   19.0720 O.co2 1127  HEC1127     0.0000
     16  O2A        8.4740   31.7830   17.1550 O.co2 1127  HEC1127     0.0000
     17  NB         5.9220   40.2250   20.1450 N.2   1127  HEC1127     0.0000
     18  C1B        6.1420   40.2390   18.7690 C.2   1127  HEC1127     0.0000
     19  C2B        5.4520   41.3860   18.2020 C.2   1127  HEC1127     0.0000
     20  C3B        4.8190   42.0350   19.2240 C.2   1127  HEC1127     0.0000
     21  C4B        5.0950   41.2980   20.4410 C.2   1127  HEC1127     0.0000
     22  CMB        5.4630   41.7460   16.6950 C.3   1127  HEC1127     0.0000
     23  CAB        3.9520   43.2960   19.2200 C.3   1127  HEC1127     0.0000
     24  CBB        2.9700   43.3950   18.0430 C.3   1127  HEC1127     0.0000
     25  NC         5.8450   40.0260   22.9570 N.ar  1127  HEC1127     0.0000
     26  C1C        5.0080   41.0840   22.8460 C.ar  1127  HEC1127     0.0000
     27  C2C        4.5290   41.5300   24.1550 C.ar  1127  HEC1127     0.0000
     28  C3C        5.0880   40.6870   25.0620 C.ar  1127  HEC1127     0.0000
     29  C4C        5.9040   39.7130   24.3150 C.ar  1127  HEC1127     0.0000
     30  CMC        3.5720   42.7380   24.4020 C.3   1127  HEC1127     0.0000
     31  CAC        4.9300   40.6930   26.6180 C.3   1127  HEC1127     0.0000
     32  CBC        3.7050   41.3790   27.2230 C.3   1127  HEC1127     0.0000
     33  ND         7.5480   37.6660   22.8570 N.2   1127  HEC1127     0.0000
     34  C1D        7.3340   37.7000   24.2400 C.2   1127  HEC1127     0.0000
     35  C2D        7.9750   36.5850   24.9420 C.2   1127  HEC1127     0.0000
     36  C3D        8.5200   35.7690   23.7960 C.2   1127  HEC1127     0.0000
     37  C4D        8.2120   36.4710   22.5530 C.2   1127  HEC1127     0.0000
     38  CMD        8.0170   36.2890   26.4670 C.3   1127  HEC1127     0.0000
     39  CAD        9.2110   34.4110   23.9260 C.3   1127  HEC1127     0.0000
     40  CBD        8.0910   33.3460   24.0310 C.3   1127  HEC1127     0.0000
     41  CGD        8.6580   31.9440   24.1780 C.2   1127  HEC1127     0.0000
     42  O1D        8.1570   31.1920   25.0400 O.co2 1127  HEC1127     0.0000
     43  O2D        9.6240   31.5620   23.4730 O.co2 1127  HEC1127     0.0000
@<TRIPOS>BOND
     1    11     9    1
     2    22    19    1
     3    16    14   ar
     4     9    10   ar
     5     9     8   ar
     6    24    23    1
     7     3    10    2
     8     3    18    1
     9    19    18    1
    10    19    20    2
    11    14    13    1
    12    14    15   ar
    13    12    13    1
    14    12     8    1
    15    10     6   ar
    16    18    17    2
    17     8     7   ar
    18    23    20    1
    19    20    21    1
    20     6     7   ar
    21     6     1    1
    22     7     2    2
    23    17    21    1
    24    17     1    1
    25    21     4    2
    26     2    37    1
    27     1    33    1
    28     1    25    1
    29     4    26    1
    30    37    33    2
    31    37    36    1
    32    26    25   ar
    33    26    27   ar
    34    33    34    1
    35    25    29   ar
    36    43    41   ar
    37    36    39    1
    38    36    35    2
    39    39    40    1
    40    40    41    1
    41    27    30    1
    42    27    28   ar
    43    41    42   ar
    44    34     5    2
    45    34    35    1
    46    29     5    1
    47    29    28   ar
    48    35    38    1
    49    28    31    1
    50    31    32    1
