@<TRIPOS>MOLECULE
2xle_HEC_A_1.pdb
 43 50 0 0 0
SMALL
GASTEIGER

@<TRIPOS>ATOM
      1 FE          6.7120   39.6060   21.7930 Fe    1128  HEC1128     0.0000
      2  CHA        8.2560   36.5490   21.6410 C.2   1128  HEC1128     0.0000
      3  CHB        6.9340   39.9110   18.4290 C.2   1128  HEC1128     0.0000
      4  CHC        4.5140   42.2690   21.8700 C.2   1128  HEC1128     0.0000
      5  CHD        6.4190   39.2690   25.1460 C.2   1128  HEC1128     0.0000
      6  NA         7.4480   38.4330   20.3050 N.ar  1128  HEC1128     0.0000
      7  C1A        8.0330   37.1890   20.4350 C.ar  1128  HEC1128     0.0000
      8  C2A        8.3750   36.7010   19.1330 C.ar  1128  HEC1128     0.0000
      9  C3A        7.9930   37.6350   18.2230 C.ar  1128  HEC1128     0.0000
     10  C4A        7.4030   38.7320   18.9610 C.ar  1128  HEC1128     0.0000
     11  CMA        8.1300   37.5910   16.6940 C.3   1128  HEC1128     0.0000
     12  CAA        9.0180   35.3530   18.8340 C.3   1128  HEC1128     0.0000
     13  CBA        7.9930   34.2440   18.7540 C.3   1128  HEC1128     0.0000
     14  CGA        8.5960   32.9090   18.3690 C.2   1128  HEC1128     0.0000
     15  O1A        9.2960   32.2660   19.1830 O.co2 1128  HEC1128     0.0000
     16  O2A        8.3680   32.4730   17.2230 O.co2 1128  HEC1128     0.0000
     17  NB         5.8970   40.8410   20.4290 N.2   1128  HEC1128     0.0000
     18  C1B        6.1810   40.8660   19.0640 C.2   1128  HEC1128     0.0000
     19  C2B        5.5090   41.9950   18.4610 C.2   1128  HEC1128     0.0000
     20  C3B        4.7960   42.6230   19.4090 C.2   1128  HEC1128     0.0000
     21  C4B        5.0260   41.9030   20.6200 C.2   1128  HEC1128     0.0000
     22  CMB        5.6770   42.3860   16.9730 C.3   1128  HEC1128     0.0000
     23  CAB        3.8810   43.8520   19.3290 C.3   1128  HEC1128     0.0000
     24  CBB        2.9470   43.8200   18.0550 C.3   1128  HEC1128     0.0000
     25  NC         5.6580   40.5710   23.2270 N.ar  1128  HEC1128     0.0000
     26  C1C        4.8010   41.6570   23.0800 C.ar  1128  HEC1128     0.0000
     27  C2C        4.3020   42.0670   24.3720 C.ar  1128  HEC1128     0.0000
     28  C3C        4.8480   41.2400   25.2880 C.ar  1128  HEC1128     0.0000
     29  C4C        5.6930   40.2940   24.5940 C.ar  1128  HEC1128     0.0000
     30  CMC        3.3660   43.2270   24.5460 C.3   1128  HEC1128     0.0000
     31  CAC        4.6510   41.1990   26.8230 C.3   1128  HEC1128     0.0000
     32  CBC        3.3840   41.8590   27.3550 C.3   1128  HEC1128     0.0000
     33  ND         7.2700   38.1780   23.1330 N.2   1128  HEC1128     0.0000
     34  C1D        7.0690   38.2720   24.5080 C.2   1128  HEC1128     0.0000
     35  C2D        7.6580   37.1530   25.1460 C.2   1128  HEC1128     0.0000
     36  C3D        8.1900   36.2890   24.1430 C.2   1128  HEC1128     0.0000
     37  C4D        7.9220   36.9760   22.9070 C.2   1128  HEC1128     0.0000
     38  CMD        7.7070   36.8900   26.6480 C.3   1128  HEC1128     0.0000
     39  CAD        8.8550   34.9620   24.2780 C.3   1128  HEC1128     0.0000
     40  CBD        7.8390   33.8110   24.2370 C.3   1128  HEC1128     0.0000
     41  CGD        8.4260   32.4350   24.4360 C.2   1128  HEC1128     0.0000
     42  O1D        7.9410   31.6520   25.2970 O.co2 1128  HEC1128     0.0000
     43  O2D        9.4210   32.1350   23.7130 O.co2 1128  HEC1128     0.0000
@<TRIPOS>BOND
     1    11     9    1
     2    22    19    1
     3    16    14   ar
     4    24    23    1
     5     9    10   ar
     6     9     8   ar
     7    14    13    1
     8    14    15   ar
     9     3    10    2
    10     3    18    1
    11    19    18    1
    12    19    20    2
    13    13    12    1
    14    12     8    1
    15    10     6   ar
    16    18    17    2
    17     8     7   ar
    18    23    20    1
    19    20    21    1
    20     6     7   ar
    21     6     1    1
    22    17    21    1
    23    17     1    1
    24     7     2    2
    25    21     4    2
    26     2    37    1
    27     1    33    1
    28     1    25    1
    29     4    26    1
    30    37    33    2
    31    37    36    1
    32    26    25   ar
    33    26    27   ar
    34    33    34    1
    35    25    29   ar
    36    43    41   ar
    37    36    39    1
    38    36    35    2
    39    40    39    1
    40    40    41    1
    41    27    30    1
    42    27    28   ar
    43    41    42   ar
    44    34    35    1
    45    34     5    2
    46    29     5    1
    47    29    28   ar
    48    35    38    1
    49    28    31    1
    50    31    32    1
