@<TRIPOS>MOLECULE
2xlh_HEC_A_1.pdb
 43 50 0 0 0
SMALL
GASTEIGER

@<TRIPOS>ATOM
      1 FE        -23.0220   25.4490    8.4100 Fe    128  HEC128      0.0000
      2  CHA      -26.4310   25.3530    8.5370 C.2   128  HEC128      0.0000
      3  CHB      -22.8890   25.5830   11.8000 C.2   128  HEC128      0.0000
      4  CHC      -19.6520   24.8700    8.3200 C.2   128  HEC128      0.0000
      5  CHD      -23.1670   24.9720    5.0210 C.2   128  HEC128      0.0000
      6  NA       -24.4310   25.4410    9.9090 N.2   128  HEC128      0.0000
      7  C1A      -25.7870   25.3770    9.7500 C.2   128  HEC128      0.0000
      8  C2A      -26.4130   25.4280   11.0650 C.2   128  HEC128      0.0000
      9  C3A      -25.4130   25.5170   11.9760 C.2   128  HEC128      0.0000
     10  C4A      -24.1660   25.5050   11.2430 C.2   128  HEC128      0.0000
     11  CMA      -25.4800   25.5410   13.4940 C.3   128  HEC128      0.0000
     12  CAA      -27.8970   25.3830   11.3610 C.3   128  HEC128      0.0000
     13  CBA      -28.3850   23.9550   11.4080 C.3   128  HEC128      0.0000
     14  CGA      -29.8450   23.8670   11.8140 C.2   128  HEC128      0.0000
     15  O1A      -30.7440   24.1650   10.9920 O.co2 128  HEC128      0.0000
     16  O2A      -30.1180   23.5080   12.9800 O.co2 128  HEC128      0.0000
     17  NB       -21.5410   25.2400    9.8400 N.ar  128  HEC128      0.0000
     18  C1B      -21.6720   25.4740   11.1550 C.ar  128  HEC128      0.0000
     19  C2B      -20.3690   25.4950   11.7800 C.ar  128  HEC128      0.0000
     20  C3B      -19.4760   25.2690   10.8160 C.ar  128  HEC128      0.0000
     21  C4B      -20.1910   25.1110    9.5770 C.ar  128  HEC128      0.0000
     22  CMB      -20.1210   25.7990   13.2770 C.3   128  HEC128      0.0000
     23  CAB      -17.9520   25.2340   10.8800 C.3   128  HEC128      0.0000
     24  CBB      -17.4100   24.4660   12.1020 C.3   128  HEC128      0.0000
     25  NC       -21.6640   24.9510    6.9360 N.2   128  HEC128      0.0000
     26  C1C      -20.3070   24.8220    7.1040 C.2   128  HEC128      0.0000
     27  C2C      -19.6650   24.6540    5.8000 C.2   128  HEC128      0.0000
     28  C3C      -20.6440   24.6630    4.8760 C.2   128  HEC128      0.0000
     29  C4C      -21.9000   24.8600    5.5810 C.2   128  HEC128      0.0000
     30  CMC      -18.1530   24.4720    5.6210 C.3   128  HEC128      0.0000
     31  CAC      -20.5910   24.5430    3.3650 C.3   128  HEC128      0.0000
     32  CBC      -19.3710   23.8330    2.7870 C.3   128  HEC128      0.0000
     33  ND       -24.5590   25.2390    7.0410 N.ar  128  HEC128      0.0000
     34  C1D      -24.3890   25.1010    5.6560 C.ar  128  HEC128      0.0000
     35  C2D      -25.6660   25.0840    4.9940 C.ar  128  HEC128      0.0000
     36  C3D      -26.6290   25.1750    6.0240 C.ar  128  HEC128      0.0000
     37  C4D      -25.9140   25.3010    7.2630 C.ar  128  HEC128      0.0000
     38  CMD      -25.8800   24.9970    3.5270 C.3   128  HEC128      0.0000
     39  CAD      -28.1330   25.1140    5.8560 C.3   128  HEC128      0.0000
     40  CBD      -28.6390   23.6550    5.9970 C.3   128  HEC128      0.0000
     41  CGD      -30.1230   23.5070    5.7730 C.2   128  HEC128      0.0000
     42  O1D      -30.5340   22.7100    4.8990 O.co2 128  HEC128      0.0000
     43  O2D      -30.8860   24.2530    6.4670 O.co2 128  HEC128      0.0000
@<TRIPOS>BOND
     1    32    31    1
     2    31    28    1
     3    38    35    1
     4    28    29    1
     5    28    27    2
     6    42    41   ar
     7    35    34   ar
     8    35    36   ar
     9     5    29    1
    10     5    34    2
    11    29    25    2
    12    30    27    1
    13    34    33   ar
    14    41    40    1
    15    41    43   ar
    16    27    26    1
    17    39    40    1
    18    39    36    1
    19    36    37   ar
    20    25    26    1
    21    25     1    1
    22    33    37   ar
    23    33     1    1
    24    26     4    2
    25    37     2    2
    26     4    21    1
    27     1    17    1
    28     1     6    1
    29     2     7    1
    30    21    17   ar
    31    21    20   ar
    32     7     6    2
    33     7     8    1
    34    17    18   ar
    35     6    10    1
    36    20    23    1
    37    20    19   ar
    38    23    24    1
    39    15    14   ar
    40     8    12    1
    41     8     9    2
    42    18    19   ar
    43    18     3    1
    44    10     3    2
    45    10     9    1
    46    12    13    1
    47    13    14    1
    48    19    22    1
    49    14    16   ar
    50     9    11    1
