@<TRIPOS>MOLECULE
2xlm_HEC_A_1.pdb
 43 50 0 0 0
SMALL
GASTEIGER

@<TRIPOS>ATOM
      1 FE          6.7260   39.3900   21.7270 Fe    128  HEC128      0.0000
      2  CHA        8.2370   36.3230   21.5420 C.2   128  HEC128      0.0000
      3  CHB        6.9190   39.6760   18.3800 C.2   128  HEC128      0.0000
      4  CHC        4.5260   42.0280   21.7940 C.2   128  HEC128      0.0000
      5  CHD        6.3940   39.0660   25.0560 C.2   128  HEC128      0.0000
      6  NA         7.4180   38.2160   20.2610 N.ar  128  HEC128      0.0000
      7  C1A        7.9960   36.9900   20.3820 C.ar  128  HEC128      0.0000
      8  C2A        8.3390   36.5060   19.0730 C.ar  128  HEC128      0.0000
      9  C3A        7.9620   37.4330   18.1820 C.ar  128  HEC128      0.0000
     10  C4A        7.3870   38.5330   18.9270 C.ar  128  HEC128      0.0000
     11  CMA        8.1000   37.3970   16.6570 C.3   128  HEC128      0.0000
     12  CAA        8.9780   35.1410   18.7810 C.3   128  HEC128      0.0000
     13  CBA        7.9550   34.0130   18.7710 C.3   128  HEC128      0.0000
     14  CGA        8.5490   32.6990   18.3390 C.2   128  HEC128      0.0000
     15  O1A        9.3570   32.0950   19.0880 O.co2 128  HEC128      0.0000
     16  O2A        8.2260   32.2420   17.2280 O.co2 128  HEC128      0.0000
     17  NB         5.9070   40.6220   20.3460 N.2   128  HEC128      0.0000
     18  C1B        6.2140   40.6510   19.0100 C.2   128  HEC128      0.0000
     19  C2B        5.5710   41.7650   18.3980 C.2   128  HEC128      0.0000
     20  C3B        4.8670   42.3940   19.3370 C.2   128  HEC128      0.0000
     21  C4B        5.0570   41.6780   20.5740 C.2   128  HEC128      0.0000
     22  CMB        5.7390   42.1760   16.9190 C.3   128  HEC128      0.0000
     23  CAB        3.9440   43.5830   19.2320 C.3   128  HEC128      0.0000
     24  CBB        2.9880   43.5850   17.9810 C.3   128  HEC128      0.0000
     25  NC         5.6620   40.3280   23.1440 N.ar  128  HEC128      0.0000
     26  C1C        4.7920   41.4150   22.9970 C.ar  128  HEC128      0.0000
     27  C2C        4.2910   41.8480   24.2730 C.ar  128  HEC128      0.0000
     28  C3C        4.8320   41.0200   25.1930 C.ar  128  HEC128      0.0000
     29  C4C        5.6660   40.0820   24.5070 C.ar  128  HEC128      0.0000
     30  CMC        3.3700   43.0070   24.4680 C.3   128  HEC128      0.0000
     31  CAC        4.6480   40.9920   26.7300 C.3   128  HEC128      0.0000
     32  CBC        3.3800   41.6100   27.3090 C.3   128  HEC128      0.0000
     33  ND         7.2360   37.9670   23.0390 N.2   128  HEC128      0.0000
     34  C1D        7.0440   38.0470   24.3980 C.2   128  HEC128      0.0000
     35  C2D        7.6370   36.9290   25.0570 C.2   128  HEC128      0.0000
     36  C3D        8.1800   36.1000   24.0480 C.2   128  HEC128      0.0000
     37  C4D        7.9110   36.7630   22.7940 C.2   128  HEC128      0.0000
     38  CMD        7.6980   36.6470   26.5370 C.3   128  HEC128      0.0000
     39  CAD        8.8230   34.7530   24.2110 C.3   128  HEC128      0.0000
     40  CBD        7.7870   33.6270   24.1540 C.3   128  HEC128      0.0000
     41  CGD        8.3740   32.2380   24.3020 C.2   128  HEC128      0.0000
     42  O1D        7.9460   31.4930   25.2180 O.co2 128  HEC128      0.0000
     43  O2D        9.3550   31.9230   23.5540 O.co2 128  HEC128      0.0000
@<TRIPOS>BOND
     1    11     9    1
     2    22    19    1
     3    16    14   ar
     4    24    23    1
     5     9    10   ar
     6     9     8   ar
     7    14    13    1
     8    14    15   ar
     9     3    10    2
    10     3    18    1
    11    19    18    1
    12    19    20    2
    13    13    12    1
    14    12     8    1
    15    10     6   ar
    16    18    17    2
    17     8     7   ar
    18    23    20    1
    19    20    21    1
    20     6     7   ar
    21     6     1    1
    22    17    21    1
    23    17     1    1
    24     7     2    2
    25    21     4    2
    26     2    37    1
    27     1    33    1
    28     1    25    1
    29     4    26    1
    30    37    33    2
    31    37    36    1
    32    26    25   ar
    33    26    27   ar
    34    33    34    1
    35    25    29   ar
    36    43    41   ar
    37    36    39    1
    38    36    35    2
    39    40    39    1
    40    40    41    1
    41    27    30    1
    42    27    28   ar
    43    41    42   ar
    44    34     5    2
    45    34    35    1
    46    29     5    1
    47    29    28   ar
    48    35    38    1
    49    28    31    1
    50    31    32    1
