@<TRIPOS>MOLECULE
2xln_EWA_A_1.pdb
 18 18 0 0 0
SMALL
GASTEIGER

@<TRIPOS>ATOM
      1  O6        -0.2770    0.9160   38.1110 O.2   500  EWA500      0.0000
      2  C5        -1.0330    0.7510   37.1540 C.2   500  EWA500      0.0000
      3  N4        -0.9450   -0.1690   36.1860 N.am  500  EWA500      0.0000
      4  C3        -0.0580   -1.2860   36.0150 C.3   500  EWA500      0.0000
      5  B         -0.8610   -2.5970   36.3950 B     500  EWA500      0.0000
      6  O2        -1.5250   -2.4240   37.7640 O.3   500  EWA500      0.0000
      7  O1        -1.9800   -2.8560   35.3850 O.3   500  EWA500      0.0000
      8  C16        0.2960   -1.2940   34.5360 C.3   500  EWA500      0.0000
      9  C7        -2.5190    0.8100   37.3220 C.ar  500  EWA500      0.0000
     10  C14       -3.1610    1.5970   36.3740 C.ar  500  EWA500      0.0000
     11  O15       -2.3830    2.1660   35.2710 O.3   500  EWA500      0.0000
     12  C15       -2.8530    2.2810   33.9220 C.3   500  EWA500      0.0000
     13  C13       -4.5470    1.7070   36.4800 C.ar  500  EWA500      0.0000
     14  C12       -5.2220    1.1190   37.5600 C.ar  500  EWA500      0.0000
     15  C11       -4.5310    0.3960   38.5350 C.ar  500  EWA500      0.0000
     16  C8        -3.1400    0.2750   38.4610 C.ar  500  EWA500      0.0000
     17  O9        -2.4000   -0.5100   39.4490 O.3   500  EWA500      0.0000
     18  C10       -2.8700   -0.7080   40.7850 C.3   500  EWA500      0.0000
@<TRIPOS>BOND
     1    12    11    1
     2     8     4    1
     3    11    10    1
     4     7     5    1
     5     4     3    1
     6     4     5    1
     7     3     2   am
     8    10    13   ar
     9    10     9   ar
    10     5     6    1
    11    13    14   ar
    12     2     9    1
    13     2     1    2
    14     9    16   ar
    15    14    15   ar
    16    16    15   ar
    17    16    17    1
    18    17    18    1
