@<TRIPOS>MOLECULE
2xlo_HEC_A_1.pdb
 43 50 0 0 0
SMALL
GASTEIGER

@<TRIPOS>ATOM
      1 FE          6.6660   39.6130   21.7950 Fe    1127  HEC1127     0.0000
      2  CHA        8.2540   36.5840   21.6440 C.2   1127  HEC1127     0.0000
      3  CHB        6.7820   39.8890   18.4010 C.2   1127  HEC1127     0.0000
      4  CHC        4.4830   42.2410   21.8990 C.2   1127  HEC1127     0.0000
      5  CHD        6.3720   39.2680   25.1680 C.2   1127  HEC1127     0.0000
      6  NA         7.3490   38.4520   20.3370 N.ar  1127  HEC1127     0.0000
      7  C1A        7.9850   37.2130   20.4570 C.ar  1127  HEC1127     0.0000
      8  C2A        8.3110   36.7550   19.1400 C.ar  1127  HEC1127     0.0000
      9  C3A        7.8950   37.6490   18.2460 C.ar  1127  HEC1127     0.0000
     10  C4A        7.2990   38.7520   18.9850 C.ar  1127  HEC1127     0.0000
     11  CMA        7.9790   37.5740   16.7340 C.3   1127  HEC1127     0.0000
     12  CAA        8.9750   35.4120   18.8390 C.3   1127  HEC1127     0.0000
     13  CBA        7.9840   34.2550   18.7980 C.3   1127  HEC1127     0.0000
     14  CGA        8.5860   32.9140   18.4090 C.2   1127  HEC1127     0.0000
     15  O1A        9.3160   32.2740   19.2030 O.co2 1127  HEC1127     0.0000
     16  O2A        8.2240   32.4600   17.3270 O.co2 1127  HEC1127     0.0000
     17  NB         5.7860   40.8150   20.4010 N.2   1127  HEC1127     0.0000
     18  C1B        6.0670   40.8570   19.0640 C.2   1127  HEC1127     0.0000
     19  C2B        5.4010   41.9860   18.4810 C.2   1127  HEC1127     0.0000
     20  C3B        4.7550   42.6250   19.4470 C.2   1127  HEC1127     0.0000
     21  C4B        4.9880   41.9070   20.6730 C.2   1127  HEC1127     0.0000
     22  CMB        5.5730   42.3650   17.0100 C.3   1127  HEC1127     0.0000
     23  CAB        3.8620   43.8650   19.3480 C.3   1127  HEC1127     0.0000
     24  CBB        2.9490   43.8440   18.1060 C.3   1127  HEC1127     0.0000
     25  NC         5.5830   40.5180   23.2370 N.ar  1127  HEC1127     0.0000
     26  C1C        4.7540   41.6360   23.0990 C.ar  1127  HEC1127     0.0000
     27  C2C        4.2940   42.0810   24.3860 C.ar  1127  HEC1127     0.0000
     28  C3C        4.8210   41.2570   25.3190 C.ar  1127  HEC1127     0.0000
     29  C4C        5.6420   40.2980   24.6100 C.ar  1127  HEC1127     0.0000
     30  CMC        3.3760   43.2720   24.5560 C.3   1127  HEC1127     0.0000
     31  CAC        4.7250   41.2590   26.8400 C.3   1127  HEC1127     0.0000
     32  CBC        3.4650   41.8210   27.4670 C.3   1127  HEC1127     0.0000
     33  ND         7.2130   38.1740   23.1300 N.2   1127  HEC1127     0.0000
     34  C1D        7.0390   38.2590   24.5130 C.2   1127  HEC1127     0.0000
     35  C2D        7.6560   37.1130   25.1670 C.2   1127  HEC1127     0.0000
     36  C3D        8.1830   36.3510   24.1080 C.2   1127  HEC1127     0.0000
     37  C4D        7.9310   37.0290   22.8820 C.2   1127  HEC1127     0.0000
     38  CMD        7.6940   36.8750   26.6370 C.3   1127  HEC1127     0.0000
     39  CAD        8.8290   34.9880   24.2770 C.3   1127  HEC1127     0.0000
     40  CBD        7.8330   33.8460   24.2190 C.3   1127  HEC1127     0.0000
     41  CGD        8.4420   32.4720   24.4060 C.2   1127  HEC1127     0.0000
     42  O1D        7.9630   31.7250   25.2990 O.co2 1127  HEC1127     0.0000
     43  O2D        9.4260   32.1440   23.6780 O.co2 1127  HEC1127     0.0000
@<TRIPOS>BOND
     1    11     9    1
     2    22    19    1
     3    16    14   ar
     4    24    23    1
     5     9    10   ar
     6     9     8   ar
     7     3    10    2
     8     3    18    1
     9    14    13    1
    10    14    15   ar
    11    19    18    1
    12    19    20    2
    13    13    12    1
    14    12     8    1
    15    10     6   ar
    16    18    17    2
    17     8     7   ar
    18    23    20    1
    19    20    21    1
    20     6     7   ar
    21     6     1    1
    22    17    21    1
    23    17     1    1
    24     7     2    2
    25    21     4    2
    26     2    37    1
    27     1    33    1
    28     1    25    1
    29     4    26    1
    30    37    33    2
    31    37    36    1
    32    26    25   ar
    33    26    27   ar
    34    33    34    1
    35    25    29   ar
    36    43    41   ar
    37    36    39    1
    38    36    35    2
    39    40    39    1
    40    40    41    1
    41    27    30    1
    42    27    28   ar
    43    41    42   ar
    44    34    35    1
    45    34     5    2
    46    29     5    1
    47    29    28   ar
    48    35    38    1
    49    28    31    1
    50    31    32    1
