@<TRIPOS>MOLECULE
2xlp_NAP_A_1.pdb
 48 52 0 0 0
SMALL
GASTEIGER

@<TRIPOS>ATOM
      1  PA       -15.8510  181.9820  -24.7470 P.3   501  NAP501      0.2189
      2  O1A      -15.5710  183.1460  -25.6590 O.2   501  NAP501     -0.5170
      3  O2A      -17.2910  181.2730  -24.9710 O.3   501  NAP501     -0.4371
      4  O5B      -14.9120  180.7460  -25.0210 O.3   501  NAP501     -0.3112
      5  C5B      -15.2860  179.5880  -24.2970 C.3   501  NAP501      0.1813
      6  C4B      -13.9540  178.8190  -24.4910 C.3   501  NAP501      0.1820
      7  O4B      -13.7470  177.7810  -23.5020 O.3   501  NAP501     -0.3136
      8  C3B      -13.8330  178.1720  -25.8980 C.3   501  NAP501      0.2157
      9  O3B      -12.4710  178.2340  -26.3790 O.3   501  NAP501     -0.2175
     10  C2B      -14.2570  176.7150  -25.5600 C.3   501  NAP501      0.2314
     11  O2B      -13.6680  175.6370  -26.2770 O.3   501  NAP501     -0.2630
     12  C1B      -13.5180  176.5410  -24.2280 C.3   501  NAP501      0.3158
     13  N9A      -14.1030  175.3520  -23.5830 N.pl3 501  NAP501     -0.1439
     14  C8A      -15.4210  175.1520  -23.1900 C.3   501  NAP501      0.3377
     15  N7A      -15.5660  173.9650  -22.6410 N.2   501  NAP501     -0.2095
     16  C5A      -14.3400  173.3500  -22.6410 C.2   501  NAP501      0.2526
     17  C6A      -13.8830  172.0910  -22.1910 C.2   501  NAP501      0.4393
     18  N6A      -14.7950  171.2440  -21.5930 N.pl3 501  NAP501      0.2180
     19  N1A      -12.5830  171.7630  -22.3490 N.2   501  NAP501      0.0021
     20  C2A      -11.7270  172.6350  -22.9410 C.3   501  NAP501      0.5254
     21  N3A      -12.1130  173.8430  -23.3960 N.2   501  NAP501     -0.0055
     22  C4A      -13.3890  174.2230  -23.2560 C.2   501  NAP501      0.3518
     23  O3       -15.5650  182.5360  -23.2150 O.3   501  NAP501     -0.2703
     24  PN       -14.4090  183.6910  -22.8680 P.3   501  NAP501      0.2189
     25  O1N      -13.1360  183.5230  -23.7390 O.2   501  NAP501     -0.5170
     26  O2N      -14.0830  183.3990  -21.3350 O.3   501  NAP501     -0.4371
     27  O5D      -14.9650  185.2320  -22.8660 O.3   501  NAP501     -0.3112
     28  C5D      -15.7430  185.5690  -24.0410 C.3   501  NAP501      0.1813
     29  C4D      -16.1870  187.0660  -24.0480 C.3   501  NAP501      0.1799
     30  O4D      -15.7300  187.7620  -22.8460 O.3   501  NAP501     -0.3327
     31  C3D      -15.6180  187.8130  -25.3070 C.3   501  NAP501      0.2158
     32  O3D      -16.6430  188.0590  -26.2960 O.3   501  NAP501     -0.2175
     33  C2D      -15.1050  189.1770  -24.7600 C.3   501  NAP501      0.2309
     34  O2D      -16.0540  190.2470  -24.9570 O.3   501  NAP501     -0.2158
     35  C1D      -14.9880  188.9730  -23.2060 C.3   501  NAP501      0.2263
     36  N1N      -13.5620  188.9950  -22.6850 N.pl3 501  NAP501     -0.2787
     37  C2N      -12.6770  190.0160  -22.9990 C.3   501  NAP501      0.1244
     38  C3N      -11.3240  190.0490  -22.4710 C.2   501  NAP501      0.0544
     39  C7N      -10.3350  191.1460  -22.7820 C.2   501  NAP501      0.2818
     40  O7N       -9.4120  190.8600  -23.5360 O.2   501  NAP501     -0.2670
     41  N7N      -10.3880  192.4420  -22.2760 N.am  501  NAP501     -0.0839
     42  C4N      -10.9100  188.9850  -21.6080 C.2   501  NAP501      0.0033
     43  C5N      -11.8330  187.9610  -21.3050 C.2   501  NAP501      0.0157
     44  C6N      -13.1420  187.9970  -21.8480 C.2   501  NAP501      0.0633
     45  P2B      -14.2310  175.4770  -27.7880 P.3   501  NAP501      0.5328
     46  O1X      -15.8280  175.8180  -28.0010 O.3   501  NAP501     -0.1145
     47  O2X      -13.8220  174.0700  -28.2660 O.3   501  NAP501     -0.1145
     48  O3X      -13.4660  176.6840  -28.6160 O.2   501  NAP501     -0.2224
@<TRIPOS>BOND
     1    48    45    2
     2    47    45    1
     3    46    45    1
     4    45    11    1
     5     9     8    1
     6    32    31    1
     7    11    10    1
     8     8    10    1
     9     8     6    1
    10     2     1    2
    11    10    12    1
    12    31    33    1
    13    31    29    1
    14     4     1    1
    15     4     5    1
    16     3     1    1
    17    34    33    1
    18    33    35    1
    19     1    23    1
    20     6     5    1
    21     6     7    1
    22    12    13    1
    23    12     7    1
    24    29    28    1
    25    29    30    1
    26    28    27    1
    27    25    24    2
    28    13    22    1
    29    13    14    1
    30    40    39    2
    31    21    22    2
    32    21    20    1
    33    22    16    1
    34    23    24    1
    35    35    30    1
    36    35    36    1
    37    14    15    1
    38    37    36    1
    39    37    38    1
    40    20    19    1
    41    24    27    1
    42    24    26    1
    43    39    38    1
    44    39    41   am
    45    36    44    1
    46    16    15    2
    47    16    17    1
    48    38    42    2
    49    19    17    2
    50    17    18    1
    51    44    43    2
    52    42    43    1
