@<TRIPOS>MOLECULE
2xlq_34H_A_1.pdb
 13 13 0 0 0
SMALL
GASTEIGER

@<TRIPOS>ATOM
      1  C9        98.0740    0.5600   16.5520 C.ar  1317  34H1317    -0.0009
      2  C8        96.9400   -0.2410   16.4000 C.ar  1317  34H1317     0.0417
      3  C7        96.6560   -0.7190   15.1230 C.ar  1317  34H1317     0.1957
      4  O3        95.5700   -1.5000   14.8820 O.3   1317  34H1317    -0.2866
      5  C6        97.4950   -0.3950   14.0370 C.ar  1317  34H1317     0.0417
      6  C5        98.6240    0.4030   14.1860 C.ar  1317  34H1317    -0.0009
      7  C4        98.9140    0.8670   15.4530 C.ar  1317  34H1317    -0.0188
      8  C3       100.1220    1.7580   15.6250 C.3   1317  34H1317     0.0710
      9  C2       101.4840    1.0800   15.8210 C.3   1317  34H1317     0.2583
     10  C1       102.0960    0.5520   14.5180 C.2   1317  34H1317     0.3950
     11  O2       102.4480   -0.6190   14.5910 O.co2 1317  34H1317    -0.2428
     12  O1       102.2940    1.3440   13.5510 O.co2 1317  34H1317    -0.2428
     13  O4       101.4690    0.0420   16.7920 O.3   1317  34H1317    -0.2105
@<TRIPOS>BOND
     1    12    10   ar
     2     5     6   ar
     3     5     3   ar
     4     6     7   ar
     5    10    11   ar
     6    10     9    1
     7     4     3    1
     8     3     2   ar
     9     7     8    1
    10     7     1   ar
    11     8     9    1
    12     9    13    1
    13     2     1   ar
