@<TRIPOS>MOLECULE
2xlr_NAP_A_1.pdb
 48 52 0 0 0
SMALL
GASTEIGER

@<TRIPOS>ATOM
      1  PA        43.8250  -82.0680   16.5260 P.3   501  NAP501      0.2189
      2  O1A       43.2530  -82.8630   17.6480 O.3   501  NAP501     -0.4371
      3  O2A       43.8300  -80.4980   16.9550 O.2   501  NAP501     -0.5170
      4  O5B       45.3040  -82.5720   16.1480 O.3   501  NAP501     -0.3112
      5  C5B       46.3070  -81.5870   16.2770 C.3   501  NAP501      0.1813
      6  C4B       47.4360  -82.6330   16.3720 C.3   501  NAP501      0.1820
      7  O4B       48.4910  -82.4450   15.3770 O.3   501  NAP501     -0.3136
      8  C3B       48.0790  -82.6440   17.7990 C.3   501  NAP501      0.2157
      9  O3B       48.5620  -84.0070   18.0320 O.3   501  NAP501     -0.2175
     10  C2B       49.2260  -81.6300   17.5700 C.3   501  NAP501      0.2314
     11  O2B       50.4340  -81.7750   18.3300 O.3   501  NAP501     -0.2630
     12  C1B       49.6660  -82.2050   16.1830 C.3   501  NAP501      0.3158
     13  N9A       50.5520  -81.2000   15.6280 N.pl3 501  NAP501     -0.1439
     14  C8A       50.2520  -79.8780   15.2830 C.3   501  NAP501      0.3377
     15  N7A       51.3660  -79.3070   14.7910 N.2   501  NAP501     -0.2095
     16  C5A       52.4270  -80.2210   14.8360 C.2   501  NAP501      0.2526
     17  C6A       53.8110  -80.1930   14.5010 C.2   501  NAP501      0.4393
     18  N6A       54.4020  -79.0510   13.9840 N.pl3 501  NAP501      0.2180
     19  N1A       54.5280  -81.3360   14.6950 N.2   501  NAP501      0.0021
     20  C2A       53.9960  -82.4790   15.1990 C.3   501  NAP501      0.5254
     21  N3A       52.7070  -82.5390   15.5300 N.2   501  NAP501     -0.0055
     22  C4A       51.9070  -81.4530   15.3750 C.2   501  NAP501      0.3518
     23  O3        42.9510  -82.5730   15.2770 O.3   501  NAP501     -0.2703
     24  PN        43.1100  -84.1350   14.7290 P.3   501  NAP501      0.2189
     25  O1N       44.0110  -85.2440   15.3610 O.3   501  NAP501     -0.4371
     26  O2N       43.4890  -84.0030   13.2140 O.2   501  NAP501     -0.5170
     27  O5D       41.6250  -84.6670   14.3810 O.3   501  NAP501     -0.3112
     28  C5D       40.5920  -83.6940   14.5560 C.3   501  NAP501      0.1813
     29  C4D       39.5610  -84.5860   15.2430 C.3   501  NAP501      0.1799
     30  O4D       39.3270  -84.1100   16.5930 O.3   501  NAP501     -0.3327
     31  C3D       38.1750  -84.6500   14.5400 C.3   501  NAP501      0.2158
     32  O3D       38.1010  -85.9370   13.9630 O.3   501  NAP501     -0.2175
     33  C2D       37.1780  -84.6720   15.7310 C.3   501  NAP501      0.2309
     34  O2D       36.2970  -85.7930   15.7400 O.3   501  NAP501     -0.2158
     35  C1D       38.1980  -85.0020   16.8290 C.3   501  NAP501      0.2263
     36  N1N       37.6840  -84.8880   18.2100 N.pl3 501  NAP501     -0.2787
     37  C2N       36.9010  -85.9130   18.6870 C.3   501  NAP501      0.1244
     38  C3N       36.4350  -85.8690   20.0280 C.2   501  NAP501      0.0544
     39  C7N       35.5540  -86.9390   20.5620 C.2   501  NAP501      0.2818
     40  O7N       35.4550  -86.9640   21.7730 O.2   501  NAP501     -0.2670
     41  N7N       34.8320  -87.8390   19.7910 N.am  501  NAP501     -0.0839
     42  C4N       36.8110  -84.7630   20.8590 C.2   501  NAP501      0.0033
     43  C5N       37.6390  -83.7340   20.3370 C.2   501  NAP501      0.0157
     44  C6N       38.0670  -83.8250   18.9870 C.2   501  NAP501      0.0633
     45  P2B       50.3400  -81.0810   19.7920 P.3   501  NAP501      0.5328
     46  O1X       49.8210  -79.5520   19.7200 O.2   501  NAP501     -0.2224
     47  O2X       51.6620  -81.1860   20.5630 O.3   501  NAP501     -0.1145
     48  O3X       49.1970  -81.9070   20.6480 O.3   501  NAP501     -0.1145
@<TRIPOS>BOND
     1    26    24    2
     2    32    31    1
     3    18    17    1
     4    27    28    1
     5    27    24    1
     6    17    19    2
     7    17    16    1
     8    31    29    1
     9    31    33    1
    10    28    29    1
    11    19    20    1
    12    24    23    1
    13    24    25    1
    14    15    16    2
    15    15    14    1
    16    16    22    1
    17    20    21    1
    18    29    30    1
    19    23     1    1
    20    14    13    1
    21    22    21    2
    22    22    13    1
    23     7    12    1
    24     7     6    1
    25    13    12    1
    26    33    34    1
    27    33    35    1
    28     4     5    1
    29     4     1    1
    30    12    10    1
    31     5     6    1
    32     6     8    1
    33     1     3    2
    34     1     2    1
    35    30    35    1
    36    35    36    1
    37    10     8    1
    38    10    11    1
    39     8     9    1
    40    36    37    1
    41    36    44    1
    42    11    45    1
    43    37    38    1
    44    44    43    2
    45    46    45    2
    46    41    39   am
    47    45    47    1
    48    45    48    1
    49    38    39    1
    50    38    42    2
    51    43    42    1
    52    39    40    2
