@<TRIPOS>MOLECULE
2xls_NAP_A_1.pdb
 39 42 0 0 0
SMALL
GASTEIGER

@<TRIPOS>ATOM
      1  PA        85.6710   38.9660  -23.4550 P.3   501  NAP501      0.2189
      2  O1A       85.4760   40.1260  -24.3670 O.2   501  NAP501     -0.5170
      3  O2A       84.3750   38.0300  -23.5730 O.3   501  NAP501     -0.4371
      4  O5B       86.9120   38.0710  -23.8040 O.3   501  NAP501     -0.3112
      5  C5B       87.3440   37.1810  -22.7930 C.3   501  NAP501      0.1813
      6  C4B       88.8590   37.0870  -23.1470 C.3   501  NAP501      0.1820
      7  O4B       89.4950   36.1820  -22.2380 O.3   501  NAP501     -0.3136
      8  C3B       89.2330   36.6220  -24.5840 C.3   501  NAP501      0.2157
      9  O3B       90.3770   37.3660  -25.0420 O.3   501  NAP501     -0.2175
     10  C2B       89.6670   35.1630  -24.3530 C.3   501  NAP501      0.2314
     11  O2B       90.7690   34.7070  -25.1470 O.3   501  NAP501     -0.2630
     12  C1B       90.3920   35.3710  -23.0200 C.3   501  NAP501      0.3158
     13  N9A       90.5530   34.0950  -22.3320 N.pl3 501  NAP501     -0.1439
     14  C8A       89.5490   33.2720  -21.8780 C.3   501  NAP501      0.3377
     15  N7A       90.0800   32.2350  -21.2800 N.2   501  NAP501     -0.2095
     16  C5A       91.4380   32.3450  -21.3090 C.2   501  NAP501      0.2526
     17  C6A       92.4740   31.5390  -20.8190 C.2   501  NAP501      0.4393
     18  N6A       92.1860   30.3750  -20.1530 N.pl3 501  NAP501      0.2180
     19  N1A       93.7240   31.9410  -21.0020 N.2   501  NAP501      0.0021
     20  C2A       93.9690   33.1100  -21.6550 C.3   501  NAP501      0.5254
     21  N3A       93.0220   33.9180  -22.1590 N.2   501  NAP501     -0.0055
     22  C4A       91.7590   33.5520  -21.9820 C.2   501  NAP501      0.3518
     23  O3        85.9830   39.4550  -21.9170 O.3   501  NAP501     -0.2703
     24  PN        86.3310   41.0140  -21.5290 P.3   501  NAP501      0.2189
     25  O1N       87.5580   41.6490  -22.1840 O.2   501  NAP501     -0.5170
     26  O2N       86.6080   40.9260  -19.9700 O.3   501  NAP501     -0.4371
     27  O5D       85.0540   41.9650  -21.6070 O.3   501  NAP501     -0.3112
     28  C5D       84.3920   41.7850  -22.8560 C.3   501  NAP501      0.1812
     29  C4D       83.3020   42.8420  -22.9140 C.3   501  NAP501      0.1780
     30  O4D       83.5920   43.8490  -21.8790 O.3   501  NAP501     -0.3482
     31  C3D       83.3810   43.4870  -24.3180 C.3   501  NAP501      0.2140
     32  O3D       82.4060   42.9090  -25.1800 O.3   501  NAP501     -0.2176
     33  C2D       82.9810   44.9590  -24.0120 C.3   501  NAP501      0.2140
     34  O2D       81.6420   45.3020  -24.4980 O.3   501  NAP501     -0.2176
     35  C1D       83.1080   45.1090  -22.4260 C.3   501  NAP501      0.1777
     36  P2B       90.3290   33.8980  -26.4960 P.3   501  NAP501      0.5328
     37  O1X       88.7540   34.0880  -26.8440 O.3   501  NAP501     -0.1145
     38  O2X       90.8310   32.4800  -26.3190 O.3   501  NAP501     -0.1145
     39  O3X       90.9820   34.6050  -27.8220 O.2   501  NAP501     -0.2224
@<TRIPOS>BOND
     1    39    36    2
     2    37    36    1
     3    36    38    1
     4    36    11    1
     5    32    31    1
     6    11    10    1
     7     9     8    1
     8     8    10    1
     9     8     6    1
    10    34    33    1
    11     2     1    2
    12    10    12    1
    13    31    33    1
    14    31    29    1
    15    33    35    1
    16     4     1    1
    17     4     5    1
    18     3     1    1
    19     1    23    1
    20     6     5    1
    21     6     7    1
    22    12    13    1
    23    12     7    1
    24    29    28    1
    25    29    30    1
    26    28    27    1
    27    35    30    1
    28    13    22    1
    29    13    14    1
    30    25    24    2
    31    21    22    2
    32    21    20    1
    33    22    16    1
    34    23    24    1
    35    14    15    1
    36    20    19    1
    37    27    24    1
    38    24    26    1
    39    16    15    2
    40    16    17    1
    41    19    17    2
    42    17    18    1
