@<TRIPOS>MOLECULE
2xlt_NA0_A_1.pdb
 48 52 0 0 0
SMALL
GASTEIGER

@<TRIPOS>ATOM
      1  PN       -14.3840  184.0150  -23.3890 P.3   501  NA0501      0.2189
      2  O1N      -13.0230  183.5840  -23.8740 O.2   501  NA0501     -0.5170
      3  O2N      -14.6020  184.2910  -21.9240 O.3   501  NA0501     -0.4371
      4  O5D      -14.8750  185.3100  -24.2000 O.3   501  NA0501     -0.3112
      5  C5D      -15.2390  186.4670  -23.4290 C.3   501  NA0501      0.1813
      6  C4B      -14.3180  178.9870  -24.4850 C.3   501  NA0501      0.1820
      7  O4B      -13.5970  178.1650  -23.5650 O.3   501  NA0501     -0.3136
      8  C3B      -13.8870  178.5300  -25.8760 C.3   501  NA0501      0.2157
      9  O3B      -12.4880  178.7760  -26.1020 O.3   501  NA0501     -0.2175
     10  C2B      -14.1390  177.0600  -25.6090 C.3   501  NA0501      0.2314
     11  O2B      -13.5270  176.2020  -26.5430 O.3   501  NA0501     -0.2630
     12  C1B      -13.5090  176.8990  -24.2280 C.3   501  NA0501      0.3158
     13  N9A      -14.1660  175.7770  -23.5320 N.pl3 501  NA0501     -0.1439
     14  C8A      -15.4530  175.6070  -23.1750 C.3   501  NA0501      0.3377
     15  N7A      -15.5750  174.4120  -22.5570 N.2   501  NA0501     -0.2095
     16  C5A      -14.3610  173.8430  -22.5460 C.2   501  NA0501      0.2526
     17  C6A      -13.8450  172.6460  -22.0890 C.2   501  NA0501      0.4393
     18  N6A      -14.6420  171.7660  -21.4790 N.pl3 501  NA0501      0.2180
     19  N1A      -12.5290  172.3820  -22.2380 N.2   501  NA0501      0.0021
     20  C2A      -11.6990  173.2370  -22.8350 C.3   501  NA0501      0.5254
     21  N3A      -12.1750  174.3890  -23.2930 N.2   501  NA0501     -0.0055
     22  C4A      -13.4850  174.7050  -23.1700 C.2   501  NA0501      0.3518
     23  O3       -15.5050  182.9000  -23.7490 O.3   501  NA0501     -0.2703
     24  PA       -15.8750  182.3540  -25.2060 P.3   501  NA0501      0.2189
     25  O2A      -15.3660  183.3420  -26.2340 O.2   501  NA0501     -0.5170
     26  O1A      -17.3170  181.9660  -25.1450 O.3   501  NA0501     -0.4371
     27  O5B      -15.1200  180.9560  -25.2940 O.3   501  NA0501     -0.3112
     28  C5B      -14.2550  180.4690  -24.2810 C.3   501  NA0501      0.1813
     29  C4D      -16.0270  187.4310  -24.2890 C.3   501  NA0501      0.1799
     30  O4D      -15.2460  187.7160  -25.4490 O.3   501  NA0501     -0.3327
     31  C3D      -16.3450  188.7620  -23.6240 C.3   501  NA0501      0.2158
     32  O3D      -15.3650  189.1330  -22.6540 O.3   501  NA0501     -0.2175
     33  C2D      -16.2150  189.7570  -24.7380 C.3   501  NA0501      0.2309
     34  O2D      -15.6880  190.9580  -24.1720 O.3   501  NA0501     -0.2158
     35  C1D      -15.1820  189.1150  -25.6530 C.3   501  NA0501      0.2263
     36  N1N      -15.4120  189.3180  -27.0660 N.pl3 501  NA0501     -0.2787
     37  C2N      -14.7400  190.3050  -27.6830 C.3   501  NA0501      0.1226
     38  C3N      -14.9090  190.5110  -29.0460 C.2   501  NA0501      0.0324
     39  C7N      -14.1870  191.6450  -29.7060 C.2   501  NA0501      0.1712
     40  O7N      -13.2880  192.2410  -29.1200 O.2   501  NA0501     -0.2916
     41  C4N      -15.7730  189.6770  -29.7620 C.2   501  NA0501      0.0015
     42  C5N      -16.4500  188.6580  -29.0940 C.2   501  NA0501      0.0157
     43  C6N      -16.2450  188.4890  -27.7300 C.2   501  NA0501      0.0633
     44  P2B      -14.1270  175.9120  -28.0220 P.3   501  NA0501      0.5328
     45  O2X      -15.6300  176.0120  -27.9610 O.3   501  NA0501     -0.1145
     46  O1X      -13.5960  174.5350  -28.2090 O.3   501  NA0501     -0.1145
     47  O3X      -13.4650  176.9650  -28.8440 O.2   501  NA0501     -0.2224
     48  CAA      -14.6110  192.0960  -31.0600 C.3   501  NA0501      0.0770
@<TRIPOS>BOND
     1    48    39    1
     2    41    42    1
     3    41    38    2
     4    39    40    2
     5    39    38    1
     6    42    43    2
     7    38    37    1
     8    47    44    2
     9    46    44    1
    10    44    45    1
    11    44    11    1
    12    43    36    1
    13    37    36    1
    14    36    35    1
    15    11    10    1
    16    25    24    2
    17     9     8    1
    18     8    10    1
    19     8     6    1
    20    35    30    1
    21    35    33    1
    22    10    12    1
    23    30    29    1
    24    27    24    1
    25    27    28    1
    26    24    26    1
    27    24    23    1
    28    33    34    1
    29    33    31    1
    30     6    28    1
    31     6     7    1
    32    29    31    1
    33    29     5    1
    34    12     7    1
    35    12    13    1
    36     4     5    1
    37     4     1    1
    38     2     1    2
    39    23     1    1
    40    31    32    1
    41    13    14    1
    42    13    22    1
    43     1     3    1
    44    21    22    2
    45    21    20    1
    46    14    15    1
    47    22    16    1
    48    20    19    1
    49    15    16    2
    50    16    17    1
    51    19    17    2
    52    17    18    1
