@<TRIPOS>MOLECULE
2xlu_NA7_A_1.pdb
 39 42 0 0 0
SMALL
GASTEIGER

@<TRIPOS>ATOM
      1  PA       -15.7300  182.6670  -24.7650 P.3   501  NA7501      0.2189
      2  O1A      -17.1200  182.1380  -24.6960 O.3   501  NA7501     -0.4371
      3  O2A      -15.3940  183.7310  -25.9330 O.2   501  NA7501     -0.5170
      4  O5B      -14.9660  181.2900  -24.9510 O.3   501  NA7501     -0.3112
      5  C5B      -15.0410  180.3010  -23.9290 C.3   501  NA7501      0.1813
      6  C4B      -13.6940  179.5990  -24.1600 C.3   501  NA7501      0.1820
      7  O4B      -13.5930  178.4140  -23.3630 O.3   501  NA7501     -0.3136
      8  C3B      -13.7270  179.2350  -25.6400 C.3   501  NA7501      0.2157
      9  O3B      -12.4200  179.0800  -26.2010 O.3   501  NA7501     -0.2175
     10  C2B      -14.4110  177.9370  -25.4050 C.3   501  NA7501      0.2314
     11  O2B      -14.7690  177.2840  -26.6000 O.3   501  NA7501     -0.2630
     12  C1B      -13.5970  177.3140  -24.3050 C.3   501  NA7501      0.3158
     13  N9A      -14.2470  176.1830  -23.6340 N.pl3 501  NA7501     -0.1439
     14  C8A      -15.5490  176.0740  -23.2970 C.3   501  NA7501      0.3377
     15  N7A      -15.6990  174.8810  -22.6630 N.2   501  NA7501     -0.2095
     16  C5A      -14.4870  174.2720  -22.5880 C.2   501  NA7501      0.2526
     17  C6A      -14.0290  173.0600  -22.0680 C.2   501  NA7501      0.4393
     18  N6A      -14.8680  172.2000  -21.4570 N.pl3 501  NA7501      0.2180
     19  N1A      -12.7180  172.7510  -22.1790 N.2   501  NA7501      0.0021
     20  C2A      -11.8320  173.5800  -22.7710 C.3   501  NA7501      0.5254
     21  N3A      -12.2630  174.7670  -23.2770 N.2   501  NA7501     -0.0055
     22  C4A      -13.5750  175.1190  -23.1980 C.2   501  NA7501      0.3518
     23  O3       -15.2290  183.1770  -23.3230 O.3   501  NA7501     -0.2703
     24  PN       -14.3200  184.4770  -22.9390 P.3   501  NA7501      0.2189
     25  O1N      -12.9800  184.3700  -23.6800 O.2   501  NA7501     -0.5170
     26  O2N      -14.3770  184.5560  -21.3810 O.3   501  NA7501     -0.4371
     27  O5D      -15.3300  185.6060  -23.4990 O.3   501  NA7501     -0.3112
     28  C5D      -14.9350  186.9590  -23.3740 C.3   501  NA7501      0.1812
     29  C4D      -16.0590  187.9240  -23.7680 C.3   501  NA7501      0.1780
     30  O4D      -15.9730  188.8670  -22.6820 O.3   501  NA7501     -0.3482
     31  C3D      -15.7470  188.8010  -24.9830 C.3   501  NA7501      0.2140
     32  O3D      -16.9840  189.4360  -25.3110 O.3   501  NA7501     -0.2176
     33  C2D      -14.7550  189.8870  -24.4550 C.3   501  NA7501      0.2140
     34  O2D      -14.9430  191.2480  -24.9580 O.3   501  NA7501     -0.2176
     35  C1D      -14.8550  189.8110  -22.9090 C.3   501  NA7501      0.1777
     36  P2B      -13.9260  176.3880  -27.5720 P.3   501  NA7501      0.5328
     37  O1X      -14.5110  174.8670  -27.6550 O.3   501  NA7501     -0.1145
     38  O2X      -14.1200  177.0340  -29.0310 O.2   501  NA7501     -0.2224
     39  O3X      -12.5390  176.3760  -26.9820 O.3   501  NA7501     -0.1145
@<TRIPOS>BOND
     1    38    36    2
     2    37    36    1
     3    36    39    1
     4    36    11    1
     5    11    10    1
     6     9     8    1
     7     3     1    2
     8     8    10    1
     9     8     6    1
    10    10    12    1
    11    32    31    1
    12    31    33    1
    13    31    29    1
    14    34    33    1
    15     4     1    1
    16     4     5    1
    17     1     2    1
    18     1    23    1
    19    33    35    1
    20    12    13    1
    21    12     7    1
    22     6     5    1
    23     6     7    1
    24    29    28    1
    25    29    30    1
    26    25    24    2
    27    13    14    1
    28    13    22    1
    29    27    28    1
    30    27    24    1
    31    23    24    1
    32    14    15    1
    33    21    22    2
    34    21    20    1
    35    22    16    1
    36    24    26    1
    37    35    30    1
    38    20    19    1
    39    15    16    2
    40    16    17    1
    41    19    17    2
    42    17    18    1
