@<TRIPOS>MOLECULE
2xlv_HEC_A_1.pdb
 43 50 0 0 0
SMALL
GASTEIGER

@<TRIPOS>ATOM
      1 FE          6.8000   39.3120   21.6600 Fe    1127  HEC1127     0.0000
      2  CHA        8.2890   36.2270   21.4720 C.2   1127  HEC1127     0.0000
      3  CHB        7.0600   39.6640   18.3070 C.2   1127  HEC1127     0.0000
      4  CHC        4.6080   41.9620   21.7500 C.2   1127  HEC1127     0.0000
      5  CHD        6.4660   38.9660   25.0080 C.2   1127  HEC1127     0.0000
      6  NA         7.5200   38.1560   20.1800 N.ar  1127  HEC1127     0.0000
      7  C1A        8.0630   36.8990   20.2970 C.ar  1127  HEC1127     0.0000
      8  C2A        8.3940   36.4320   18.9710 C.ar  1127  HEC1127     0.0000
      9  C3A        8.0740   37.3720   18.0830 C.ar  1127  HEC1127     0.0000
     10  C4A        7.4900   38.4670   18.8350 C.ar  1127  HEC1127     0.0000
     11  CMA        8.1870   37.3500   16.5690 C.3   1127  HEC1127     0.0000
     12  CAA        9.0240   35.0840   18.6870 C.3   1127  HEC1127     0.0000
     13  CBA        8.0350   33.9380   18.7170 C.3   1127  HEC1127     0.0000
     14  CGA        8.5700   32.6160   18.2810 C.2   1127  HEC1127     0.0000
     15  O1A        9.3910   32.0050   19.0220 O.co2 1127  HEC1127     0.0000
     16  O2A        8.2350   32.1410   17.1750 O.co2 1127  HEC1127     0.0000
     17  NB         5.9930   40.5490   20.2920 N.2   1127  HEC1127     0.0000
     18  C1B        6.2850   40.5890   18.9570 C.2   1127  HEC1127     0.0000
     19  C2B        5.6140   41.7190   18.3370 C.2   1127  HEC1127     0.0000
     20  C3B        4.9270   42.3430   19.2760 C.2   1127  HEC1127     0.0000
     21  C4B        5.1320   41.6250   20.5070 C.2   1127  HEC1127     0.0000
     22  CMB        5.7600   42.1080   16.8500 C.3   1127  HEC1127     0.0000
     23  CAB        3.9880   43.5490   19.1640 C.3   1127  HEC1127     0.0000
     24  CBB        3.1230   43.5040   17.8980 C.3   1127  HEC1127     0.0000
     25  NC         5.7460   40.2490   23.0970 N.ar  1127  HEC1127     0.0000
     26  C1C        4.8880   41.3260   22.9340 C.ar  1127  HEC1127     0.0000
     27  C2C        4.3830   41.7700   24.2190 C.ar  1127  HEC1127     0.0000
     28  C3C        4.8990   40.9310   25.1500 C.ar  1127  HEC1127     0.0000
     29  C4C        5.7350   39.9900   24.4460 C.ar  1127  HEC1127     0.0000
     30  CMC        3.4340   42.9580   24.3910 C.3   1127  HEC1127     0.0000
     31  CAC        4.7530   40.9090   26.6790 C.3   1127  HEC1127     0.0000
     32  CBC        3.4940   41.5370   27.2710 C.3   1127  HEC1127     0.0000
     33  ND         7.2660   37.8620   22.9670 N.2   1127  HEC1127     0.0000
     34  C1D        7.1090   37.9520   24.3540 C.2   1127  HEC1127     0.0000
     35  C2D        7.7150   36.8300   25.0230 C.2   1127  HEC1127     0.0000
     36  C3D        8.2240   36.0170   23.9390 C.2   1127  HEC1127     0.0000
     37  C4D        7.9690   36.6900   22.7070 C.2   1127  HEC1127     0.0000
     38  CMD        7.7550   36.5570   26.5120 C.3   1127  HEC1127     0.0000
     39  CAD        8.8810   34.6860   24.1120 C.3   1127  HEC1127     0.0000
     40  CBD        7.8610   33.5280   24.0290 C.3   1127  HEC1127     0.0000
     41  CGD        8.4660   32.1610   24.2000 C.2   1127  HEC1127     0.0000
     42  O1D        8.0180   31.3980   25.1120 O.co2 1127  HEC1127     0.0000
     43  O2D        9.4490   31.8610   23.4660 O.co2 1127  HEC1127     0.0000
@<TRIPOS>BOND
     1    11     9    1
     2    22    19    1
     3    16    14   ar
     4    24    23    1
     5     9    10   ar
     6     9     8   ar
     7    14    13    1
     8    14    15   ar
     9     3    10    2
    10     3    18    1
    11    19    18    1
    12    19    20    2
    13    12    13    1
    14    12     8    1
    15    10     6   ar
    16    18    17    2
    17     8     7   ar
    18    23    20    1
    19    20    21    1
    20     6     7   ar
    21     6     1    1
    22    17    21    1
    23    17     1    1
    24     7     2    2
    25    21     4    2
    26     2    37    1
    27     1    33    1
    28     1    25    1
    29     4    26    1
    30    37    33    2
    31    37    36    1
    32    26    25   ar
    33    26    27   ar
    34    33    34    1
    35    25    29   ar
    36    43    41   ar
    37    36    39    1
    38    36    35    2
    39    40    39    1
    40    40    41    1
    41    41    42   ar
    42    27    30    1
    43    27    28   ar
    44    34     5    2
    45    34    35    1
    46    29     5    1
    47    29    28   ar
    48    35    38    1
    49    28    31    1
    50    31    32    1
