@<TRIPOS>MOLECULE
2xlw_HEC_A_1.pdb
 43 50 0 0 0
SMALL
GASTEIGER

@<TRIPOS>ATOM
      1 FE          6.6620   39.3760   21.7440 Fe    1126  HEC1126     0.0000
      2  CHA        8.2460   36.3240   21.5870 C.2   1126  HEC1126     0.0000
      3  CHB        6.8520   39.6540   18.3920 C.2   1126  HEC1126     0.0000
      4  CHC        4.4980   41.9910   21.8390 C.2   1126  HEC1126     0.0000
      5  CHD        6.3540   38.9950   25.1190 C.2   1126  HEC1126     0.0000
      6  NA         7.4010   38.1940   20.2670 N.ar  1126  HEC1126     0.0000
      7  C1A        8.0020   36.9680   20.4050 C.ar  1126  HEC1126     0.0000
      8  C2A        8.3240   36.4840   19.0900 C.ar  1126  HEC1126     0.0000
      9  C3A        7.9440   37.3890   18.1840 C.ar  1126  HEC1126     0.0000
     10  C4A        7.3440   38.4820   18.9340 C.ar  1126  HEC1126     0.0000
     11  CMA        7.9890   37.3560   16.6680 C.3   1126  HEC1126     0.0000
     12  CAA        8.9720   35.1270   18.7880 C.3   1126  HEC1126     0.0000
     13  CBA        7.9590   34.0260   18.7240 C.3   1126  HEC1126     0.0000
     14  CGA        8.5380   32.6900   18.3510 C.2   1126  HEC1126     0.0000
     15  O1A        9.2630   32.0580   19.1150 O.co2 1126  HEC1126     0.0000
     16  O2A        8.2140   32.2550   17.2260 O.co2 1126  HEC1126     0.0000
     17  NB         5.8160   40.5850   20.3500 N.2   1126  HEC1126     0.0000
     18  C1B        6.0880   40.6080   19.0410 C.2   1126  HEC1126     0.0000
     19  C2B        5.4460   41.7330   18.4260 C.2   1126  HEC1126     0.0000
     20  C3B        4.7590   42.3600   19.3750 C.2   1126  HEC1126     0.0000
     21  C4B        4.9980   41.6380   20.6050 C.2   1126  HEC1126     0.0000
     22  CMB        5.5860   42.1170   16.9460 C.3   1126  HEC1126     0.0000
     23  CAB        3.8580   43.6070   19.2670 C.3   1126  HEC1126     0.0000
     24  CBB        2.9210   43.6050   18.0330 C.3   1126  HEC1126     0.0000
     25  NC         5.5980   40.2970   23.1990 N.ar  1126  HEC1126     0.0000
     26  C1C        4.7690   41.3960   23.0430 C.ar  1126  HEC1126     0.0000
     27  C2C        4.2810   41.8440   24.3300 C.ar  1126  HEC1126     0.0000
     28  C3C        4.8230   41.0050   25.2490 C.ar  1126  HEC1126     0.0000
     29  C4C        5.6470   40.0490   24.5650 C.ar  1126  HEC1126     0.0000
     30  CMC        3.3550   43.0250   24.5280 C.3   1126  HEC1126     0.0000
     31  CAC        4.6770   41.0300   26.7790 C.3   1126  HEC1126     0.0000
     32  CBC        3.4120   41.6100   27.3740 C.3   1126  HEC1126     0.0000
     33  ND         7.1950   37.9540   23.0700 N.2   1126  HEC1126     0.0000
     34  C1D        7.0220   38.0080   24.4610 C.2   1126  HEC1126     0.0000
     35  C2D        7.6440   36.8810   25.1080 C.2   1126  HEC1126     0.0000
     36  C3D        8.1670   36.0760   24.0460 C.2   1126  HEC1126     0.0000
     37  C4D        7.8850   36.7630   22.8260 C.2   1126  HEC1126     0.0000
     38  CMD        7.6950   36.6410   26.5880 C.3   1126  HEC1126     0.0000
     39  CAD        8.8590   34.7480   24.2260 C.3   1126  HEC1126     0.0000
     40  CBD        7.8290   33.6150   24.1560 C.3   1126  HEC1126     0.0000
     41  CGD        8.4080   32.2440   24.3570 C.2   1126  HEC1126     0.0000
     42  O1D        7.9520   31.5000   25.2410 O.co2 1126  HEC1126     0.0000
     43  O2D        9.4180   31.9190   23.6650 O.co2 1126  HEC1126     0.0000
@<TRIPOS>BOND
     1    11     9    1
     2    22    19    1
     3    16    14   ar
     4    24    23    1
     5     9    10   ar
     6     9     8   ar
     7    14    13    1
     8    14    15   ar
     9     3    10    2
    10     3    18    1
    11    19    18    1
    12    19    20    2
    13    13    12    1
    14    12     8    1
    15    10     6   ar
    16    18    17    2
    17     8     7   ar
    18    23    20    1
    19    20    21    1
    20     6     7   ar
    21     6     1    1
    22    17    21    1
    23    17     1    1
    24     7     2    2
    25    21     4    2
    26     2    37    1
    27     1    33    1
    28     1    25    1
    29     4    26    1
    30    37    33    2
    31    37    36    1
    32    26    25   ar
    33    26    27   ar
    34    33    34    1
    35    25    29   ar
    36    43    41   ar
    37    36    39    1
    38    36    35    2
    39    40    39    1
    40    40    41    1
    41    27    30    1
    42    27    28   ar
    43    41    42   ar
    44    34    35    1
    45    34     5    2
    46    29     5    1
    47    29    28   ar
    48    35    38    1
    49    28    31    1
    50    31    32    1
