@<TRIPOS>MOLECULE
2xm0_HEC_A_1.pdb
 43 50 0 0 0
SMALL
GASTEIGER

@<TRIPOS>ATOM
      1 FE          6.7070   39.2790   21.7250 Fe    1128  HEC1128     0.0000
      2  CHA        8.2770   36.1980   21.5920 C.2   1128  HEC1128     0.0000
      3  CHB        6.7260   39.4520   18.3610 C.2   1128  HEC1128     0.0000
      4  CHC        4.5810   41.9120   21.8680 C.2   1128  HEC1128     0.0000
      5  CHD        6.4530   38.9770   25.1240 C.2   1128  HEC1128     0.0000
      6  NA         7.3730   38.1360   20.3230 N.ar  1128  HEC1128     0.0000
      7  C1A        8.0160   36.8520   20.4200 C.ar  1128  HEC1128     0.0000
      8  C2A        8.3480   36.3820   19.0820 C.ar  1128  HEC1128     0.0000
      9  C3A        7.9740   37.3180   18.2080 C.ar  1128  HEC1128     0.0000
     10  C4A        7.3230   38.3690   18.9530 C.ar  1128  HEC1128     0.0000
     11  CMA        7.9430   37.1500   16.7250 C.3   1128  HEC1128     0.0000
     12  CAA        9.0310   35.0170   18.7460 C.3   1128  HEC1128     0.0000
     13  CBA        8.0590   33.8850   18.7280 C.3   1128  HEC1128     0.0000
     14  CGA        8.6830   32.5790   18.2960 C.2   1128  HEC1128     0.0000
     15  O1A        9.4160   31.9640   19.1050 O.co2 1128  HEC1128     0.0000
     16  O2A        8.2820   32.1700   17.1770 O.co2 1128  HEC1128     0.0000
     17  NB         5.7490   40.4390   20.2910 N.2   1128  HEC1128     0.0000
     18  C1B        5.9810   40.4030   18.9770 C.2   1128  HEC1128     0.0000
     19  C2B        5.4160   41.6050   18.3650 C.2   1128  HEC1128     0.0000
     20  C3B        4.7470   42.2810   19.3520 C.2   1128  HEC1128     0.0000
     21  C4B        4.9490   41.5330   20.5880 C.2   1128  HEC1128     0.0000
     22  CMB        5.5040   41.9590   16.8680 C.3   1128  HEC1128     0.0000
     23  CAB        3.9670   43.6180   19.2780 C.3   1128  HEC1128     0.0000
     24  CBB        3.0680   43.6180   18.0250 C.3   1128  HEC1128     0.0000
     25  NC         5.6750   40.2220   23.2150 N.ar  1128  HEC1128     0.0000
     26  C1C        4.8340   41.3250   23.0550 C.ar  1128  HEC1128     0.0000
     27  C2C        4.3700   41.8110   24.3380 C.ar  1128  HEC1128     0.0000
     28  C3C        4.8830   40.9820   25.2750 C.ar  1128  HEC1128     0.0000
     29  C4C        5.6520   39.9830   24.5630 C.ar  1128  HEC1128     0.0000
     30  CMC        3.4570   43.0180   24.5070 C.3   1128  HEC1128     0.0000
     31  CAC        4.7050   40.9760   26.8100 C.3   1128  HEC1128     0.0000
     32  CBC        3.4880   41.6890   27.3790 C.3   1128  HEC1128     0.0000
     33  ND         7.3130   37.8110   23.1610 N.2   1128  HEC1128     0.0000
     34  C1D        7.1080   37.9250   24.5150 C.2   1128  HEC1128     0.0000
     35  C2D        7.8140   36.8230   25.1800 C.2   1128  HEC1128     0.0000
     36  C3D        8.2400   35.9940   24.0840 C.2   1128  HEC1128     0.0000
     37  C4D        8.0280   36.6540   22.8470 C.2   1128  HEC1128     0.0000
     38  CMD        7.8520   36.5890   26.6770 C.3   1128  HEC1128     0.0000
     39  CAD        9.0710   34.6820   24.2940 C.3   1128  HEC1128     0.0000
     40  CBD        7.9710   33.6150   24.1940 C.3   1128  HEC1128     0.0000
     41  CGD        8.5290   32.2160   24.3750 C.2   1128  HEC1128     0.0000
     42  O1D        8.1130   31.4490   25.2560 O.co2 1128  HEC1128     0.0000
     43  O2D        9.4990   31.8720   23.6750 O.co2 1128  HEC1128     0.0000
@<TRIPOS>BOND
     1    11     9    1
     2    22    19    1
     3    16    14   ar
     4    24    23    1
     5     9    10   ar
     6     9     8   ar
     7    14    13    1
     8    14    15   ar
     9     3    10    2
    10     3    18    1
    11    19    18    1
    12    19    20    2
    13    13    12    1
    14    12     8    1
    15    10     6   ar
    16    18    17    2
    17     8     7   ar
    18    23    20    1
    19    20    21    1
    20    17    21    1
    21    17     1    1
    22     6     7   ar
    23     6     1    1
    24     7     2    2
    25    21     4    2
    26     2    37    1
    27     1    33    1
    28     1    25    1
    29     4    26    1
    30    37    33    2
    31    37    36    1
    32    26    25   ar
    33    26    27   ar
    34    33    34    1
    35    25    29   ar
    36    43    41   ar
    37    36    39    1
    38    36    35    2
    39    40    39    1
    40    40    41    1
    41    27    30    1
    42    27    28   ar
    43    41    42   ar
    44    34     5    2
    45    34    35    1
    46    29     5    1
    47    29    28   ar
    48    35    38    1
    49    28    31    1
    50    31    32    1
