@<TRIPOS>MOLECULE
2xm1_LTM_A_1.pdb
 15 15 0 0 0
SMALL
GASTEIGER

@<TRIPOS>ATOM
      1  O7         5.9420  -10.4730    5.4930 O.2   1717  LTM1717    -0.2733
      2  C7         7.1150  -10.4680    5.8320 C.2   1717  LTM1717     0.2429
      3  C8         7.5160   -9.8270    7.1270 C.3   1717  LTM1717     0.0965
      4  N2         8.1280  -11.0390    5.0690 N.am  1717  LTM1717    -0.1874
      5  C2         7.7660  -11.6390    3.7530 C.3   1717  LTM1717     0.2327
      6  C3         7.4820  -10.5630    2.7110 C.3   1717  LTM1717     0.2197
      7  O3         8.7770  -10.1620    2.2350 O.3   1717  LTM1717    -0.2173
      8  C4         6.6220  -11.1530    1.5870 C.3   1717  LTM1717     0.2106
      9  O4         6.4500  -10.1830    0.5500 O.3   1717  LTM1717    -0.2181
     10  C5         5.2830  -11.5340    2.2130 C.3   1717  LTM1717     0.1802
     11  C6         4.2260  -11.9730    1.2050 C.3   1717  LTM1717     0.2098
     12  O6         4.8060  -13.0800    0.4770 O.3   1717  LTM1717    -0.2181
     13  N5         5.5380  -12.7060    3.0850 N.2   1717  LTM1717    -0.2014
     14  C1         6.6570  -12.6630    3.8820 C.1   1717  LTM1717     0.1485
     15  O1         6.7530  -13.5270    4.7490 O.2   1717  LTM1717    -0.2252
@<TRIPOS>BOND
     1    12    11    1
     2     9     8    1
     3    11    10    1
     4     8    10    1
     5     8     6    1
     6    10    13    1
     7     7     6    1
     8     6     5    1
     9    13    14    2
    10     5    14    1
    11     5     4    1
    12    14    15    2
    13     4     2   am
    14     1     2    2
    15     2     3    1
