@<TRIPOS>MOLECULE
2xm2_LOG_A_1.pdb
 16 16 0 0 0
SMALL
GASTEIGER

@<TRIPOS>ATOM
      1  C2         7.9720  -11.4390    3.7290 C.3   1000  LOG1000     0.2067
      2  C3         7.6310  -10.4130    2.6440 C.3   1000  LOG1000     0.2147
      3  C4         6.7430  -11.0690    1.5840 C.3   1000  LOG1000     0.2266
      4  C5         5.4150  -11.4700    2.2220 C.3   1000  LOG1000     0.2328
      5  C6         4.3770  -11.9510    1.1940 C.3   1000  LOG1000     0.2281
      6  C7         7.2440  -10.3550    5.8410 C.2   1000  LOG1000     0.2423
      7  C8         7.5830   -9.7100    7.1750 C.3   1000  LOG1000     0.0964
      8  N2         8.2890  -10.8740    5.0780 N.am  1000  LOG1000    -0.1948
      9  O1         6.1760  -14.2900    4.9660 O.2   1000  LOG1000    -0.1404
     10  O3         8.8850   -9.9820    2.0660 O.3   1000  LOG1000    -0.2179
     11  O4         6.4840  -10.1060    0.5570 O.3   1000  LOG1000    -0.2163
     12  O5         5.6660  -12.5560    3.1250 O.2   1000  LOG1000    -0.4582
     13  O6         4.9300  -13.1380    0.5510 O.3   1000  LOG1000    -0.2163
     14  C1         6.8870  -12.4630    3.8880 C.2   1000  LOG1000     0.2639
     15  O7         6.0670  -10.4030    5.4490 O.2   1000  LOG1000    -0.2733
     16  N1         7.1250  -13.3280    4.7710 N.2   1000  LOG1000     0.0057
@<TRIPOS>BOND
     1    13     5    1
     2    11     3    1
     3     5     4    1
     4     3     4    1
     5     3     2    1
     6    10     2    1
     7     4    12    1
     8     2     1    1
     9    12    14    1
    10     1    14    1
    11     1     8    1
    12    14    16    2
    13    16     9    1
    14     8     6   am
    15    15     6    2
    16     6     7    1
