@<TRIPOS>MOLECULE
2xm4_HEC_A_1.pdb
 43 50 0 0 0
SMALL
GASTEIGER

@<TRIPOS>ATOM
      1 FE          6.7160   39.0870   21.7720 Fe    128  HEC128      0.0000
      2  CHA        8.3800   36.1070   21.6470 C.2   128  HEC128      0.0000
      3  CHB        6.7530   39.2540   18.3740 C.2   128  HEC128      0.0000
      4  CHC        4.5410   41.7170   21.8680 C.2   128  HEC128      0.0000
      5  CHD        6.4000   38.7280   25.1510 C.2   128  HEC128      0.0000
      6  NA         7.4160   37.8640   20.2660 N.ar  128  HEC128      0.0000
      7  C1A        8.0740   36.6620   20.4190 C.ar  128  HEC128      0.0000
      8  C2A        8.3800   36.1480   19.1100 C.ar  128  HEC128      0.0000
      9  C3A        7.9200   37.0250   18.1990 C.ar  128  HEC128      0.0000
     10  C4A        7.3060   38.1090   18.9330 C.ar  128  HEC128      0.0000
     11  CMA        7.9900   36.9500   16.6960 C.3   128  HEC128      0.0000
     12  CAA        9.0810   34.8490   18.8310 C.3   128  HEC128      0.0000
     13  CBA        8.1210   33.6820   18.7910 C.3   128  HEC128      0.0000
     14  CGA        8.8020   32.4060   18.3910 C.2   128  HEC128      0.0000
     15  O1A        9.5010   31.7920   19.2120 O.co2 128  HEC128      0.0000
     16  O2A        8.6080   32.0120   17.2120 O.co2 128  HEC128      0.0000
     17  NB         5.7980   40.2780   20.3360 N.2   128  HEC128      0.0000
     18  C1B        6.0600   40.2570   19.0090 C.2   128  HEC128      0.0000
     19  C2B        5.4390   41.4010   18.3990 C.2   128  HEC128      0.0000
     20  C3B        4.8040   42.0720   19.3560 C.2   128  HEC128      0.0000
     21  C4B        5.0120   41.3700   20.6030 C.2   128  HEC128      0.0000
     22  CMB        5.5670   41.7480   16.9270 C.3   128  HEC128      0.0000
     23  CAB        3.9740   43.3490   19.3120 C.3   128  HEC128      0.0000
     24  CBB        3.0910   43.4780   18.0620 C.3   128  HEC128      0.0000
     25  NC         5.6180   40.0250   23.2410 N.ar  128  HEC128      0.0000
     26  C1C        4.8160   41.1140   23.0820 C.ar  128  HEC128      0.0000
     27  C2C        4.3640   41.5740   24.3710 C.ar  128  HEC128      0.0000
     28  C3C        4.8700   40.7400   25.2740 C.ar  128  HEC128      0.0000
     29  C4C        5.6570   39.7720   24.5780 C.ar  128  HEC128      0.0000
     30  CMC        3.4460   42.7880   24.5520 C.3   128  HEC128      0.0000
     31  CAC        4.7260   40.7260   26.7840 C.3   128  HEC128      0.0000
     32  CBC        3.4770   41.3960   27.3740 C.3   128  HEC128      0.0000
     33  ND         7.3350   37.6840   23.1490 N.2   128  HEC128      0.0000
     34  C1D        7.1310   37.7380   24.5140 C.2   128  HEC128      0.0000
     35  C2D        7.7770   36.6440   25.1600 C.2   128  HEC128      0.0000
     36  C3D        8.3300   35.8630   24.1420 C.2   128  HEC128      0.0000
     37  C4D        8.0520   36.5250   22.8980 C.2   128  HEC128      0.0000
     38  CMD        7.7860   36.3970   26.6390 C.3   128  HEC128      0.0000
     39  CAD        9.0180   34.5370   24.3150 C.3   128  HEC128      0.0000
     40  CBD        7.9950   33.3750   24.2090 C.3   128  HEC128      0.0000
     41  CGD        8.5950   32.0080   24.4330 C.2   128  HEC128      0.0000
     42  O1D        8.0990   31.2370   25.2880 O.co2 128  HEC128      0.0000
     43  O2D        9.6200   31.7020   23.7510 O.co2 128  HEC128      0.0000
@<TRIPOS>BOND
     1    11     9    1
     2    22    19    1
     3    16    14   ar
     4    24    23    1
     5     9    10   ar
     6     9     8   ar
     7     3    10    2
     8     3    18    1
     9    14    13    1
    10    14    15   ar
    11    19    18    1
    12    19    20    2
    13    13    12    1
    14    12     8    1
    15    10     6   ar
    16    18    17    2
    17     8     7   ar
    18    23    20    1
    19    20    21    1
    20     6     7   ar
    21     6     1    1
    22    17    21    1
    23    17     1    1
    24     7     2    2
    25    21     4    2
    26     2    37    1
    27     1    33    1
    28     1    25    1
    29     4    26    1
    30    37    33    2
    31    37    36    1
    32    26    25   ar
    33    26    27   ar
    34    33    34    1
    35    25    29   ar
    36    43    41   ar
    37    36    39    1
    38    36    35    2
    39    40    39    1
    40    40    41    1
    41    27    30    1
    42    27    28   ar
    43    41    42   ar
    44    34     5    2
    45    34    35    1
    46    29     5    1
    47    29    28   ar
    48    35    38    1
    49    28    31    1
    50    31    32    1
