@<TRIPOS>MOLECULE
2xm7_34H_A_1.pdb
 13 13 0 0 0
SMALL
GASTEIGER

@<TRIPOS>ATOM
      1  O4       101.7410    0.0630   16.9610 O.3   1315  34H1315    -0.2105
      2  C9        98.3220    0.6090   16.4850 C.ar  1315  34H1315    -0.0009
      3  C8        97.1960   -0.1660   16.3130 C.ar  1315  34H1315     0.0417
      4  C7        96.9610   -0.7880   15.1010 C.ar  1315  34H1315     0.1957
      5  C6        97.8590   -0.6440   14.0460 C.ar  1315  34H1315     0.0417
      6  C5        99.0030    0.1290   14.2340 C.ar  1315  34H1315    -0.0009
      7  C4        99.2420    0.7540   15.4510 C.ar  1315  34H1315    -0.0188
      8  O3        95.8500   -1.5300   14.9800 O.3   1315  34H1315    -0.2866
      9  C3       100.4660    1.6660   15.6780 C.3   1315  34H1315     0.0710
     10  C2       101.8270    1.0170   15.9120 C.3   1315  34H1315     0.2583
     11  C1       102.3870    0.4120   14.5990 C.2   1315  34H1315     0.3950
     12  O2       102.4670   -0.8170   14.5490 O.co2 1315  34H1315    -0.2428
     13  O1       102.6910    1.2060   13.6720 O.co2 1315  34H1315    -0.2428
@<TRIPOS>BOND
     1    13    11   ar
     2     5     6   ar
     3     5     4   ar
     4     6     7   ar
     5    12    11   ar
     6    11    10    1
     7     8     4    1
     8     4     3   ar
     9     7     9    1
    10     7     2   ar
    11     9    10    1
    12    10     1    1
    13     3     2   ar
