@<TRIPOS>MOLECULE
2xm8_B4W_A_1.pdb
 23 26 0 0 0
SMALL
GASTEIGER

@<TRIPOS>ATOM
      1  C01        7.7850  -47.6760    7.8100 C.2   1504  B4W1504    -0.0109
      2  C02        7.0170  -48.0850    8.8640 C.2   1504  B4W1504    -0.0036
      3  C03        7.6180  -48.4830   10.0610 C.2   1504  B4W1504     0.0020
      4  C04        9.0750  -48.4590   10.1830 C.2   1504  B4W1504     0.0293
      5  C05        9.8710  -48.0410    9.1080 C.2   1504  B4W1504     0.1332
      6  C06        9.2870  -47.6510    7.9350 C.3   1504  B4W1504     0.1442
      7  C07       10.1140  -47.2240    6.8330 C.2   1504  B4W1504     0.1987
      8  C08       12.0730  -47.5880    8.1100 C.1   1504  B4W1504     0.1417
      9  C09       13.5780  -47.5570    8.2140 C.ar  1504  B4W1504     0.1244
     10  C10       14.2890  -48.1090    9.4020 C.ar  1504  B4W1504     0.2069
     11  C11       15.6660  -48.0680    9.4640 C.ar  1504  B4W1504     0.0428
     12  C12       16.4040  -47.5150    8.4100 C.ar  1504  B4W1504     0.0033
     13  C13       15.7220  -46.9910    7.2700 C.ar  1504  B4W1504     0.0010
     14  C14       14.2890  -47.0300    7.2020 C.ar  1504  B4W1504     0.0153
     15  C15        9.2920  -45.8430    4.4850 C.3   1504  B4W1504     0.1135
     16  C16        9.0750  -44.3430    4.7610 C.3   1504  B4W1504     0.1103
     17  C17        8.3870  -44.8640    2.5120 C.3   1504  B4W1504     0.0906
     18  C18        8.3030  -46.1320    3.3590 C.3   1504  B4W1504     0.0419
     19  N19       11.2270  -48.0230    9.2360 N.2   1504  B4W1504    -0.3434
     20  N20       11.4960  -47.2120    6.9730 N.2   1504  B4W1504    -0.3269
     21  N21        9.5720  -46.7760    5.5660 N.pl3 1504  B4W1504    -0.2123
     22  N22        8.8490  -43.7590    3.4100 N.3   1504  B4W1504    -0.2162
     23  O23       13.5760  -48.6560   10.4460 O.3   1504  B4W1504    -0.2858
@<TRIPOS>BOND
     1    17    18    1
     2    17    22    1
     3    18    15    1
     4    22    16    1
     5    15    16    1
     6    15    21    1
     7    21     7    1
     8     7    20    2
     9     7     6    1
    10    20     8    2
    11    14    13   ar
    12    14     9   ar
    13    13    12   ar
    14     1     6    1
    15     1     2    2
    16     6     5    1
    17     8     9    1
    18     8    19    2
    19     9    10   ar
    20    12    11   ar
    21     2     3    1
    22     5    19    2
    23     5     4    1
    24    10    11   ar
    25    10    23    1
    26     3     4    2
