@<TRIPOS>MOLECULE
2xm9_LWH_A_1.pdb
 28 32 0 0 0
SMALL
GASTEIGER

@<TRIPOS>ATOM
      1  C01       45.5790  -19.1560   -7.4150 C.2   1513  LWH1513     0.0059
      2  C02       45.7400  -19.8170   -6.2050 C.2   1513  LWH1513    -0.0039
      3  C03       46.5890  -19.3150   -5.2410 C.2   1513  LWH1513    -0.0186
      4  C04       47.2880  -18.1440   -5.4820 C.3   1513  LWH1513     0.0860
      5  C05       47.1330  -17.4730   -6.6930 C.2   1513  LWH1513     0.1295
      6  C06       46.2800  -17.9740   -7.6610 C.2   1513  LWH1513     0.0729
      7  C07       46.1220  -17.3060   -8.8620 C.2   1513  LWH1513     0.2137
      8  C08       47.6680  -15.6860   -8.1130 C.1   1513  LWH1513     0.1421
      9  N09       46.8120  -16.1650   -9.0710 N.2   1513  LWH1513    -0.3230
     10  N10       47.8230  -16.3410   -6.9150 N.2   1513  LWH1513    -0.3437
     11  C11       44.9090  -16.9580  -11.0530 C.3   1513  LWH1513     0.1138
     12  C12       44.4110  -15.5600  -10.8190 C.3   1513  LWH1513     0.1103
     13  C13       43.7030  -16.3610  -12.8830 C.3   1513  LWH1513     0.0906
     14  C14       43.9800  -17.5610  -12.0530 C.3   1513  LWH1513     0.0419
     15  N15       45.2450  -17.7670   -9.9000 N.pl3 1513  LWH1513    -0.2092
     16  N16       43.4160  -15.3370  -11.8890 N.3   1513  LWH1513    -0.2162
     17  C17       48.3320  -14.3870   -8.4160 C.ar  1513  LWH1513     0.1244
     18  C18       49.0600  -13.7380   -7.4270 C.ar  1513  LWH1513     0.2069
     19  C19       49.5950  -12.4880   -7.7040 C.ar  1513  LWH1513     0.0428
     20  C20       49.3280  -11.8640   -8.9260 C.ar  1513  LWH1513     0.0046
     21  C21       48.5280  -12.4740   -9.8870 C.ar  1513  LWH1513     0.0166
     22  C22       47.9970  -13.7250   -9.6040 C.ar  1513  LWH1513     0.0165
     23  C23       48.2490  -11.7920  -11.1970 C.2   1513  LWH1513     0.0866
     24  C24       48.4050  -10.4200  -11.4750 C.3   1513  LWH1513     0.0964
     25  C25       48.0600  -10.1980  -12.7880 C.2   1513  LWH1513     0.1021
     26  N26       47.8180  -12.3810  -12.3630 N.2   1513  LWH1513    -0.1523
     27  N27       47.6980  -11.4360  -13.3340 N.2   1513  LWH1513    -0.1510
     28  O28       49.3090  -14.3780   -6.2320 O.3   1513  LWH1513    -0.2858
@<TRIPOS>BOND
     1    27    25    2
     2    27    26    1
     3    13    14    1
     4    13    16    1
     5    25    24    1
     6    26    23    2
     7    14    11    1
     8    16    12    1
     9    24    23    1
    10    23    21    1
    11    11    12    1
    12    11    15    1
    13    15     7    1
    14    21    22   ar
    15    21    20   ar
    16    22    17   ar
    17     9     7    2
    18     9     8    2
    19    20    19   ar
    20     7     6    1
    21    17     8    1
    22    17    18   ar
    23     8    10    2
    24    19    18   ar
    25     6     1    2
    26     6     5    1
    27    18    28    1
    28     1     2    1
    29    10     5    2
    30     5     4    1
    31     2     3    2
    32     4     3    1
