@<TRIPOS>MOLECULE
2xmb_FUL_A_1.pdb
 10 10 0 0 0
SMALL
GASTEIGER

@<TRIPOS>ATOM
      1  C1       -15.9160   -6.9410  -34.2930 C.3   1543  FUL1543     0.1776
      2  C2       -16.6770   -7.3480  -33.0710 C.3   1543  FUL1543     0.2141
      3  O2       -18.0600   -7.5550  -33.3040 O.3   1543  FUL1543    -0.2176
      4  C3       -15.9500   -8.6500  -32.9310 C.3   1543  FUL1543     0.2172
      5  O3       -16.6110   -9.3620  -31.9530 O.3   1543  FUL1543    -0.2175
      6  C4       -14.5440   -8.3320  -32.4830 C.3   1543  FUL1543     0.2116
      7  O4       -14.7010   -7.7910  -31.2050 O.3   1543  FUL1543    -0.2177
      8  C5       -13.8060   -7.2970  -33.3520 C.3   1543  FUL1543     0.1483
      9  C6       -12.8440   -6.5100  -32.4740 C.3   1543  FUL1543     0.0349
     10  O5       -14.6860   -6.3640  -33.9150 O.3   1543  FUL1543    -0.3508
@<TRIPOS>BOND
     1     1    10    1
     2     1     2    1
     3    10     8    1
     4     8     6    1
     5     8     9    1
     6     3     2    1
     7     2     4    1
     8     4     6    1
     9     4     5    1
    10     6     7    1
