@<TRIPOS>MOLECULE
2xmc_FUC_A_1.pdb
 10 10 0 0 0
SMALL
GASTEIGER

@<TRIPOS>ATOM
      1  C1         6.3360  -16.3960  -32.5490 C.3   1558  FUC1558     0.1776
      2  C2         6.7930  -17.1800  -31.2930 C.3   1558  FUC1558     0.2141
      3  O2         6.9280  -18.5660  -31.5080 O.3   1558  FUC1558    -0.2176
      4  C3         8.1280  -16.5070  -30.8630 C.3   1558  FUC1558     0.2172
      5  O3         8.8760  -17.1390  -29.7920 O.3   1558  FUC1558    -0.2175
      6  C4         7.7770  -15.0400  -30.5620 C.3   1558  FUC1558     0.2116
      7  O4         6.9780  -15.0570  -29.4020 O.3   1558  FUC1558    -0.2177
      8  C5         6.9910  -14.3190  -31.6870 C.3   1558  FUC1558     0.1483
      9  C6         6.5050  -12.9260  -31.2750 C.3   1558  FUC1558     0.0349
     10  O5         5.8820  -15.1140  -32.1200 O.3   1558  FUC1558    -0.3508
@<TRIPOS>BOND
     1     1    10    1
     2     1     2    1
     3    10     8    1
     4     8     9    1
     5     8     6    1
     6     3     2    1
     7     2     4    1
     8     4     6    1
     9     4     5    1
    10     6     7    1
