@<TRIPOS>MOLECULE
2xmd_FUC_A_1.pdb
 10 10 0 0 0
SMALL
GASTEIGER

@<TRIPOS>ATOM
      1  C1         1.2000   56.8470   35.9700 C.3   1565  FUC1565     0.1776
      2  C2         2.5250   57.0210   36.7240 C.3   1565  FUC1565     0.2141
      3  C3         3.5940   56.0370   36.2460 C.3   1565  FUC1565     0.2172
      4  C4         3.7430   56.0350   34.6980 C.3   1565  FUC1565     0.2116
      5  C5         2.3300   55.9860   34.0400 C.3   1565  FUC1565     0.1483
      6  C6         2.2500   56.0200   32.5220 C.3   1565  FUC1565     0.0349
      7  O2         2.3750   56.8040   38.1150 O.3   1565  FUC1565    -0.2176
      8  O3         4.7910   56.2370   37.0140 O.3   1565  FUC1565    -0.2175
      9  O4         4.6060   57.0600   34.2220 O.3   1565  FUC1565    -0.2177
     10  O5         1.4180   56.9360   34.5730 O.3   1565  FUC1565    -0.3508
@<TRIPOS>BOND
     1     6     5    1
     2     5    10    1
     3     5     4    1
     4     9     4    1
     5    10     1    1
     6     4     3    1
     7     1     2    1
     8     3     2    1
     9     3     8    1
    10     2     7    1
