@<TRIPOS>MOLECULE
2xmd_FUL_A_1.pdb
 10 10 0 0 0
SMALL
GASTEIGER

@<TRIPOS>ATOM
      1  C1        16.2370    6.6280   31.7720 C.3   1558  FUL1558     0.1776
      2  C2        17.0830    7.0980   32.9370 C.3   1558  FUL1558     0.2141
      3  O2        18.4260    7.2460   32.5400 O.3   1558  FUL1558    -0.2176
      4  C3        16.3650    8.3990   33.2730 C.3   1558  FUL1558     0.2172
      5  O3        16.9260    9.1690   34.3710 O.3   1558  FUL1558    -0.2175
      6  C4        14.8950    8.0090   33.4730 C.3   1558  FUL1558     0.2116
      7  O4        14.7920    7.2930   34.6770 O.3   1558  FUL1558    -0.2177
      8  C5        14.2700    7.0660   32.4360 C.3   1558  FUL1558     0.1483
      9  C6        12.8990    6.5350   32.8250 C.3   1558  FUL1558     0.0349
     10  O5        15.1230    5.9720   32.2840 O.3   1558  FUL1558    -0.3508
@<TRIPOS>BOND
     1     1    10    1
     2     1     2    1
     3    10     8    1
     4     8     9    1
     5     8     6    1
     6     3     2    1
     7     2     4    1
     8     4     6    1
     9     4     5    1
    10     6     7    1
