@<TRIPOS>MOLECULE
2xmf_DIA_A_1.pdb
 10 9 0 0 0
SMALL
GASTEIGER

@<TRIPOS>ATOM
      1  N1        17.8700   27.1470   -4.8090 N.3   1055  DIA1055    -0.1314
      2  C1        16.9340   26.8980   -3.7000 C.3   1055  DIA1055     0.1093
      3  C2        16.2970   28.2140   -3.2500 C.3   1055  DIA1055     0.0205
      4  C3        15.0200   27.9450   -2.4540 C.3   1055  DIA1055     0.0015
      5  C4        15.1500   28.5250   -1.0460 C.3   1055  DIA1055     0.0000
      6  C5        15.5090   27.4530   -0.0100 C.3   1055  DIA1055     0.0000
      7  C6        15.1870   27.9080    1.4200 C.3   1055  DIA1055     0.0015
      8  C7        16.3940   27.7800    2.3660 C.3   1055  DIA1055     0.0205
      9  C8        16.1250   28.5070    3.6920 C.3   1055  DIA1055     0.1093
     10  N8        17.3040   28.4050    4.5680 N.3   1055  DIA1055    -0.1314
@<TRIPOS>BOND
     1     1     2    1
     2     2     3    1
     3     3     4    1
     4     4     5    1
     5     5     6    1
     6     6     7    1
     7     7     8    1
     8     8     9    1
     9     9    10    1
