@<TRIPOS>MOLECULE
2xmg_FUL_A_1.pdb
 10 10 0 0 0
SMALL
GASTEIGER

@<TRIPOS>ATOM
      1  C1         6.2830  -16.5050  -32.8590 C.3   1548  FUL1548     0.1776
      2  C2         6.5910  -17.1150  -31.4690 C.3   1548  FUL1548     0.2141
      3  O2         6.7420  -18.5210  -31.4010 O.3   1548  FUL1548    -0.2176
      4  C3         7.8480  -16.3330  -31.0540 C.3   1548  FUL1548     0.2172
      5  O3         8.5420  -16.8610  -29.9380 O.3   1548  FUL1548    -0.2175
      6  C4         7.4010  -14.8810  -30.8560 C.3   1548  FUL1548     0.2116
      7  O4         6.3410  -14.8590  -29.9360 O.3   1548  FUL1548    -0.2177
      8  C5         6.8110  -14.3420  -32.1710 C.3   1548  FUL1548     0.1483
      9  C6         6.3200  -12.8930  -32.1130 C.3   1548  FUL1548     0.0349
     10  O5         5.7450  -15.2040  -32.5870 O.3   1548  FUL1548    -0.3508
@<TRIPOS>BOND
     1     1    10    1
     2     1     2    1
     3    10     8    1
     4     8     9    1
     5     8     6    1
     6     2     3    1
     7     2     4    1
     8     4     6    1
     9     4     5    1
    10     6     7    1
