@<TRIPOS>MOLECULE
2xmi_FLC_A_1.pdb
 13 12 0 0 0
SMALL
GASTEIGER

@<TRIPOS>ATOM
      1  CAC       -7.1070   -5.2530   26.3570 C.2   1379  FLC1379     0.3680
      2  CA        -7.6770   -4.6320   25.0980 C.3   1379  FLC1379     0.1560
      3  CB        -7.9180   -5.6800   24.0140 C.3   1379  FLC1379     0.2402
      4  CBC       -6.5910   -6.3270   23.6800 C.2   1379  FLC1379     0.3927
      5  CG        -8.5500   -5.0250   22.7810 C.3   1379  FLC1379     0.1560
      6  CGC       -8.6830   -5.9310   21.5650 C.2   1379  FLC1379     0.3680
      7  OA1       -6.2590   -6.1640   26.2590 O.co2 1379  FLC1379    -0.2455
      8  OA2       -7.4940   -4.8210   27.4650 O.co2 1379  FLC1379    -0.2455
      9  OB1       -6.4130   -7.5440   23.9200 O.co2 1379  FLC1379    -0.2429
     10  OB2       -5.7120   -5.6150   23.1620 O.co2 1379  FLC1379    -0.2429
     11  OG1       -9.7010   -5.8160   20.8360 O.co2 1379  FLC1379    -0.2455
     12  OG2       -7.7680   -6.7420   21.2990 O.co2 1379  FLC1379    -0.2455
     13  OHB       -8.8140   -6.6600   24.5500 O.3   1379  FLC1379    -0.2129
@<TRIPOS>BOND
     1    11     6   ar
     2    12     6   ar
     3     6     5    1
     4     5     3    1
     5    10     4   ar
     6     4     9   ar
     7     4     3    1
     8     3    13    1
     9     3     2    1
    10     2     1    1
    11     7     1   ar
    12     1     8   ar
