@<TRIPOS>MOLECULE
2xml_OGA_A_1.pdb
 10 9 0 0 0
SMALL
GASTEIGER

@<TRIPOS>ATOM
      1  C1        49.5660   24.4520   52.1000 C.2   601  OGA601      0.4419
      2  C2        51.0280   24.3650   51.7440 C.2   601  OGA601      0.3455
      3  C4        52.9230   25.1880   50.5010 C.3   601  OGA601      0.2290
      4  C5        53.3010   26.4540   49.7230 C.2   601  OGA601      0.3866
      5  O1        49.0320   23.6760   52.9270 O.co2 601  OGA601     -0.2354
      6  O2        48.9020   25.3920   51.4910 O.co2 601  OGA601     -0.2354
      7  O2'       51.8030   23.4540   52.3600 O.2   601  OGA601     -0.2611
      8  O3        54.3050   27.0880   50.1310 O.co2 601  OGA601     -0.2437
      9  N1        51.5340   25.2170   50.8840 N.am  601  OGA601     -0.1838
     10  O4        52.5650   26.7690   48.7500 O.co2 601  OGA601     -0.2437
@<TRIPOS>BOND
     1    10     4   ar
     2     4     8   ar
     3     4     3    1
     4     3     9    1
     5     9     2   am
     6     6     1   ar
     7     2     1    1
     8     2     7    2
     9     1     5   ar
