@<TRIPOS>MOLECULE
2xmp_UDP_A_1.pdb
 25 26 0 0 0
SMALL
GASTEIGER

@<TRIPOS>ATOM
      1  N1        35.7490    2.7320  105.3120 N.am  7517  UDP7517    -0.1766
      2  C2        37.0400    3.0110  104.8600 C.1   7517  UDP7517     0.2845
      3  N3        37.5700    2.2820  103.8350 N.2   7517  UDP7517    -0.2452
      4  C4        36.8510    1.2730  103.2360 C.1   7517  UDP7517     0.2182
      5  C5        35.5300    0.9740  103.6800 C.2   7517  UDP7517     0.1242
      6  C6        35.0090    1.7050  104.7030 C.2   7517  UDP7517     0.0929
      7  O2        37.7190    3.8960  105.3650 O.2   7517  UDP7517    -0.1918
      8  O4        37.3360    0.6340  102.3290 O.2   7517  UDP7517    -0.2085
      9  C1'       35.1260    3.4980  106.4410 C.3   7517  UDP7517     0.2401
     10  C2'       34.9730    5.0070  106.1580 C.3   7517  UDP7517     0.2319
     11  O2'       35.7690    5.7440  107.0840 O.3   7517  UDP7517    -0.2157
     12  C3'       33.4800    5.3290  106.3020 C.3   7517  UDP7517     0.2158
     13  C4'       32.7840    4.0120  106.6530 C.3   7517  UDP7517     0.1799
     14  O4'       33.7970    2.9730  106.7770 O.3   7517  UDP7517    -0.3320
     15  O3'       33.2700    6.2830  107.3490 O.3   7517  UDP7517    -0.2175
     16  C5'       31.7610    3.6680  105.5590 C.3   7517  UDP7517     0.1813
     17  O5'       31.1050    2.4320  105.8570 O.3   7517  UDP7517    -0.3111
     18  PA        30.0330    2.1180  104.6720 P.3   7517  UDP7517     0.2231
     19  O1A       29.0040    3.1910  104.6490 O.3   7517  UDP7517    -0.4370
     20  O2A       30.7880    2.0560  103.2450 O.2   7517  UDP7517    -0.5169
     21  O3A       29.3210    0.6880  105.0110 O.3   7517  UDP7517    -0.2261
     22  PB        28.2420    0.2850  103.8610 P.3   7517  UDP7517     0.5373
     23  O1B       28.9080    0.1790  102.5410 O.2   7517  UDP7517    -0.2221
     24  O2B       27.5710   -1.1290  104.2380 O.3   7517  UDP7517    -0.1143
     25  O3B       27.0890    1.4040  103.7870 O.3   7517  UDP7517    -0.1143
@<TRIPOS>BOND
     1     8     4    2
     2    23    22    2
     3     4     5    1
     4     4     3    2
     5    20    18    2
     6     5     6    2
     7    25    22    1
     8     3     2    2
     9    22    24    1
    10    22    21    1
    11    19    18    1
    12    18    21    1
    13    18    17    1
    14     6     1    1
    15     2     1   am
    16     2     7    2
    17     1     9    1
    18    16    17    1
    19    16    13    1
    20    10    12    1
    21    10     9    1
    22    10    11    1
    23    12    13    1
    24    12    15    1
    25     9    14    1
    26    13    14    1
