@<TRIPOS>MOLECULE
2xmy_CDK_A_1.pdb
 29 31 0 0 0
SMALL
GASTEIGER

@<TRIPOS>ATOM
      1  C17       29.4980   31.1520   26.4930 C.3   500  CDK500      0.0507
      2  C16       28.6540   30.1220   25.7410 C.ar  500  CDK500      0.0493
      3  N4        29.1410   29.3670   24.7430 N.ar  500  CDK500     -0.2914
      4  C13       30.5450   29.4560   24.2860 C.3   500  CDK500      0.1338
      5  C14       28.2630   28.5150   24.1930 C.ar  500  CDK500      0.2921
      6  O3        28.5090   27.7220   23.2860 O.2   500  CDK500     -0.2594
      7  S1        26.7570   28.6600   24.9740 S.2   500  CDK500     -0.0237
      8  C15       27.3150   29.8520   26.0450 C.ar  500  CDK500      0.0761
      9  C         26.5150   30.4950   26.9850 C.2   500  CDK500      0.1529
     10  N         25.5090   29.8410   27.5940 N.2   500  CDK500     -0.3356
     11  C12       26.7310   31.8440   27.2430 C.2   500  CDK500      0.0551
     12  C11       25.9060   32.4940   28.1460 C.2   500  CDK500      0.1144
     13  N3        24.9240   31.8210   28.7180 N.2   500  CDK500     -0.1683
     14  C1        24.7120   30.5280   28.4380 C.1   500  CDK500      0.1697
     15  N1        23.7130   29.9770   29.1090 N.pl3 500  CDK500     -0.1358
     16  C2        23.1060   28.8330   28.8340 C.ar  500  CDK500      0.0827
     17  C9        22.1780   28.4250   29.7840 C.ar  500  CDK500      0.0187
     18  C10       21.4380   27.2680   29.6190 C.ar  500  CDK500      0.0213
     19  C3        23.2980   28.0950   27.6740 C.ar  500  CDK500      0.0187
     20  C4        22.5450   26.9330   27.4920 C.ar  500  CDK500      0.0213
     21  C5        21.6290   26.5230   28.4640 C.ar  500  CDK500      0.1236
     22  S         20.6350   25.0970   28.2840 S.O2  500  CDK500      0.0769
     23  O1        19.4840   25.4450   27.3850 O.2   500  CDK500     -0.1516
     24  O2        20.0620   24.7470   29.6370 O.2   500  CDK500     -0.1516
     25  N2        21.4760   23.8290   27.6680 N.3   500  CDK500     -0.0751
     26  C6        20.6200   22.6290   27.6210 C.3   500  CDK500      0.1474
     27  C7        20.7430   21.8030   28.9100 C.3   500  CDK500      0.1630
     28  O         19.6010   21.9430   29.7940 O.3   500  CDK500     -0.3495
     29  C8        19.2510   20.6700   30.3310 C.3   500  CDK500      0.1742
@<TRIPOS>BOND
     1     6     5    2
     2     5     3   ar
     3     5     7   ar
     4     4     3    1
     5     3     2   ar
     6     7     8   ar
     7     2     8   ar
     8     2     1    1
     9     8     9    1
    10     9    11    1
    11     9    10    2
    12    11    12    2
    13    23    22    2
    14    20    19   ar
    15    20    21   ar
    16    10    14    2
    17    26    25    1
    18    26    27    1
    19    25    22    1
    20    19    16   ar
    21    12    13    1
    22    22    21    1
    23    22    24    2
    24    14    13    2
    25    14    15    1
    26    21    18   ar
    27    16    15    1
    28    16    17   ar
    29    27    28    1
    30    18    17   ar
    31    28    29    1
