@<TRIPOS>MOLECULE
2xn2_GLA_A_1.pdb
 24 24 0 0 0
SMALL
GASTEIGER

@<TRIPOS>ATOM
      1  C1        30.1460   56.9190  -25.1880 C.3   1733  GLA1733     0.1854
      2  C2        30.1070   55.6690  -24.4140 C.3   1733  GLA1733     0.1339
      3  C3        31.3500   55.5400  -23.6860 C.3   1733  GLA1733     0.1141
      4  C4        32.5120   55.6890  -24.6060 C.3   1733  GLA1733     0.1119
      5  C5        32.4100   56.7440  -25.6250 C.3   1733  GLA1733     0.1130
      6  C6        33.5420   56.8630  -26.6090 C.3   1733  GLA1733     0.0730
      7  O1        29.8630   58.1030  -24.4170 O.3   1733  GLA1733    -0.3649
      8  O2        28.8890   55.4710  -23.7770 O.3   1733  GLA1733    -0.3841
      9  O3        31.3780   54.4150  -22.8400 O.3   1733  GLA1733    -0.3864
     10  O4        32.6140   54.4920  -25.3310 O.3   1733  GLA1733    -0.3865
     11  O5        31.1300   56.9880  -26.1610 O.3   1733  GLA1733    -0.3407
     12  O6        33.5060   57.9630  -27.3860 O.3   1733  GLA1733    -0.3924
     13  H1        29.2520   56.8280  -25.8030 H     1733  GLA1733     0.0935
     14  H2        30.1150   54.8660  -25.1450 H     1733  GLA1733     0.0671
     15  H3        31.3970   56.3630  -22.9840 H     1733  GLA1733     0.0648
     16  H4        33.4010   55.8790  -24.0150 H     1733  GLA1733     0.0647
     17  H5        32.5760   57.6410  -25.0310 H     1733  GLA1733     0.0647
     18  H61       34.3830   56.8460  -26.1220 H     1733  GLA1733     0.0584
     19  H62       33.5080   56.0890  -27.1970 H     1733  GLA1733     0.0584
     20  HO1       29.3040   58.6250  -24.8680 H     1733  GLA1733     0.2126
     21  HO2       28.4760   54.7720  -24.1370 H     1733  GLA1733     0.2101
     22  HO3       31.3780   54.6810  -21.9930 H     1733  GLA1733     0.2100
     23  HO4       33.0890   53.9010  -24.8660 H     1733  GLA1733     0.2100
     24  HO6       34.2400   57.9980  -27.8840 H     1733  GLA1733     0.2095
@<TRIPOS>BOND
     1    24    12    1
     2    12     6    1
     3    19     6    1
     4     6    18    1
     5     6     5    1
     6    11     5    1
     7    11     1    1
     8    13     1    1
     9     5    17    1
    10     5     4    1
    11    10    23    1
    12    10     4    1
    13     1     7    1
    14     1     2    1
    15    14     2    1
    16    20     7    1
    17     4    16    1
    18     4     3    1
    19     2     8    1
    20     2     3    1
    21    21     8    1
    22     3    15    1
    23     3     9    1
    24     9    22    1
