@<TRIPOS>MOLECULE
2xn3_ID8_A_1.pdb
 18 19 0 0 0
SMALL
GASTEIGER

@<TRIPOS>ATOM
      1  O16        6.0940    9.1420   24.4630 O.co2 1356  ID81356    -0.2405
      2  C14        7.2800    8.8240   24.1930 C.2   1356  ID81356     0.3890
      3  O15        7.9380    9.4860   23.3460 O.co2 1356  ID81356    -0.2405
      4  C13        7.8990    7.6110   24.8790 C.ar  1356  ID81356     0.0950
      5  C12        7.5470    7.3300   26.2040 C.ar  1356  ID81356     0.0079
      6  C11        8.0800    6.2250   26.8630 C.ar  1356  ID81356     0.0003
      7  C10        8.9730    5.3730   26.2180 C.ar  1356  ID81356     0.0013
      8  C9         9.3570    5.6020   24.8910 C.ar  1356  ID81356     0.0167
      9  C8         8.8440    6.6860   24.1460 C.ar  1356  ID81356     0.0768
     10  N7         9.1490    7.0030   22.8290 N.pl3 1356  ID81356    -0.2126
     11  C6        10.1880    6.3630   22.2280 C.ar  1356  ID81356     0.0662
     12  C1        10.2050    4.8730   22.0330 C.ar  1356  ID81356    -0.0105
     13  C17        8.9630    4.0280   22.2160 C.3   1356  ID81356     0.0321
     14  C5        11.3940    7.0550   22.0700 C.ar  1356  ID81356     0.0162
     15  C4        12.5730    6.4060   21.6740 C.ar  1356  ID81356     0.0010
     16  C3        12.6250    5.0290   21.4500 C.ar  1356  ID81356    -0.0045
     17  C2        11.4900    4.2360   21.6170 C.ar  1356  ID81356    -0.0245
     18  C18       11.5790    2.7520   21.3690 C.3   1356  ID81356     0.0307
@<TRIPOS>BOND
     1    18    17    1
     2    16    17   ar
     3    16    15   ar
     4    17    12   ar
     5    15    14   ar
     6    12    13    1
     7    12    11   ar
     8    14    11   ar
     9    11    10    1
    10    10     9    1
    11     3     2   ar
    12     9     4   ar
    13     9     8   ar
    14     2     1   ar
    15     2     4    1
    16     4     5   ar
    17     8     7   ar
    18     5     6   ar
    19     7     6   ar
