@<TRIPOS>MOLECULE
2xn5_FUN_A_1.pdb
 21 22 0 0 0
SMALL
GASTEIGER

@<TRIPOS>ATOM
      1  N1       -13.4550  -16.2240    8.7700 N.3   1356  FUN1356     0.0392
      2  S1       -12.8680  -17.1600    7.7040 S.O2  1356  FUN1356     0.0943
      3  O1       -12.5820  -18.4340    8.3890 O.2   1356  FUN1356    -0.1503
      4  O2       -13.8290  -17.3080    6.6020 O.2   1356  FUN1356    -0.1503
      5  C1       -11.4940  -16.4860    7.1550 C.ar  1356  FUN1356     0.1358
      6  C2       -11.4840  -15.4150    6.2670 C.ar  1356  FUN1356     0.0776
      7 CL1       -12.9700  -14.6510    5.6370 Cl    1356  FUN1356    -0.0808
      8  C3       -10.2950  -14.8550    5.8130 C.ar  1356  FUN1356     0.0291
      9  C4        -9.0590  -15.3520    6.2260 C.ar  1356  FUN1356     0.0731
     10  N2        -7.8990  -14.7940    5.7840 N.pl3 1356  FUN1356    -0.2292
     11  C5        -7.8170  -13.6250    4.9220 C.3   1356  FUN1356     0.1762
     12  C6        -7.9260  -13.9630    3.4530 C.ar  1356  FUN1356     0.1448
     13  C7        -8.3780  -15.1480    2.8900 C.ar  1356  FUN1356     0.0380
     14  C8        -8.3170  -15.0250    1.5160 C.ar  1356  FUN1356     0.0435
     15  C9        -7.8310  -13.7690    1.2320 C.ar  1356  FUN1356     0.1792
     16  O3        -7.5960  -13.1220    2.4260 O.2   1356  FUN1356    -0.4529
     17  C10       -9.0430  -16.4340    7.1210 C.ar  1356  FUN1356     0.0960
     18  C11      -10.2560  -16.9810    7.5650 C.ar  1356  FUN1356     0.0288
     19  C12       -7.7600  -17.0170    7.6540 C.2   1356  FUN1356     0.3890
     20  O4        -7.7810  -17.8170    8.6330 O.co2 1356  FUN1356    -0.2405
     21  O5        -6.6770  -16.6440    7.1500 O.co2 1356  FUN1356    -0.2405
@<TRIPOS>BOND
     1    15    14   ar
     2    15    16   ar
     3    14    13   ar
     4    16    12   ar
     5    13    12   ar
     6    12    11    1
     7    11    10    1
     8     7     6    1
     9    10     9    1
    10     8     9   ar
    11     8     6   ar
    12     9    17   ar
    13     6     5   ar
    14     4     2    2
    15    17    18   ar
    16    17    19    1
    17    21    19   ar
    18     5    18   ar
    19     5     2    1
    20    19    20   ar
    21     2     3    2
    22     2     1    1
