@<TRIPOS>MOLECULE
2xn6_T44_A_1.pdb
 24 25 0 0 0
SMALL
GASTEIGER

@<TRIPOS>ATOM
      1  C1        -6.7550   -8.9210   25.3190 C.ar  1370  T441370    -0.0191
      2  C2        -7.5040   -9.3800   24.2400 C.ar  1370  T441370     0.0047
      3  C3        -8.6220   -8.6770   23.8110 C.ar  1370  T441370     0.0647
      4  C4        -9.0150   -7.5170   24.4670 C.ar  1370  T441370     0.1558
      5  C5        -8.2730   -7.0610   25.5500 C.ar  1370  T441370     0.0647
      6  C6        -7.1480   -7.7610   25.9820 C.ar  1370  T441370     0.0047
      7  C7        -5.5490   -9.7090   25.7810 C.3   1370  T441370     0.0570
      8  C8        -4.2610   -9.4740   24.9960 C.3   1370  T441370     0.1986
      9  C9        -4.4630   -9.5090   23.5040 C.2   1370  T441370     0.3822
     10  C1'      -10.0300   -5.9310   22.9820 C.ar  1370  T441370     0.1464
     11  C2'       -8.8090   -5.3840   22.5710 C.ar  1370  T441370     0.0465
     12  C3'       -8.7540   -4.4990   21.4940 C.ar  1370  T441370     0.0724
     13  C4'       -9.9170   -4.1500   20.8170 C.ar  1370  T441370     0.2064
     14  C5'      -11.1300   -4.6920   21.2200 C.ar  1370  T441370     0.0724
     15  C6'      -11.1900   -5.5790   22.2950 C.ar  1370  T441370     0.0465
     16  N8        -3.6290   -8.2450   25.4550 N.3   1370  T441370    -0.1205
     17  O4       -10.1170   -6.8120   24.0390 O.3   1370  T441370    -0.4526
     18  O4'       -9.8750   -3.2830   19.7600 O.3   1370  T441370    -0.2857
     19  O9        -4.7360   -8.4540   22.8940 O.co2 1370  T441370    -0.2440
     20  O10       -4.3420  -10.6100   22.9240 O.co2 1370  T441370    -0.2440
     21  I3        -9.6920   -9.4250   22.1840 I     1370  T441370    -0.0393
     22  I3'       -6.9110   -3.7130   20.9120 I     1370  T441370    -0.0391
     23  I5        -8.8350   -5.3190   26.5510 I     1370  T441370    -0.0393
     24  I5'      -12.8760   -4.1700   20.2080 I     1370  T441370    -0.0391
@<TRIPOS>BOND
     1    18    13    1
     2    24    14    1
     3    13    14   ar
     4    13    12   ar
     5    22    12    1
     6    14    15   ar
     7    12    11   ar
     8    21     3    1
     9    15    10   ar
    10    11    10   ar
    11    19     9   ar
    12    20     9   ar
    13    10    17    1
    14     9     8    1
    15     3     2   ar
    16     3     4   ar
    17    17     4    1
    18     2     1   ar
    19     4     5   ar
    20     8    16    1
    21     8     7    1
    22     1     7    1
    23     1     6   ar
    24     5     6   ar
    25     5    23    1
