@<TRIPOS>MOLECULE
2xn6_F6Y_A_1.pdb
 27 31 0 0 0
SMALL
GASTEIGER

@<TRIPOS>ATOM
      1  O1         1.5040  -13.4860   24.5790 O.2   1369  F6Y1369    -0.2449
      2  C1         0.9710  -12.5370   24.0270 C.2   1369  F6Y1369     0.3417
      3  C2         0.1410  -11.4820   24.6610 C.ar  1369  F6Y1369     0.0756
      4  C3        -0.2220  -11.2950   25.9880 C.ar  1369  F6Y1369     0.0064
      5  C4        -1.0250  -10.1910   26.2900 C.ar  1369  F6Y1369     0.0035
      6  O2         1.0310  -12.2380   22.6030 O.3   1369  F6Y1369    -0.4397
      7  C5         0.2610  -11.0520   22.3190 C.3   1369  F6Y1369     0.1981
      8  C6         1.1310   -9.9570   21.7620 C.ar  1369  F6Y1369     0.0564
      9  C7         2.4760   -9.8550   22.1220 C.ar  1369  F6Y1369     0.0060
     10  C8         3.2640   -8.8320   21.5970 C.ar  1369  F6Y1369     0.0420
     11  C9         2.7100   -7.9070   20.7150 C.ar  1369  F6Y1369     0.1988
     12  O3         3.4780   -6.9060   20.2010 O.3   1369  F6Y1369    -0.2865
     13  C11        1.3680   -8.0070   20.3580 C.ar  1369  F6Y1369     0.0793
     14  C12        0.5820   -9.0290   20.8840 C.ar  1369  F6Y1369     0.1483
     15  O4        -0.7400   -9.1280   20.5290 O.3   1369  F6Y1369    -0.4537
     16  C13       -1.3560  -10.3550   20.5440 C.ar  1369  F6Y1369     0.1483
     17  C14       -2.4300  -10.6010   19.6920 C.ar  1369  F6Y1369     0.0793
     18  C15       -3.0580  -11.8440   19.7030 C.ar  1369  F6Y1369     0.1988
     19  O5        -4.1080  -12.0840   18.8700 O.3   1369  F6Y1369    -0.2865
     20  C16       -2.6070  -12.8400   20.5670 C.ar  1369  F6Y1369     0.0420
     21  C17       -1.5310  -12.5930   21.4190 C.ar  1369  F6Y1369     0.0060
     22  C18       -0.8990  -11.3480   21.4060 C.ar  1369  F6Y1369     0.0564
     23  C19       -0.2580  -10.6330   23.6660 C.ar  1369  F6Y1369     0.0281
     24  C20       -1.0580   -9.5330   23.9500 C.ar  1369  F6Y1369     0.0032
     25  C21       -1.4350   -9.3120   25.2770 C.ar  1369  F6Y1369     0.0420
     26  C22       -2.3080   -8.1350   25.6080 C.2   1369  F6Y1369     0.2341
     27  O6        -1.8010   -7.1010   26.0110 O.2   1369  F6Y1369    -0.2831
@<TRIPOS>BOND
     1    19    18    1
     2    17    18   ar
     3    17    16   ar
     4    18    20   ar
     5    12    11    1
     6    13    11   ar
     7    13    14   ar
     8    15    16    1
     9    15    14    1
    10    16    22   ar
    11    20    21   ar
    12    11    10   ar
    13    14     8   ar
    14    22    21   ar
    15    22     7    1
    16    10     9   ar
    17     8     9   ar
    18     8     7    1
    19     7     6    1
    20     7    23    1
    21     6     2    1
    22    23    24   ar
    23    23     3   ar
    24    24    25   ar
    25     2     1    2
    26     2     3    1
    27     3     4   ar
    28    25    26    1
    29    25     5   ar
    30    26    27    2
    31     4     5   ar
