@<TRIPOS>MOLECULE
2xn7_F6Z_A_1.pdb
 27 31 0 0 0
SMALL
GASTEIGER

@<TRIPOS>ATOM
      1  O1        -0.9850   -7.1080   -0.2100 O.2   1356  F6Z1356    -0.2449
      2  C1        -0.7270   -7.3450    0.9590 C.2   1356  F6Z1356     0.3417
      3  C2        -1.1620   -8.5180    1.7640 C.ar  1356  F6Z1356     0.0757
      4  C3        -1.7660   -9.7060    1.3880 C.ar  1356  F6Z1356     0.0095
      5  C4        -2.0400  -10.6440    2.3750 C.ar  1356  F6Z1356     0.0424
      6  O2         0.0680   -6.5010    1.8400 O.3   1356  F6Z1356    -0.4397
      7  C5        -0.1710   -6.9020    3.2060 C.3   1356  F6Z1356     0.1981
      8  C6        -0.9890   -5.8290    3.8600 C.ar  1356  F6Z1356     0.0564
      9  C7        -2.3100   -5.6570    3.4950 C.ar  1356  F6Z1356     0.0060
     10  C8        -3.0680   -4.6560    4.0890 C.ar  1356  F6Z1356     0.0420
     11  C9        -2.5290   -3.8040    5.0450 C.ar  1356  F6Z1356     0.1988
     12  O3        -3.3300   -2.8420    5.5860 O.3   1356  F6Z1356    -0.2865
     13  C11       -1.1970   -3.9280    5.4380 C.ar  1356  F6Z1356     0.0793
     14  C12       -0.3950   -4.9150    4.8730 C.ar  1356  F6Z1356     0.1483
     15  O4         0.9180   -5.0520    5.2490 O.3   1356  F6Z1356    -0.4537
     16  C13        1.5510   -6.2520    5.0450 C.ar  1356  F6Z1356     0.1483
     17  C14        2.6760   -6.6130    5.7770 C.ar  1356  F6Z1356     0.0793
     18  C15        3.2880   -7.8440    5.5420 C.ar  1356  F6Z1356     0.1988
     19  O5         4.3870   -8.2080    6.2520 O.3   1356  F6Z1356    -0.2865
     20  C16        2.8030   -8.7300    4.5870 C.ar  1356  F6Z1356     0.0420
     21  C17        1.6840   -8.4150    3.8330 C.ar  1356  F6Z1356     0.0060
     22  C18        1.0490   -7.1960    4.0180 C.ar  1356  F6Z1356     0.0564
     23  C19       -0.8480   -8.2440    3.0600 C.ar  1356  F6Z1356     0.0280
     24  C20       -1.1010   -9.1720    4.0600 C.ar  1356  F6Z1356     0.0000
     25  C21       -1.7130  -10.3760    3.7070 C.ar  1356  F6Z1356     0.0031
     26  O6        -2.5710  -12.4490    0.9120 O.2   1356  F6Z1356    -0.2831
     27  C25       -2.6950  -11.9440    2.0180 C.2   1356  F6Z1356     0.2342
@<TRIPOS>BOND
     1     1     2    2
     2    26    27    2
     3     2     3    1
     4     2     6    1
     5     4     3   ar
     6     4     5   ar
     7     3    23   ar
     8     6     7    1
     9    27     5    1
    10     5    25   ar
    11    23     7    1
    12    23    24   ar
    13     7     8    1
    14     7    22    1
    15     9     8   ar
    16     9    10   ar
    17    25    24   ar
    18    21    22   ar
    19    21    20   ar
    20     8    14   ar
    21    22    16   ar
    22    10    11   ar
    23    20    18   ar
    24    14    15    1
    25    14    13   ar
    26    16    15    1
    27    16    17   ar
    28    11    13   ar
    29    11    12    1
    30    18    17   ar
    31    18    19    1
