@<TRIPOS>MOLECULE
2xn7_T44_A_1.pdb
 24 25 0 0 0
SMALL
GASTEIGER

@<TRIPOS>ATOM
      1  C1        -6.7570  -12.2210    2.9710 C.ar  1355  T441355    -0.0191
      2  C2        -7.4830  -11.7160    4.0460 C.ar  1355  T441355     0.0047
      3  C3        -8.6170  -12.3690    4.4990 C.ar  1355  T441355     0.0647
      4  C4        -9.0580  -13.6040    3.8310 C.ar  1355  T441355     0.1558
      5  C5        -8.2660  -14.0890    2.6900 C.ar  1355  T441355     0.0647
      6  C6        -7.1400  -13.3780    2.2900 C.ar  1355  T441355     0.0047
      7  C7        -5.5370  -11.4720    2.4970 C.3   1355  T441355     0.0570
      8  C8        -4.3530  -11.4890    3.4520 C.3   1355  T441355     0.1986
      9  C9        -4.7250  -11.6620    4.8940 C.2   1355  T441355     0.3822
     10  C1'      -10.1100  -15.1580    5.2920 C.ar  1355  T441355     0.1464
     11  C2'      -11.2940  -15.5150    5.9220 C.ar  1355  T441355     0.0465
     12  C3'      -11.2840  -16.4080    6.9880 C.ar  1355  T441355     0.0724
     13  C4'      -10.0140  -16.9880    7.4590 C.ar  1355  T441355     0.2064
     14  C5'       -8.7930  -16.5770    6.7560 C.ar  1355  T441355     0.0724
     15  C6'       -8.8770  -15.6740    5.6960 C.ar  1355  T441355     0.0465
     16  N8        -3.4590  -12.5510    2.9770 N.3   1355  T441355    -0.1205
     17  O4       -10.1730  -14.2770    4.2440 O.3   1355  T441355    -0.4526
     18  O4'       -9.9820  -17.8670    8.5040 O.3   1355  T441355    -0.2857
     19  O9        -5.1090  -12.7790    5.2980 O.co2 1355  T441355    -0.2440
     20  O10       -4.6190  -10.6580    5.6320 O.co2 1355  T441355    -0.2440
     21  I3        -9.7130  -11.6390    6.1100 I     1355  T441355    -0.0393
     22  I3'      -13.0340  -16.9680    7.9560 I     1355  T441355    -0.0391
     23  I5        -8.8980  -15.8350    1.7470 I     1355  T441355    -0.0393
     24  I5'       -6.9900  -17.3830    7.4180 I     1355  T441355    -0.0391
@<TRIPOS>BOND
     1    23     5    1
     2     6     5   ar
     3     6     1   ar
     4     7     1    1
     5     7     8    1
     6     5     4   ar
     7     1     2   ar
     8    16     8    1
     9     8     9    1
    10     4    17    1
    11     4     3   ar
    12     2     3   ar
    13    17    10    1
    14     3    21    1
    15     9    19   ar
    16     9    20   ar
    17    10    15   ar
    18    10    11   ar
    19    15    14   ar
    20    11    12   ar
    21    14    24    1
    22    14    13   ar
    23    12    13   ar
    24    12    22    1
    25    13    18    1
