@<TRIPOS>MOLECULE
2xn8_HEM_A_1.pdb
 43 50 0 0 0
SMALL
GASTEIGER

@<TRIPOS>ATOM
      1  CHA       15.4120   -9.5720   -9.7830 C.2   1434  HEM1434     0.0000
      2  CHB       11.4060   -7.9740   -7.5440 C.2   1434  HEM1434     0.0000
      3  CHC       13.4530   -3.5850   -7.0230 C.2   1434  HEM1434     0.0000
      4  CHD       17.3620   -5.0860   -9.5190 C.2   1434  HEM1434     0.0000
      5  C1A       14.1810   -9.5030   -9.1860 C.2   1434  HEM1434     0.0000
      6  C2A       13.2230  -10.5950   -9.1190 C.2   1434  HEM1434     0.0000
      7  C3A       12.1010  -10.1220   -8.4980 C.2   1434  HEM1434     0.0000
      8  C4A       12.3360   -8.7590   -8.1490 C.2   1434  HEM1434     0.0000
      9  CMA       10.8020  -10.9110   -8.1950 C.3   1434  HEM1434     0.0000
     10  CAA       13.4330  -12.0650   -9.6580 C.3   1434  HEM1434     0.0000
     11  CBA       13.7550  -12.8840   -8.4180 C.3   1434  HEM1434     0.0000
     12  CGA       13.9010  -14.3730   -8.7480 C.2   1434  HEM1434     0.0000
     13  O1A       13.7040  -14.7970   -9.9420 O.co2 1434  HEM1434     0.0000
     14  O2A       14.1970  -15.1060   -7.7490 O.co2 1434  HEM1434     0.0000
     15  C1B       11.5920   -6.6430   -7.2490 C.ar  1434  HEM1434     0.0000
     16  C2B       10.6410   -5.8140   -6.5490 C.ar  1434  HEM1434     0.0000
     17  C3B       11.1920   -4.5820   -6.4190 C.ar  1434  HEM1434     0.0000
     18  C4B       12.5250   -4.6370   -6.9860 C.ar  1434  HEM1434     0.0000
     19  CMB        9.2110   -6.2670   -6.1650 C.3   1434  HEM1434     0.0000
     20  CAB       10.5780   -3.3170   -5.7780 C.2   1434  HEM1434     0.0000
     21  CBB        9.8440   -3.2960   -4.6540 C.2   1434  HEM1434     0.0000
     22  C1C       14.6810   -3.6180   -7.6550 C.2   1434  HEM1434     0.0000
     23  C2C       15.6320   -2.5050   -7.6910 C.2   1434  HEM1434     0.0000
     24  C3C       16.6960   -2.9200   -8.4120 C.2   1434  HEM1434     0.0000
     25  C4C       16.4670   -4.3000   -8.8080 C.2   1434  HEM1434     0.0000
     26  CMC       15.3680   -1.1590   -7.0190 C.3   1434  HEM1434     0.0000
     27  CAC       17.9740   -2.1760   -8.7990 C.2   1434  HEM1434     0.0000
     28  CBC       18.0350   -0.8510   -8.9220 C.2   1434  HEM1434     0.0000
     29  C1D       17.1610   -6.4060   -9.8480 C.ar  1434  HEM1434     0.0000
     30  C2D       18.0860   -7.1730  -10.6280 C.ar  1434  HEM1434     0.0000
     31  C3D       17.4820   -8.5520  -10.7200 C.ar  1434  HEM1434     0.0000
     32  C4D       16.2370   -8.4910   -9.9710 C.ar  1434  HEM1434     0.0000
     33  CMD       19.3520   -6.6420  -11.3140 C.3   1434  HEM1434     0.0000
     34  CAD       18.0660   -9.7340  -11.4460 C.3   1434  HEM1434     0.0000
     35  CBD       18.9810  -10.5390  -10.4660 C.3   1434  HEM1434     0.0000
     36  CGD       19.4030  -11.8890  -11.0700 C.2   1434  HEM1434     0.0000
     37  O1D       18.7480  -12.3780  -12.0260 O.co2 1434  HEM1434     0.0000
     38  O2D       20.4240  -12.4780  -10.5620 O.co2 1434  HEM1434     0.0000
     39  NA        13.6060   -8.3870   -8.5730 N.2   1434  HEM1434     0.0000
     40  NB        12.7160   -5.9300   -7.4380 N.ar  1434  HEM1434     0.0000
     41  NC        15.2650   -4.7160   -8.2910 N.2   1434  HEM1434     0.0000
     42  ND        16.1040   -7.1940   -9.4160 N.ar  1434  HEM1434     0.0000
     43 FE         14.5110   -6.5970   -8.3080 Fe    1434  HEM1434     0.0000
@<TRIPOS>BOND
     1    37    36   ar
     2    34    31    1
     3    34    35    1
     4    33    30    1
     5    36    38   ar
     6    36    35    1
     7    31    30   ar
     8    31    32   ar
     9    30    29   ar
    10    32     1    2
    11    32    42   ar
    12    13    12   ar
    13    29     4    2
    14    29    42   ar
    15     1     5    1
    16    10     6    1
    17    10    11    1
    18     4    25    1
    19    42    43    1
    20     5     6    1
    21     5    39    2
    22     6     7    2
    23    28    27    2
    24    25    24    1
    25    25    41    2
    26    27    24    1
    27    12    11    1
    28    12    14   ar
    29    39    43    1
    30    39     8    1
    31     7     9    1
    32     7     8    1
    33    24    23    2
    34    43    41    1
    35    43    40    1
    36    41    22    1
    37     8     2    2
    38    23    22    1
    39    23    26    1
    40    22     3    2
    41     2    15    1
    42    40    15   ar
    43    40    18   ar
    44    15    16   ar
    45     3    18    1
    46    18    17   ar
    47    16    17   ar
    48    16    19    1
    49    17    20    1
    50    20    21    2
