@<TRIPOS>MOLECULE
2xnb_Y8L_A_1.pdb
 27 30 0 0 0
SMALL
GASTEIGER

@<TRIPOS>ATOM
      1  C17       21.0300   24.0090   29.2560 C.3   1299  Y8L1299     0.1096
      2  C18       20.8700   22.4770   29.2510 C.3   1299  Y8L1299     0.1101
      3  N19       21.7240   21.8210   28.2490 N.3   1299  Y8L1299    -0.2144
      4  C20       21.5470   22.5040   26.9750 C.3   1299  Y8L1299     0.1101
      5  C21       22.3130   23.8260   27.0370 C.3   1299  Y8L1299     0.1096
      6  N16       21.9990   24.5490   28.2820 N.pl3 1299  Y8L1299    -0.3045
      7  C12       22.4700   25.8690   28.4570 C.ar  1299  Y8L1299     0.0480
      8  C13       23.3890   26.4280   27.5660 C.ar  1299  Y8L1299     0.0159
      9  C14       23.8190   27.7550   27.7100 C.ar  1299  Y8L1299     0.0186
     10  C11       22.0090   26.6430   29.5180 C.ar  1299  Y8L1299     0.0159
     11  C10       22.4710   27.9570   29.6610 C.ar  1299  Y8L1299     0.0186
     12  C9        23.3580   28.5430   28.7540 C.ar  1299  Y8L1299     0.0827
     13  N7        23.7530   29.8120   28.9680 N.pl3 1299  Y8L1299    -0.1358
     14  C4        24.8420   30.4290   28.4720 C.1   1299  Y8L1299     0.1697
     15  N5        25.7860   29.8320   27.7130 N.2   1299  Y8L1299    -0.3356
     16  N3        24.9300   31.7550   28.6910 N.2   1299  Y8L1299    -0.1683
     17  C2        25.9450   32.4780   28.2440 C.2   1299  Y8L1299     0.1144
     18  C1        26.9460   31.8720   27.5050 C.2   1299  Y8L1299     0.0551
     19  C6        26.8650   30.5010   27.2580 C.2   1299  Y8L1299     0.1529
     20  C15       27.8370   29.8970   26.4430 C.ar  1299  Y8L1299     0.0761
     21  S23       29.2070   30.6630   25.7370 S.2   1299  Y8L1299    -0.0237
     22  C24       29.6770   29.2860   24.8710 C.ar  1299  Y8L1299     0.2921
     23  O28       30.6760   29.1880   24.1620 O.2   1299  Y8L1299    -0.2594
     24  N25       28.8420   28.2790   25.1390 N.ar  1299  Y8L1299    -0.2914
     25  C29       29.0250   26.9260   24.5410 C.3   1299  Y8L1299     0.1338
     26  C26       27.8370   28.5720   25.9750 C.ar  1299  Y8L1299     0.0493
     27  C27       26.8040   27.5160   26.3780 C.3   1299  Y8L1299     0.0507
@<TRIPOS>BOND
     1    23    22    2
     2    25    24    1
     3    22    24   ar
     4    22    21   ar
     5    24    26   ar
     6    21    20   ar
     7    26    27    1
     8    26    20   ar
     9    20    19    1
    10     4     5    1
    11     4     3    1
    12     5     6    1
    13    19    18    1
    14    19    15    2
    15    18    17    2
    16     8     9   ar
    17     8     7   ar
    18     9    12   ar
    19    15    14    2
    20    17    16    1
    21     3     2    1
    22     6     7    1
    23     6     1    1
    24     7    10   ar
    25    14    16    2
    26    14    13    1
    27    12    13    1
    28    12    11   ar
    29     2     1    1
    30    10    11   ar
