@<TRIPOS>MOLECULE
2xnd_ANP_A_1.pdb
 31 33 0 0 0
SMALL
GASTEIGER

@<TRIPOS>ATOM
      1  PG        32.3320  -19.3540   41.2140 P.3   600  ANP600      0.4884
      2  O1G       33.4360  -20.2840   41.8820 O.3   600  ANP600     -0.1240
      3  O2G       32.3680  -19.4200   39.6170 O.2   600  ANP600     -0.2331
      4  O3G       32.5340  -17.8530   41.7090 O.3   600  ANP600     -0.1240
      5  PB        29.4560  -19.0670   40.9150 P.3   600  ANP600      0.4669
      6  O1B       29.5230  -17.5320   41.3330 O.3   600  ANP600     -0.1253
      7  O2B       29.6840  -19.2460   39.3480 O.2   600  ANP600     -0.2351
      8  N3B       30.7590  -19.9220   41.6820 N.3   600  ANP600     -0.0163
      9  PA        27.5220  -21.0690   40.8280 P.3   600  ANP600      0.2220
     10  O1A       26.4270  -20.7640   39.7310 O.2   600  ANP600     -0.5170
     11  O2A       28.6910  -21.9680   40.2330 O.3   600  ANP600     -0.4370
     12  O3A       28.0540  -19.6680   41.3960 O.3   600  ANP600     -0.2360
     13  O5'       26.8440  -21.7560   42.1160 O.3   600  ANP600     -0.3111
     14  C5'       27.6230  -22.0290   43.2800 C.3   600  ANP600      0.1813
     15  C4'       27.1440  -23.3290   43.9110 C.3   600  ANP600      0.1821
     16  O4'       25.8460  -23.1370   44.4660 O.3   600  ANP600     -0.3135
     17  C3'       27.0550  -24.4580   42.8950 C.3   600  ANP600      0.2184
     18  O3'       27.9200  -25.5120   43.3080 O.3   600  ANP600     -0.2174
     19  C2'       25.5970  -24.9040   42.8700 C.3   600  ANP600      0.2570
     20  O2'       25.4200  -26.2950   43.1310 O.3   600  ANP600     -0.2130
     21  C1'       24.8920  -24.0510   43.9160 C.3   600  ANP600      0.3186
     22  N9        23.7140  -23.3100   43.4070 N.pl3 600  ANP600     -0.1439
     23  C8        23.7000  -22.2420   42.5790 C.3   600  ANP600      0.3377
     24  N7        22.4300  -21.7830   42.3260 N.2   600  ANP600     -0.2095
     25  C5        21.5970  -22.5670   43.0210 C.2   600  ANP600      0.2526
     26  C6        20.1470  -22.7230   43.2720 C.2   600  ANP600      0.4393
     27  N6        19.2670  -21.8780   42.6840 N.pl3 600  ANP600      0.2180
     28  N1        19.7150  -23.7150   44.0920 N.2   600  ANP600      0.0021
     29  C2        20.5440  -24.5850   44.7050 C.3   600  ANP600      0.5254
     30  N3        21.8770  -24.5390   44.5550 N.2   600  ANP600     -0.0055
     31  C4        22.4410  -23.5230   43.7040 C.2   600  ANP600      0.3518
@<TRIPOS>BOND
     1     7     5    2
     2     3     1    2
     3    10     9    2
     4    11     9    1
     5     9    12    1
     6     9    13    1
     7     5     6    1
     8     5    12    1
     9     5     8    1
    10     1     8    1
    11     1     4    1
    12     1     2    1
    13    13    14    1
    14    24    23    1
    15    24    25    2
    16    23    22    1
    17    27    26    1
    18    19    17    1
    19    19    20    1
    20    19    21    1
    21    17    18    1
    22    17    15    1
    23    25    26    1
    24    25    31    1
    25    26    28    2
    26    14    15    1
    27    22    31    1
    28    22    21    1
    29    31    30    2
    30    15    16    1
    31    21    16    1
    32    28    29    1
    33    30    29    1
