@<TRIPOS>MOLECULE
2xne_ASH_A_1.pdb
 29 33 0 0 0
SMALL
GASTEIGER

@<TRIPOS>ATOM
      1  C10        6.0880  -30.9570   -2.5480 C.ar  1389  ASH1389     0.0054
      2  C11        6.6080  -30.4400   -1.3530 C.ar  1389  ASH1389     0.0208
      3  C12        6.9630  -29.0960   -1.2910 C.ar  1389  ASH1389     0.0989
      4  C14        6.2920  -28.8370   -3.5140 C.ar  1389  ASH1389     0.1011
      5  C16        3.8860  -32.4750   -6.0780 C.2   1389  ASH1389     0.2373
      6  C19        2.6310  -34.1340   -3.3450 C.ar  1389  ASH1389     0.0179
      7  C21        1.0760  -35.8370   -2.3840 C.ar  1389  ASH1389     0.0481
      8  C24        0.1090  -36.9190    1.2670 C.3   1389  ASH1389     0.1636
      9 CL          6.2100  -29.0380   -9.1590 Cl    1389  ASH1389    -0.0614
     10  C02        5.2810  -30.3220   -8.6790 C.ar  1389  ASH1389     0.1398
     11  C03        4.5280  -31.1900   -9.4730 C.ar  1389  ASH1389     0.1296
     12  N04        3.8800  -32.1360   -8.6910 N.ar  1389  ASH1389    -0.2206
     13  C05        4.2200  -31.8700   -7.3930 C.ar  1389  ASH1389     0.1914
     14  N06        5.1030  -30.7300   -7.3570 N.ar  1389  ASH1389    -0.2926
     15  C07        5.6490  -30.1800   -6.1920 C.3   1389  ASH1389     0.1673
     16  C08        5.3050  -30.7720   -4.9950 C.2   1389  ASH1389     0.1351
     17  C09        5.9010  -30.1840   -3.7110 C.ar  1389  ASH1389     0.0465
     18  N13        6.8030  -28.3020   -2.3750 N.ar  1389  ASH1389    -0.2422
     19  N15        4.4380  -31.9060   -4.9910 N.2   1389  ASH1389    -0.3844
     20  N17        2.9920  -33.6530   -5.8730 N.pl3 1389  ASH1389    -0.1811
     21  C18        2.3640  -34.3630   -4.7090 C.ar  1389  ASH1389     0.0733
     22  C20        2.0330  -34.8160   -2.2590 C.ar  1389  ASH1389     0.0159
     23  N22        0.4750  -36.5210   -1.2550 N.pl3 1389  ASH1389    -0.3028
     24  C23        0.6930  -36.0180    0.1270 C.3   1389  ASH1389     0.1231
     25  O25       -0.1120  -38.2210    0.8280 O.3   1389  ASH1389    -0.3501
     26  C26       -1.1050  -38.2360   -0.1520 C.3   1389  ASH1389     0.1636
     27  C27       -0.7970  -37.2820   -1.3580 C.3   1389  ASH1389     0.1231
     28  C28        0.7850  -36.0890   -3.7530 C.ar  1389  ASH1389     0.0159
     29  C29        1.3830  -35.4040   -4.8340 C.ar  1389  ASH1389     0.0179
@<TRIPOS>BOND
     1    11    12   ar
     2    11    10   ar
     3     9    10    1
     4    12    13   ar
     5    10    14   ar
     6    13    14   ar
     7    13     5    1
     8    14    15    1
     9    15    16    1
    10     5    20    1
    11     5    19    2
    12    20    21    1
    13    16    19    2
    14    16    17    1
    15    29    21   ar
    16    29    28   ar
    17    21     6   ar
    18    28     7   ar
    19    17     4   ar
    20    17     1   ar
    21     4    18   ar
    22     6    22   ar
    23     1     2   ar
    24     7    22   ar
    25     7    23    1
    26    18     3   ar
    27    27    23    1
    28    27    26    1
    29     2     3   ar
    30    23    24    1
    31    26    25    1
    32    24     8    1
    33    25     8    1
