@<TRIPOS>MOLECULE
2xng_A0H_A_1.pdb
 35 39 0 0 0
SMALL
GASTEIGER

@<TRIPOS>ATOM
      1 CL          5.5990  -28.5660   -9.5890 Cl    1391  A0H1391    -0.0614
      2  C02        4.6630  -29.9160   -9.0910 C.ar  1391  A0H1391     0.1398
      3  C03        3.8100  -30.8800   -9.9570 C.ar  1391  A0H1391     0.1296
      4  N04        3.1920  -31.8440   -8.9670 N.ar  1391  A0H1391    -0.2206
      5  C05        3.6780  -31.4480   -7.5890 C.ar  1391  A0H1391     0.1914
      6  N06        4.5210  -30.3320   -7.7500 N.ar  1391  A0H1391    -0.2926
      7  C07        5.1880  -29.6640   -6.5820 C.3   1391  A0H1391     0.1673
      8  C08        4.8910  -30.2000   -5.1690 C.2   1391  A0H1391     0.1336
      9  C09        5.5280  -29.6770   -3.9250 C.ar  1391  A0H1391     0.0271
     10  C10        5.2500  -30.3330   -2.7290 C.ar  1391  A0H1391    -0.0005
     11  C11        5.8760  -29.8730   -1.4650 C.ar  1391  A0H1391    -0.0028
     12  C12        5.5430  -30.5560   -0.1730 C.3   1391  A0H1391     0.1414
     13  N13        5.8870  -31.9850    0.0360 N.3   1391  A0H1391    -0.0772
     14  S14        4.5020  -32.8620    0.4230 S.O2  1391  A0H1391     0.0595
     15  O15        4.3540  -33.9820   -0.4990 O.2   1391  A0H1391    -0.1561
     16  C16        4.6220  -33.4450    2.0640 C.3   1391  A0H1391     0.1975
     17  O17        3.3530  -31.9790    0.3460 O.2   1391  A0H1391    -0.1561
     18  C18        6.8110  -28.6900   -1.5070 C.ar  1391  A0H1391    -0.0028
     19  C19        7.1080  -28.0060   -2.7610 C.ar  1391  A0H1391    -0.0002
     20  C20        6.5160  -28.4420   -3.9590 C.ar  1391  A0H1391     0.0023
     21  N21        4.0560  -31.3820   -5.0400 N.2   1391  A0H1391    -0.3844
     22  C22        3.4310  -32.0070   -6.2160 C.2   1391  A0H1391     0.2373
     23  N23        2.5640  -33.1110   -5.9180 N.pl3 1391  A0H1391    -0.1811
     24  C24        1.8710  -33.8610   -4.8920 C.ar  1391  A0H1391     0.0733
     25  C25        2.1460  -33.4420   -3.5280 C.ar  1391  A0H1391     0.0179
     26  C26        1.5100  -34.1210   -2.4210 C.ar  1391  A0H1391     0.0159
     27  C27        0.5220  -35.2990   -2.7240 C.ar  1391  A0H1391     0.0481
     28  N28       -0.1320  -35.9880   -1.5990 N.pl3 1391  A0H1391    -0.3028
     29  C29        0.0290  -35.5150   -0.1990 C.3   1391  A0H1391     0.1231
     30  C30        0.0420  -36.6980    0.7660 C.3   1391  A0H1391     0.1636
     31  O31        0.0460  -37.9930    0.1070 O.3   1391  A0H1391    -0.3501
     32  C32       -1.0430  -38.1920   -0.8280 C.3   1391  A0H1391     0.1636
     33  C33       -1.0600  -37.1350   -1.9230 C.3   1391  A0H1391     0.1231
     34  C34        0.2230  -35.7360   -4.1630 C.ar  1391  A0H1391     0.0159
     35  C35        0.8250  -35.1020   -5.2120 C.ar  1391  A0H1391     0.0179
@<TRIPOS>BOND
     1     3     2   ar
     2     3     4   ar
     3     1     2    1
     4     2     6   ar
     5     4     5   ar
     6     6     5   ar
     7     6     7    1
     8     5    22    1
     9     7     8    1
    10    22    23    1
    11    22    21    2
    12    23    24    1
    13    35    24   ar
    14    35    34   ar
    15     8    21    2
    16     8     9    1
    17    24    25   ar
    18    34    27   ar
    19    20     9   ar
    20    20    19   ar
    21     9    10   ar
    22    25    26   ar
    23    19    18   ar
    24    10    11   ar
    25    27    26   ar
    26    27    28    1
    27    33    28    1
    28    33    32    1
    29    28    29    1
    30    18    11   ar
    31    11    12    1
    32    32    31    1
    33    15    14    2
    34    29    30    1
    35    12    13    1
    36    13    14    1
    37    31    30    1
    38    17    14    2
    39    14    16    1
