@<TRIPOS>MOLECULE
2xni_TR8_A_1.pdb
 46 49 0 0 0
SMALL
GASTEIGER

@<TRIPOS>ATOM
      1  N01        7.0800   29.5860   12.8570 N.am  1181  TR81181     0.0000
      2  C02        7.8120   30.3600   12.0390 C.2   1181  TR81181     0.0000
      3  C03        7.1400   31.3390   11.0300 C.3   1181  TR81181     0.0000
      4  N04        7.6980   32.6870   11.2940 N.2   1181  TR81181     0.0000
      5  C05        6.9530   33.7920   11.4890 C.1   1181  TR81181     0.0000
      6  O06        7.6780   34.9190   11.6810 O.3   1181  TR81181     0.0000
      7  C07        7.8840   35.3010   13.0370 C.3   1181  TR81181     0.0000
      8  C08        8.4330   36.7560   13.1820 C.3   1181  TR81181     0.0000
      9  C09        7.7120   37.6740   12.1590 C.3   1181  TR81181     0.0000
     10  C10        9.9650   36.7760   12.8980 C.3   1181  TR81181     0.0000
     11  C11        8.1770   37.2890   14.6320 C.3   1181  TR81181     0.0000
     12  C12        8.6650   36.3020   15.7290 C.3   1181  TR81181     0.0000
     13  C13        7.4740   35.8420   16.6100 C.3   1181  TR81181     0.0000
     14  C14        7.9970   34.8320   17.6570 C.3   1181  TR81181     0.0000
     15  C15        6.9070   34.3330   18.6390 C.ar  1181  TR81181     0.0000
     16  C16        6.0470   33.2470   18.3540 C.ar  1181  TR81181     0.0000
     17  C17        5.9300   32.3700   17.1370 C.ar  1181  TR81181     0.0000
     18  N18        4.8480   31.4020   17.3900 N.ar  1181  TR81181     0.0000
     19  C19        4.5170   30.4670   16.4490 C.2   1181  TR81181     0.0000
     20  O20        5.2380   30.5030   15.2980 O.3   1181  TR81181     0.0000
     21  C21        5.5030   29.2650   14.5960 C.3   1181  TR81181     0.0000
     22  C22        5.6110   29.5080   13.0950 C.3   1181  TR81181     0.0000
     23  C23        6.8190   28.6420   15.0520 C.3   1181  TR81181     0.0000
     24  C24        7.8340   28.8510   13.8990 C.3   1181  TR81181     0.0000
     25  C25        8.3500   27.5060   13.3550 C.2   1181  TR81181     0.0000
     26  N26        9.3170   26.8380   13.9990 N.am  1181  TR81181     0.0000
     27  C27        9.8300   25.5440   13.4980 C.3   1181  TR81181     0.0000
     28  B28        9.9230   24.4630   14.6920 B     1181  TR81181     0.0000
     29  O29        9.9330   23.1890   14.2160 O.3   1181  TR81181     0.0000
     30  O30        8.8720   24.6140   15.5290 O.3   1181  TR81181     0.0000
     31  C31       11.2280   25.7390   12.8320 C.3   1181  TR81181     0.0000
     32  C32       11.1100   26.4820   11.4750 C.3   1181  TR81181     0.0000
     33  O33       10.8200   27.8470   11.7060 O.3   1181  TR81181     0.0000
     34  O34        8.0200   27.1670   12.2610 O.2   1181  TR81181     0.0000
     35  O35        3.6450   29.6680   16.6280 O.2   1181  TR81181     0.0000
     36  C36        4.2800   31.6530   18.7460 C.ar  1181  TR81181     0.0000
     37  C37        5.0910   32.8430   19.2990 C.ar  1181  TR81181     0.0000
     38  C38        5.0100   33.5240   20.5200 C.ar  1181  TR81181     0.0000
     39  C39        5.8680   34.5940   20.8130 C.ar  1181  TR81181     0.0000
     40  C40        6.8190   34.9970   19.8710 C.ar  1181  TR81181     0.0000
     41  O41        5.7620   33.7990   11.4100 O.2   1181  TR81181     0.0000
     42  C42        7.2760   30.9230    9.5190 C.3   1181  TR81181     0.0000
     43  C43        6.8240   32.0770    8.5690 C.3   1181  TR81181     0.0000
     44  C44        6.3500   29.7060    9.2350 C.3   1181  TR81181     0.0000
     45  C45        8.7370   30.5350    9.1430 C.3   1181  TR81181     0.0000
     46  O46        9.0000   30.2960   12.0840 O.2   1181  TR81181     0.0000
@<TRIPOS>BOND
     1    43    42    1
     2    45    42    1
     3    44    42    1
     4    42     3    1
     5     3     4    1
     6     3     2    1
     7     4     5    2
     8    41     5    2
     9    32    33    1
    10    32    31    1
    11     5     6    1
    12     6     7    1
    13     2    46    2
    14     2     1   am
    15     9     8    1
    16    34    25    2
    17    31    27    1
    18     1    22    1
    19     1    24    1
    20    10     8    1
    21     7     8    1
    22    22    21    1
    23     8    11    1
    24    25    24    1
    25    25    26   am
    26    27    26    1
    27    27    28    1
    28    24    23    1
    29    29    28    1
    30    21    23    1
    31    21    20    1
    32    11    12    1
    33    28    30    1
    34    20    19    1
    35    12    13    1
    36    19    35    2
    37    19    18   am
    38    13    14    1
    39    17    18   ar
    40    17    16   ar
    41    18    36   ar
    42    14    15    1
    43    16    15   ar
    44    16    37   ar
    45    15    40   ar
    46    36    37   ar
    47    37    38   ar
    48    40    39   ar
    49    38    39   ar
