@<TRIPOS>MOLECULE
2xnj_NAP_A_1.pdb
 48 52 0 0 0
SMALL
GASTEIGER

@<TRIPOS>ATOM
      1  PA        72.2600   11.7710    7.1790 P.3   1258  NAP1258     0.2189
      2  O1A       72.3910   13.2780    7.4570 O.3   1258  NAP1258    -0.4371
      3  O2A       72.5330   11.2290    5.7910 O.2   1258  NAP1258    -0.5170
      4  O5B       73.2590   10.9970    8.2600 O.3   1258  NAP1258    -0.3112
      5  C5B       73.2340    9.5690    8.3790 C.3   1258  NAP1258     0.1813
      6  C4B       74.6970    9.0940    8.6270 C.3   1258  NAP1258     0.1820
      7  O4B       75.4370    9.3320    7.4090 O.3   1258  NAP1258    -0.3136
      8  C3B       75.5010    9.8600    9.7320 C.3   1258  NAP1258     0.2157
      9  O3B       76.3210    8.9340   10.4540 O.3   1258  NAP1258    -0.2175
     10  C2B       76.3960   10.8370    8.9380 C.3   1258  NAP1258     0.2314
     11  O2B       77.6040   11.2480    9.5860 O.3   1258  NAP1258    -0.2630
     12  C1B       76.6840    9.9530    7.7150 C.3   1258  NAP1258     0.3158
     13  N9A       77.3370   10.6700    6.6290 N.pl3 1258  NAP1258    -0.1439
     14  C8A       77.1290   11.9930    6.2210 C.3   1258  NAP1258     0.3377
     15  N7A       77.9450   12.3730    5.2260 N.2   1258  NAP1258    -0.2095
     16  C5A       78.7350   11.2520    5.0010 C.2   1258  NAP1258     0.2526
     17  C6A       79.8220   10.9710    4.1100 C.2   1258  NAP1258     0.4393
     18  N6A       80.3430   11.8870    3.2240 N.pl3 1258  NAP1258     0.2180
     19  N1A       80.4270    9.7390    4.1640 N.2   1258  NAP1258     0.0021
     20  C2A       79.9630    8.8360    5.0320 C.3   1258  NAP1258     0.5254
     21  N3A       78.9530    8.9760    5.9050 N.2   1258  NAP1258    -0.0055
     22  C4A       78.3710   10.1970    5.8620 C.2   1258  NAP1258     0.3518
     23  O3        70.8440   11.1890    7.5470 O.3   1258  NAP1258    -0.2703
     24  PN        69.9240   11.5190    8.8080 P.3   1258  NAP1258     0.2189
     25  O1N       68.7440   10.5060    8.7720 O.2   1258  NAP1258    -0.5170
     26  O2N       70.8120   11.8070   10.0420 O.3   1258  NAP1258    -0.4371
     27  O5D       69.2670   12.9890    8.5990 O.3   1258  NAP1258    -0.3112
     28  C5D       69.2280   13.7530    7.3990 C.3   1258  NAP1258     0.1813
     29  C4D       68.1330   14.8400    7.5350 C.3   1258  NAP1258     0.1799
     30  O4D       67.1560   14.7380    8.6250 O.3   1258  NAP1258    -0.3327
     31  C3D       68.5880   16.2610    7.6130 C.3   1258  NAP1258     0.2158
     32  O3D       67.5960   16.9640    6.8800 O.3   1258  NAP1258    -0.2175
     33  C2D       68.5360   16.5660    9.0920 C.3   1258  NAP1258     0.2309
     34  O2D       68.6690   17.9710    9.3540 O.3   1258  NAP1258    -0.2158
     35  C1D       67.2230   15.9010    9.4810 C.3   1258  NAP1258     0.2263
     36  N1N       67.3310   15.4340   10.8920 N.pl3 1258  NAP1258    -0.2787
     37  C2N       66.7220   16.1910   11.8770 C.3   1258  NAP1258     0.1244
     38  C3N       66.7950   15.7870   13.2480 C.2   1258  NAP1258     0.0544
     39  C7N       66.1080   16.6080   14.2820 C.2   1258  NAP1258     0.2818
     40  O7N       66.3740   16.4800   15.5040 O.2   1258  NAP1258    -0.2670
     41  N7N       65.1090   17.4620   13.8690 N.am  1258  NAP1258    -0.0839
     42  C4N       67.4930   14.6020   13.5620 C.2   1258  NAP1258     0.0033
     43  C5N       68.1020   13.8450   12.5580 C.2   1258  NAP1258     0.0157
     44  C6N       68.0130   14.2770   11.2230 C.2   1258  NAP1258     0.0633
     45  P2B       77.8060   12.7030   10.3090 P.3   1258  NAP1258     0.5328
     46  O1X       79.2380   12.9600   10.0200 O.3   1258  NAP1258    -0.1145
     47  O2X       77.5530   12.5130   11.7300 O.3   1258  NAP1258    -0.1145
     48  O3X       76.8730   13.7060    9.6350 O.2   1258  NAP1258    -0.2224
@<TRIPOS>BOND
     1    18    17    1
     2    17    19    2
     3    17    16    1
     4    19    20    1
     5    16    15    2
     6    16    22    1
     7    20    21    1
     8    15    14    1
     9     3     1    2
    10    22    21    2
    11    22    13    1
    12    14    13    1
    13    13    12    1
    14    32    31    1
    15     1     2    1
    16     1    23    1
    17     1     4    1
    18    28    29    1
    19    28    27    1
    20     7    12    1
    21     7     6    1
    22    29    31    1
    23    29    30    1
    24    23    24    1
    25    31    33    1
    26    12    10    1
    27     4     5    1
    28     5     6    1
    29    27    24    1
    30    30    35    1
    31     6     8    1
    32    25    24    2
    33    24    26    1
    34    10    11    1
    35    10     8    1
    36    33    34    1
    37    33    35    1
    38    35    36    1
    39    11    45    1
    40    48    45    2
    41     8     9    1
    42    46    45    1
    43    45    47    1
    44    36    44    1
    45    36    37    1
    46    44    43    2
    47    37    38    1
    48    43    42    1
    49    38    42    2
    50    38    39    1
    51    41    39   am
    52    39    40    2
