@<TRIPOS>MOLECULE
2xnm_WGZ_A_1.pdb
 38 42 0 0 0
SMALL
GASTEIGER

@<TRIPOS>ATOM
      1  C01       26.5450   11.5320  -13.4870 C.3   1280  WGZ1280     0.0523
      2  C02       26.0530   10.9310  -14.7630 C.3   1280  WGZ1280     0.1882
      3  O03       24.9040   10.1520  -14.5520 O.3   1280  WGZ1280    -0.4740
      4  C04       24.5000    9.2340  -15.5350 C.ar  1280  WGZ1280     0.1511
      5  C05       25.3800    8.8950  -16.9260 C.ar  1280  WGZ1280     0.0592
      6  C06       24.6110    7.8810  -17.7080 C.ar  1280  WGZ1280     0.0867
      7  N07       25.0500    7.4600  -18.9100 N.pl3 1280  WGZ1280    -0.2595
      8  C08       24.8800    6.2150  -19.4770 C.3   1280  WGZ1280     0.2240
      9  N09       25.4780    6.2810  -20.7620 N.2   1280  WGZ1280    -0.2505
     10  C10       25.9710    7.5700  -20.9760 C.2   1280  WGZ1280     0.0739
     11  C11       26.6840    8.2170  -22.1010 C.3   1280  WGZ1280     0.0758
     12  C12       27.0850    9.6380  -22.0060 C.2   1280  WGZ1280     0.0171
     13  C13       26.7790   10.3720  -20.8370 C.2   1280  WGZ1280     0.1358
     14  O14       27.1390   11.7190  -20.6520 O.2   1280  WGZ1280    -0.4793
     15  C15       27.6850   12.2950  -21.8080 C.3   1280  WGZ1280     0.1687
     16  C16       29.2150   12.2820  -22.0070 C.3   1280  WGZ1280     0.0609
     17  C17       29.8960   13.6740  -22.0380 C.3   1280  WGZ1280     0.0758
     18  N18       29.0940   14.7140  -22.7120 N.3   1280  WGZ1280    -0.2713
     19  C19       29.7520   16.0070  -22.8220 C.3   1280  WGZ1280     0.0896
     20  C20       27.7350   14.7990  -22.1510 C.3   1280  WGZ1280     0.0758
     21  C21       26.9680   13.5120  -22.3860 C.3   1280  WGZ1280     0.0609
     22  C22       26.0770    9.7250  -19.7170 C.2   1280  WGZ1280     0.0526
     23  C23       25.6840    8.3120  -19.8270 C.2   1280  WGZ1280     0.0701
     24  S24       23.1830    7.4880  -16.9390 S.2   1280  WGZ1280    -0.0643
     25  C25       23.2190    8.3830  -15.5800 C.ar  1280  WGZ1280     0.1212
     26  C26       22.1830    8.3820  -14.5250 C.2   1280  WGZ1280     0.2932
     27  N27       22.4150    9.1420  -13.3460 N.am  1280  WGZ1280    -0.0832
     28  O28       21.2660    7.5970  -14.6150 O.2   1280  WGZ1280    -0.2660
     29  C29       25.8590   11.9660  -15.8650 C.ar  1280  WGZ1280     0.0211
     30  C30       24.5500   12.5590  -15.9980 C.ar  1280  WGZ1280    -0.0009
     31  C31       24.2840   13.5770  -17.0300 C.ar  1280  WGZ1280    -0.0002
     32  C32       25.3570   13.9900  -17.9080 C.ar  1280  WGZ1280    -0.0001
     33  C33       26.6750   13.4060  -17.7770 C.ar  1280  WGZ1280     0.0036
     34  C34       26.9450   12.3850  -16.7550 C.ar  1280  WGZ1280     0.0708
     35  C35       28.3350   11.8290  -16.6620 C.3   1280  WGZ1280     0.4184
     36  F36       28.8040   11.9480  -15.4150 F     1280  WGZ1280    -0.1659
     37  F37       29.1330   12.5140  -17.4830 F     1280  WGZ1280    -0.1659
     38  F38       28.3440   10.5540  -17.0410 F     1280  WGZ1280    -0.1659
@<TRIPOS>BOND
     1    19    18    1
     2    18    20    1
     3    18    17    1
     4    21    20    1
     5    21    15    1
     6    11    12    1
     7    11    10    1
     8    17    16    1
     9    16    15    1
    10    12    13    2
    11    15    14    1
    12    10     9    2
    13    10    23    1
    14    13    14    1
    15    13    22    1
    16     9     8    1
    17    23    22    2
    18    23     7    1
    19     8     7    1
    20     7     6    1
    21    32    33   ar
    22    32    31   ar
    23    33    34   ar
    24     6    24   ar
    25     6     5   ar
    26    37    35    1
    27    38    35    1
    28    31    30   ar
    29    24    25   ar
    30     5     4   ar
    31    34    35    1
    32    34    29   ar
    33    35    36    1
    34    30    29   ar
    35    29     2    1
    36    25     4   ar
    37    25    26    1
    38     4     3    1
    39     2     3    1
    40     2     1    1
    41    28    26    2
    42    26    27   am
