@<TRIPOS>MOLECULE
2xnn_430_A_1.pdb
 30 33 0 0 0
SMALL
GASTEIGER

@<TRIPOS>ATOM
      1  C01       26.5820   11.8200  -13.2530 C.3   1280  4301280     0.0523
      2  C02       26.0150   11.0440  -14.4250 C.3   1280  4301280     0.1882
      3  O03       25.0730   10.0350  -14.0540 O.3   1280  4301280    -0.4740
      4  C04       24.6430    9.1050  -15.0070 C.ar  1280  4301280     0.1511
      5  C05       25.4920    8.7220  -16.4120 C.ar  1280  4301280     0.0592
      6  C06       24.7120    7.6870  -17.1750 C.ar  1280  4301280     0.0867
      7  N07       25.0620    7.2130  -18.4210 N.pl3 1280  4301280    -0.2596
      8  C08       24.7700    5.9620  -18.9550 C.3   1280  4301280     0.2240
      9  N09       25.2160    5.9600  -20.3000 N.2   1280  4301280    -0.2505
     10  C10       25.7280    7.2250  -20.5970 C.2   1280  4301280     0.0737
     11  C11       26.3160    7.8010  -21.8040 C.3   1280  4301280     0.0727
     12  C12       26.7670    9.1950  -21.8360 C.2   1280  4301280    -0.0197
     13  C13       26.6360    9.9690  -20.7120 C.2   1280  4301280    -0.0029
     14  C14       26.0350    9.3780  -19.4810 C.2   1280  4301280     0.0158
     15  C15       25.5900    8.0200  -19.4540 C.2   1280  4301280     0.0671
     16  S16       23.3110    7.3580  -16.3200 S.2   1280  4301280    -0.0643
     17  C17       23.3430    8.2520  -14.9890 C.ar  1280  4301280     0.1212
     18  C18       22.2600    8.2880  -13.9290 C.2   1280  4301280     0.2932
     19  N19       22.2150    7.3320  -12.8470 N.am  1280  4301280    -0.0832
     20  O20       21.4750    9.2050  -13.9240 O.2   1280  4301280    -0.2660
     21  C21       25.6160   11.9190  -15.5990 C.ar  1280  4301280     0.0211
     22  C22       24.2970   12.4350  -15.6870 C.ar  1280  4301280    -0.0009
     23  C23       23.8770   13.3040  -16.8750 C.ar  1280  4301280    -0.0002
     24  C24       24.7840   13.5950  -17.8940 C.ar  1280  4301280    -0.0001
     25  C25       26.2310   13.0280  -17.7980 C.ar  1280  4301280     0.0036
     26  C26       26.6200   12.2410  -16.7200 C.ar  1280  4301280     0.0708
     27  C27       28.0640   11.7480  -16.6620 C.3   1280  4301280     0.4184
     28  F28       28.7860   12.4170  -17.5500 F     1280  4301280    -0.1659
     29  F29       28.0890   10.4290  -16.9470 F     1280  4301280    -0.1659
     30  F30       28.5840   11.9530  -15.4520 F     1280  4301280    -0.1659
@<TRIPOS>BOND
     1    12    11    1
     2    12    13    2
     3    11    10    1
     4    13    14    1
     5    10     9    2
     6    10    15    1
     7     9     8    1
     8    14    15    2
     9    15     7    1
    10     8     7    1
    11     7     6    1
    12    24    25   ar
    13    24    23   ar
    14    25    26   ar
    15    28    27    1
    16     6     5   ar
    17     6    16   ar
    18    29    27    1
    19    23    22   ar
    20    26    27    1
    21    26    21   ar
    22    27    30    1
    23     5     4   ar
    24    16    17   ar
    25    22    21   ar
    26    21     2    1
    27     4    17   ar
    28     4     3    1
    29    17    18    1
    30     2     3    1
    31     2     1    1
    32    18    20    2
    33    18    19   am
