@<TRIPOS>MOLECULE
2xno_ED8_A_1.pdb
 37 41 0 0 0
SMALL
GASTEIGER

@<TRIPOS>ATOM
      1  C01      -29.6660   14.8770   23.1530 C.3   1280  ED81280     0.0896
      2  N02      -28.9900   14.3290   21.9920 N.3   1280  ED81280    -0.2713
      3  C03      -27.5760   14.0280   22.2780 C.3   1280  ED81280     0.0758
      4  C04      -26.8840   13.0770   21.2670 C.3   1280  ED81280     0.0609
      5  C05      -27.6720   11.7770   21.0510 C.3   1280  ED81280     0.1687
      6  O06      -27.4060   10.9970   19.9060 O.2   1280  ED81280    -0.4793
      7  C07      -26.9720    9.6970   20.1970 C.2   1280  ED81280     0.1358
      8  C08      -27.2840    9.0350   21.3890 C.2   1280  ED81280     0.0171
      9  C09      -26.8270    7.6450   21.5790 C.3   1280  ED81280     0.0758
     10  C10      -26.0620    6.9860   20.5440 C.2   1280  ED81280     0.0739
     11  N11      -25.4980    5.7050   20.4430 N.2   1280  ED81280    -0.2505
     12  C12      -24.8570    5.5870   19.2070 C.3   1280  ED81280     0.2240
     13  N13      -25.0930    6.7790   18.5140 N.pl3 1280  ED81280    -0.2595
     14  C14      -24.5780    7.1940   17.3230 C.ar  1280  ED81280     0.0867
     15  C15      -25.3410    8.3300   16.5190 C.ar  1280  ED81280     0.0592
     16  C16      -24.3950    8.6930   15.0690 C.ar  1280  ED81280     0.1513
     17  O17      -24.8150    9.7110   14.1940 O.3   1280  ED81280    -0.4699
     18  C18      -25.9470   10.4640   14.5580 C.3   1280  ED81280     0.2320
     19  C19      -25.8150   11.5570   15.6160 C.ar  1280  ED81280     0.0251
     20  C20      -24.5300   12.1330   15.8220 C.ar  1280  ED81280    -0.0007
     21  C21      -24.3040   13.1660   16.8150 C.ar  1280  ED81280    -0.0002
     22  C22      -25.4690   13.6450   17.6440 C.ar  1280  ED81280    -0.0001
     23  C23      -26.7490   13.0900   17.4520 C.ar  1280  ED81280     0.0036
     24  C24      -26.9840   12.0500   16.4500 C.ar  1280  ED81280     0.0709
     25  C25      -28.3870   11.5310   16.3280 C.3   1280  ED81280     0.4184
     26  F26      -28.4370   10.2970   16.8380 F     1280  ED81280    -0.1659
     27  F27      -29.2270   12.3020   17.0290 F     1280  ED81280    -0.1659
     28  F28      -28.8110   11.5190   15.0640 F     1280  ED81280    -0.1659
     29  C29      -23.1400    7.7910   15.0940 C.ar  1280  ED81280     0.1212
     30  C30      -22.0710    7.6820   14.0350 C.2   1280  ED81280     0.2932
     31  N31      -22.2580    8.3390   12.7760 N.am  1280  ED81280    -0.0832
     32  O32      -21.2200    6.8110   14.1490 O.2   1280  ED81280    -0.2660
     33  S33      -23.1580    6.7740   16.5550 S.2   1280  ED81280    -0.0643
     34  C34      -25.7650    7.6550   19.3600 C.2   1280  ED81280     0.0701
     35  C35      -26.2140    9.0270   19.1560 C.2   1280  ED81280     0.0526
     36  C36      -29.0920   11.8440   21.6410 C.3   1280  ED81280     0.0609
     37  C37      -29.7350   13.2340   21.3730 C.3   1280  ED81280     0.0758
@<TRIPOS>BOND
     1    31    30   am
     2    30    32    2
     3    30    29    1
     4    17    18    1
     5    17    16    1
     6    18    19    1
     7    28    25    1
     8    16    29   ar
     9    16    15   ar
    10    29    33   ar
    11    19    20   ar
    12    19    24   ar
    13    20    21   ar
    14    25    24    1
    15    25    26    1
    16    25    27    1
    17    24    23   ar
    18    15    14   ar
    19    33    14   ar
    20    21    22   ar
    21    14    13    1
    22    23    22   ar
    23    13    12    1
    24    13    34    1
    25    35    34    2
    26    35     7    1
    27    12    11    1
    28    34    10    1
    29     6     7    1
    30     6     5    1
    31     7     8    2
    32    11    10    2
    33    10     9    1
    34     5     4    1
    35     5    36    1
    36     4     3    1
    37    37    36    1
    38    37     2    1
    39     8     9    1
    40     2     3    1
    41     2     1    1
