@<TRIPOS>MOLECULE
2xnp_WCX_A_1.pdb
 39 43 0 0 0
SMALL
GASTEIGER

@<TRIPOS>ATOM
      1  C01      -26.8380   -1.2510   13.6490 C.3   1280  WCX1280     0.0523
      2  C02      -26.3110   -1.8480   14.9740 C.3   1280  WCX1280     0.1882
      3  O03      -25.0880   -2.4870   14.6880 O.3   1280  WCX1280    -0.4746
      4  C04      -24.5630   -3.4050   15.6230 C.ar  1280  WCX1280     0.1445
      5  C05      -25.3160   -3.7060   16.8750 C.ar  1280  WCX1280     0.0519
      6  C06      -24.6990   -4.6340   17.8670 C.ar  1280  WCX1280     0.0562
      7  N09      -26.0410   -6.0280   20.8390 N.2   1280  WCX1280    -0.2464
      8  C08      -25.3470   -6.1620   19.5960 C.3   1280  WCX1280     0.2240
      9  N07      -25.3090   -4.9020   19.0310 N.pl3 1280  WCX1280    -0.2647
     10  C23      -25.9620   -3.9740   19.8690 C.2   1280  WCX1280     0.0667
     11  C22      -26.2190   -2.5100   19.7450 C.2   1280  WCX1280    -0.0018
     12  C21      -26.9360   -1.8180   20.8040 C.3   1280  WCX1280     0.0912
     13  C12      -27.3880   -2.5920   21.9420 C.2   1280  WCX1280     0.1218
     14  O13      -28.0810   -1.9690   23.0030 O.2   1280  WCX1280    -0.4829
     15  C14      -29.0850   -2.8440   23.5230 C.3   1280  WCX1280     0.1682
     16  C15      -30.4220   -2.1050   23.7740 C.3   1280  WCX1280     0.0608
     17  C16      -30.1890   -0.7550   24.4930 C.3   1280  WCX1280     0.0758
     18  N17      -29.3360   -0.8500   25.6920 N.3   1280  WCX1280    -0.2713
     19  C18      -29.0850    0.4060   26.4420 C.3   1280  WCX1280     0.0896
     20  C19      -28.0690   -1.6130   25.4850 C.3   1280  WCX1280     0.0758
     21  C20      -28.3150   -3.0170   24.8530 C.3   1280  WCX1280     0.0608
     22  C11      -27.1430   -4.0200   22.0610 C.2   1280  WCX1280     0.0527
     23  C10      -26.4270   -4.7070   20.9760 C.2   1280  WCX1280     0.0940
     24  C24      -23.4020   -5.2640   17.6240 C.ar  1280  WCX1280     0.0152
     25  C25      -22.6720   -4.9710   16.3600 C.ar  1280  WCX1280     0.0089
     26  C26      -23.2520   -4.0380   15.3660 C.ar  1280  WCX1280     0.0906
     27  C27      -22.4350   -3.7670   14.0760 C.2   1280  WCX1280     0.2871
     28  N28      -22.9500   -2.8950   13.0170 N.am  1280  WCX1280    -0.0836
     29  O29      -21.3930   -4.3080   13.9570 O.2   1280  WCX1280    -0.2666
     30  C30      -26.0460   -0.7240   16.0120 C.ar  1280  WCX1280     0.0211
     31  C31      -24.7430   -0.0600   16.0460 C.ar  1280  WCX1280    -0.0009
     32  C32      -24.5160    1.0090   17.0070 C.ar  1280  WCX1280    -0.0002
     33  C33      -25.5930    1.4160   17.9450 C.ar  1280  WCX1280    -0.0001
     34  C34      -26.9240    0.7480   17.9050 C.ar  1280  WCX1280     0.0036
     35  C35      -27.1460   -0.2940   16.9540 C.ar  1280  WCX1280     0.0708
     36  C36      -28.5360   -0.9970   16.9110 C.3   1280  WCX1280     0.4184
     37  F39      -29.3350   -0.3830   17.8090 F     1280  WCX1280    -0.1659
     38  F38      -28.3990   -2.3040   17.2720 F     1280  WCX1280    -0.1659
     39  F37      -29.1130   -0.9090   15.6580 F     1280  WCX1280    -0.1659
@<TRIPOS>BOND
     1    28    27   am
     2     1     2    1
     3    29    27    2
     4    27    26    1
     5     3     2    1
     6     3     4    1
     7     2    30    1
     8    26     4   ar
     9    26    25   ar
    10     4     5   ar
    11    39    36    1
    12    30    31   ar
    13    30    35   ar
    14    31    32   ar
    15    25    24   ar
    16     5     6   ar
    17    36    35    1
    18    36    38    1
    19    36    37    1
    20    35    34   ar
    21    32    33   ar
    22    24     6   ar
    23     6     9    1
    24    34    33   ar
    25     9     8    1
    26     9    10    1
    27     8     7    1
    28    11    10    2
    29    11    12    1
    30    10    23    1
    31    12    13    1
    32     7    23    2
    33    23    22    1
    34    13    22    2
    35    13    14    1
    36    14    15    1
    37    15    16    1
    38    15    21    1
    39    16    17    1
    40    17    18    1
    41    21    20    1
    42    20    18    1
    43    18    19    1
