@<TRIPOS>MOLECULE
2xns_GDP_A_1.pdb
 28 30 0 0 0
SMALL
GASTEIGER

@<TRIPOS>ATOM
      1  PB       -36.4630   15.0860  115.7290 P.3   1348  GDP1348     0.5373
      2  O1B      -35.8030   15.2040  114.3750 O.2   1348  GDP1348    -0.2221
      3  O2B      -35.4490   15.3060  116.8220 O.3   1348  GDP1348    -0.1143
      4  O3B      -37.0210   13.6970  115.9060 O.3   1348  GDP1348    -0.1143
      5  O3A      -37.6530   16.1670  115.8190 O.3   1348  GDP1348    -0.2261
      6  PA       -37.6250   17.3430  116.9170 P.3   1348  GDP1348     0.2231
      7  O1A      -38.8040   18.2670  116.7390 O.2   1348  GDP1348    -0.5169
      8  O2A      -36.3540   18.1400  116.7890 O.3   1348  GDP1348    -0.4370
      9  O5'      -37.7380   16.5180  118.2950 O.3   1348  GDP1348    -0.3111
     10  C5'      -37.5060   17.1440  119.5490 C.3   1348  GDP1348     0.1813
     11  C4'      -38.8010   17.5990  120.2270 C.3   1348  GDP1348     0.1799
     12  O4'      -38.5050   18.0830  121.5370 O.3   1348  GDP1348    -0.3326
     13  C3'      -39.4610   18.7800  119.5480 C.3   1348  GDP1348     0.2158
     14  O3'      -40.8380   18.7630  119.9180 O.3   1348  GDP1348    -0.2175
     15  C2'      -38.7960   19.9970  120.1510 C.3   1348  GDP1348     0.2310
     16  O2'      -39.6800   21.1180  120.2640 O.3   1348  GDP1348    -0.2158
     17  C1'      -38.3500   19.5080  121.5220 C.3   1348  GDP1348     0.2293
     18  N9       -36.9300   19.8790  121.7690 N.pl3 1348  GDP1348    -0.2354
     19  C8       -35.8850   19.7090  120.9320 C.3   1348  GDP1348     0.2246
     20  N7       -34.7360   20.1660  121.4780 N.2   1348  GDP1348    -0.2322
     21  C5       -35.0460   20.6470  122.6900 C.2   1348  GDP1348     0.2182
     22  C6       -34.3100   21.2760  123.7980 C.1   1348  GDP1348     0.2372
     23  O6       -33.0800   21.4560  123.6880 O.2   1348  GDP1348    -0.2069
     24  N1       -34.9910   21.6380  124.8960 N.2   1348  GDP1348    -0.2485
     25  C2       -36.3130   21.4430  125.0120 C.1   1348  GDP1348     0.2531
     26  N2       -36.9480   21.8220  126.1430 N.pl3 1348  GDP1348    -0.0226
     27  N3       -37.0480   20.8700  124.0350 N.2   1348  GDP1348    -0.3074
     28  C4       -36.4820   20.4560  122.8800 C.2   1348  GDP1348     0.2300
@<TRIPOS>BOND
     1     2     1    2
     2     1     5    1
     3     1     4    1
     4     1     3    1
     5     5     6    1
     6     7     6    2
     7     8     6    1
     8     6     9    1
     9     9    10    1
    10    13    14    1
    11    13    15    1
    12    13    11    1
    13    10    11    1
    14    15    16    1
    15    15    17    1
    16    11    12    1
    17    19    20    1
    18    19    18    1
    19    20    21    2
    20    17    12    1
    21    17    18    1
    22    18    28    1
    23    21    28    1
    24    21    22    1
    25    28    27    2
    26    23    22    2
    27    22    24    2
    28    27    25    2
    29    24    25    2
    30    25    26    1
