@<TRIPOS>MOLECULE
2xnt_VU2_A_1.pdb
 18 19 0 0 0
SMALL
GASTEIGER

@<TRIPOS>ATOM
      1  C1        61.7960   79.4970    2.7400 C.3   301  VU2301      0.1433
      2  C2        58.1380   76.3160    1.4080 C.ar  301  VU2301     -0.0000
      3  C3        59.1170   76.8150    0.5470 C.ar  301  VU2301     -0.0002
      4  C7        57.8740   76.9620    2.6180 C.ar  301  VU2301     -0.0002
      5  C9        58.8490   81.3120    1.3420 C.3   301  VU2301      0.1690
      6  C10       58.2830   80.8680    0.0100 C.ar  301  VU2301      0.0073
      7  C11       58.9420   81.1970   -1.1780 C.ar  301  VU2301     -0.0010
      8  C12       58.4180   80.7860   -2.4060 C.ar  301  VU2301      0.0111
      9  C13       57.2370   80.0400   -2.4530 C.ar  301  VU2301      0.0577
     10  C14       56.5810   79.7060   -1.2650 C.ar  301  VU2301      0.0111
     11  C15       57.1050   80.1190   -0.0360 C.ar  301  VU2301     -0.0010
     12  N2        62.6060   79.5360    1.4880 N.3   301  VU2301     -0.1283
     13  C4        59.8340   77.9590    0.8980 C.ar  301  VU2301     -0.0019
     14  C5        59.5780   78.5990    2.1140 C.ar  301  VU2301      0.0060
     15  C6        58.5910   78.1070    2.9710 C.ar  301  VU2301     -0.0019
     16  O1        60.1860   80.8260    1.4720 O.3   301  VU2301     -0.3456
     17 CL         56.5680   79.5170   -4.0370 Cl    301  VU2301     -0.0822
     18  C8        60.3250   79.8240    2.4830 C.3   301  VU2301      0.1568
@<TRIPOS>BOND
     1    17     9    1
     2     9     8   ar
     3     9    10   ar
     4     8     7   ar
     5    10    11   ar
     6     7     6   ar
     7    11     6   ar
     8     6     5    1
     9     3    13   ar
    10     3     2   ar
    11    13    14   ar
    12     5    16    1
    13     2     4   ar
    14    16    18    1
    15    12     1    1
    16    14    18    1
    17    14    15   ar
    18    18     1    1
    19     4    15   ar
