@<TRIPOS>MOLECULE
2xnu_VU3_C_1.pdb
 23 26 0 0 0
SMALL
GASTEIGER

@<TRIPOS>ATOM
      1  CAW       12.5770   56.7090   54.9110 C.3   1206  VU31206     0.0720
      2  CAO       12.1230   57.1400   56.2930 C.2   1206  VU31206     0.0925
      3  NAQ       11.7100   58.3910   56.6230 N.2   1206  VU31206    -0.4105
      4  CAX       11.4420   58.4890   57.9400 C.2   1206  VU31206     0.1264
      5  CAN       10.9830   59.5120   58.7710 C.2   1206  VU31206     0.0275
      6  CAJ       10.8010   59.2590   60.1340 C.2   1206  VU31206    -0.0188
      7  CAF       11.0930   57.9960   60.6580 C.3   1206  VU31206     0.0518
      8  CAI       11.5530   56.9800   59.8170 C.2   1206  VU31206    -0.0227
      9  CAM       11.7260   57.2400   58.4550 C.2   1206  VU31206     0.0101
     10  CAP       14.0990   56.8700   54.7800 C.3   1206  VU31206     0.0792
     11  CAV       16.7720   60.7320   59.4670 C.ar  1206  VU31206    -0.0043
     12  CAD       16.8110   61.6110   60.5510 C.ar  1206  VU31206    -0.0003
     13  CAC       15.7960   62.5480   60.7390 C.ar  1206  VU31206    -0.0000
     14  CAR       14.7570   62.6370   59.8140 C.ar  1206  VU31206    -0.0003
     15  CAE       14.7330   61.7790   58.7130 C.ar  1206  VU31206    -0.0043
     16  CAU       15.7270   60.8060   58.5440 C.ar  1206  VU31206    -0.0224
     17  CAS       15.7370   59.9280   57.3440 C.3   1206  VU31206     0.0251
     18  CAT       14.5030   60.1440   56.4670 C.3   1206  VU31206     0.0217
     19  CAK       16.0190   58.4500   57.6410 C.3   1206  VU31206     0.0217
     20  CAG       15.8970   57.5820   56.3810 C.3   1206  VU31206     0.0724
     21  CAL       14.5360   59.2290   55.2490 C.3   1206  VU31206     0.0724
     22  C17       12.1810   56.3490   57.4370 C.3   1206  VU31206     0.0829
     23  N1        14.5830   57.8570   55.7670 N.3   1206  VU31206    -0.2723
@<TRIPOS>BOND
     1    10     1    1
     2    10    23    1
     3     1     2    1
     4    21    23    1
     5    21    18    1
     6    23    20    1
     7     2     3    2
     8     2    22    1
     9    20    19    1
    10    18    17    1
    11     3     4    2
    12    17    19    1
    13    17    16    1
    14    22     9    1
    15     4     9    1
    16     4     5    1
    17     9     8    2
    18    16    15   ar
    19    16    11   ar
    20    15    14   ar
    21     5     6    2
    22    11    12   ar
    23    14    13   ar
    24     8     7    1
    25     6     7    1
    26    12    13   ar
