@<TRIPOS>MOLECULE
2xnv_VU3_A_1.pdb
 23 26 0 0 0
SMALL
GASTEIGER

@<TRIPOS>ATOM
      1  CAW        1.1110   49.6980  172.4040 C.3   301  VU3301      0.0720
      2  CAO        2.2890   50.1240  173.2370 C.2   301  VU3301      0.0921
      3  NAQ        2.4270   49.9420  174.5760 N.2   301  VU3301     -0.4144
      4  CAX        3.6010   50.4570  175.0000 C.2   301  VU3301      0.1089
      5  CAN        4.2400   50.5350  176.2370 C.3   301  VU3301      0.0846
      6  CAJ        5.4800   51.1630  176.3110 C.2   301  VU3301     -0.0187
      7  CAF        6.0950   51.6730  175.1630 C.2   301  VU3301     -0.0044
      8  CAI        5.4670   51.5690  173.9260 C.2   301  VU3301     -0.0020
      9  CAM        4.2120   50.9630  173.8660 C.2   301  VU3301      0.0102
     10  CAP        0.7810   48.2320  172.6660 C.3   301  VU3301      0.0792
     11  CAV       -2.6860   51.3160  175.4150 C.ar  301  VU3301     -0.0043
     12  CAD       -2.9660   52.5080  176.0800 C.ar  301  VU3301     -0.0003
     13  CAC       -2.6950   53.6950  175.4120 C.ar  301  VU3301     -0.0000
     14  CAR       -2.1540   53.7080  174.1270 C.ar  301  VU3301     -0.0003
     15  CAE       -1.9030   52.5240  173.4680 C.ar  301  VU3301     -0.0043
     16  CAU       -2.2110   51.3250  174.1060 C.ar  301  VU3301     -0.0224
     17  CAS       -1.8680   50.0680  173.4260 C.3   301  VU3301      0.0251
     18  CAT       -2.0940   49.9780  171.9270 C.3   301  VU3301      0.0217
     19  CAK       -2.3580   48.8100  174.0890 C.3   301  VU3301      0.0217
     20  CAG       -1.3560   47.7180  173.7290 C.3   301  VU3301      0.0724
     21  CAL       -1.3360   48.7580  171.3960 C.3   301  VU3301      0.0724
     22  C17        3.4030   50.7720  172.7140 C.3   301  VU3301      0.0829
     23  N1        -0.6510   47.9390  172.4430 N.3   301  VU3301     -0.2723
@<TRIPOS>BOND
     1    21    18    1
     2    21    23    1
     3    18    17    1
     4     1    10    1
     5     1     2    1
     6    23    10    1
     7    23    20    1
     8    22     2    1
     9    22     9    1
    10     2     3    2
    11    17    19    1
    12    17    16    1
    13    15    16   ar
    14    15    14   ar
    15    20    19    1
    16     9     8    2
    17     9     4    1
    18     8     7    1
    19    16    11   ar
    20    14    13   ar
    21     3     4    2
    22     4     5    1
    23     7     6    2
    24    13    12   ar
    25    11    12   ar
    26     5     6    1
