@<TRIPOS>MOLECULE
2xo8_AD9_A_1.pdb
 31 33 0 0 0
SMALL
GASTEIGER

@<TRIPOS>ATOM
      1  VG        62.7520   39.8060  -28.1080 V     1779  AD91779     0.0000
      2  O1G       60.8970   40.6880  -28.2660 O.3   1779  AD91779     0.0000
      3  O2G       62.9280   37.8000  -28.5740 O.3   1779  AD91779     0.0000
      4  O3G       64.3760   41.1370  -28.2690 O.3   1779  AD91779     0.0000
      5  PB        64.0240   39.4550  -25.1840 P.3   1779  AD91779     0.0000
      6  O1B       64.2660   38.0300  -24.7500 O.3   1779  AD91779    -0.5000
      7  O2B       65.2030   40.0050  -25.8790 O.2   1779  AD91779    -0.5000
      8  O3B       62.7200   39.4900  -26.0330 O.3   1779  AD91779     0.0000
      9  PA        64.2940   41.3100  -23.0480 P.3   1779  AD91779     0.0000
     10  O1A       65.6720   40.7470  -22.8000 O.3   1779  AD91779    -0.5000
     11  O2A       64.3950   42.6660  -23.7360 O.2   1779  AD91779    -0.5000
     12  O3A       63.4580   40.3760  -24.0100 O.3   1779  AD91779     0.0000
     13  O5'       63.4260   41.4000  -21.7380 O.3   1779  AD91779     0.0000
     14  C5'       62.1740   41.9210  -21.7310 C.3   1779  AD91779     0.0000
     15  C4'       61.8490   42.7990  -20.5850 C.3   1779  AD91779     0.0000
     16  O4'       61.7110   42.0120  -19.3930 O.3   1779  AD91779     0.0000
     17  C3'       62.9360   43.7390  -20.3190 C.3   1779  AD91779     0.0000
     18  O3'       62.8260   44.9550  -21.0350 O.3   1779  AD91779     0.0000
     19  C2'       62.8260   43.9580  -18.9200 C.3   1779  AD91779     0.0000
     20  O2'       61.8000   44.8820  -18.5880 O.3   1779  AD91779     0.0000
     21  C1'       62.4580   42.6090  -18.3900 C.3   1779  AD91779     0.0000
     22  N9        63.6210   41.8280  -17.9840 N.pl3 1779  AD91779     0.5000
     23  C8        64.1610   40.7620  -18.6050 C.3   1779  AD91779     0.0000
     24  N7        65.2040   40.3060  -17.8900 N.2   1779  AD91779     0.0000
     25  C5        65.3120   41.0900  -16.7990 C.2   1779  AD91779     0.0000
     26  C6        66.1700   41.1180  -15.6890 C.2   1779  AD91779     0.0000
     27  N6        67.2540   40.1950  -15.5290 N.pl3 1779  AD91779     0.5000
     28  N1        65.9610   42.0750  -14.7860 N.2   1779  AD91779     0.5000
     29  C2        64.9920   42.9710  -14.8660 C.3   1779  AD91779     0.0000
     30  C4        64.3060   42.0600  -16.8650 C.2   1779  AD91779     0.0000
     31  N3        64.1490   42.9660  -15.8980 N.2   1779  AD91779     0.5000
@<TRIPOS>BOND
     1     3     1    1
     2     4     1    1
     3     2     1    1
     4     1     8    1
     5     8     5    1
     6     7     5    2
     7     5     6    1
     8     5    12    1
     9    12     9    1
    10    11     9    2
    11     9    10    1
    12     9    13    1
    13    13    14    1
    14    14    15    1
    15    18    17    1
    16    15    17    1
    17    15    16    1
    18    17    19    1
    19    16    21    1
    20    19    20    1
    21    19    21    1
    22    23    22    1
    23    23    24    1
    24    21    22    1
    25    22    30    1
    26    24    25    2
    27    30    25    1
    28    30    31    2
    29    25    26    1
    30    31    29    1
    31    26    27    1
    32    26    28    2
    33    29    28    1
