@<TRIPOS>MOLECULE
2xo8_H70_A_1.pdb
 17 18 0 0 0
SMALL
GASTEIGER

@<TRIPOS>ATOM
      1  CH        66.8890   48.1560  -49.9410 C.ar  1778  H701778     0.0974
      2  CG        67.4570   47.3830  -47.6330 C.ar  1778  H701778     0.0707
      3  CD1       68.4000   47.0320  -46.5790 C.2   1778  H701778     0.1419
      4  CD2       66.0720   47.2670  -47.3460 C.ar  1778  H701778     0.0172
      5  CE2       65.1070   47.5820  -48.3120 C.ar  1778  H701778     0.0588
      6  CR        67.8900   47.8320  -48.9380 C.ar  1778  H701778     0.2086
      7  O         69.2220   47.9650  -49.2820 O.3   1778  H701778    -0.2856
      8  C3        65.4980   48.0290  -49.6200 C.ar  1778  H701778     0.0260
      9  C7        69.0620   46.4840  -44.4840 C.2   1778  H701778     0.1718
     10  C8        70.2240   46.5150  -45.2920 C.2   1778  H701778     0.0792
     11  C9        69.8020   46.8640  -46.6350 C.2   1778  H701778     0.0734
     12  N11       67.9790   46.7980  -45.2750 N.2   1778  H701778    -0.3941
     13 BR1        70.8890   47.0480  -48.1220 Br    1778  H701778    -0.0457
     14 BR2        71.9260   46.1720  -44.7200 Br    1778  H701778    -0.0452
     15 CL1        63.4730   47.4120  -47.8910 Cl    1778  H701778    -0.0822
     16 BR3        68.9130   46.1000  -42.6780 Br    1778  H701778    -0.0133
     17 CL2        67.3210   48.6850  -51.4950 Cl    1778  H701778    -0.0789
@<TRIPOS>BOND
     1    17     1    1
     2     1     8   ar
     3     1     6   ar
     4     8     5   ar
     5     7     6    1
     6     6     2   ar
     7     5    15    1
     8     5     4   ar
     9    13    11    1
    10     2     4   ar
    11     2     3    1
    12    11     3    1
    13    11    10    2
    14     3    12    2
    15    10    14    1
    16    10     9    1
    17    12     9    2
    18     9    16    1
