@<TRIPOS>MOLECULE
2xoc_ADE_B_1.pdb
 10 11 0 0 0
SMALL
GASTEIGER

@<TRIPOS>ATOM
      1  N9        64.6930  -23.2930    4.5790 N.2   1664  ADE1664    -0.1914
      2  C8        64.7320  -23.8720    5.8190 C.3   1664  ADE1664     0.2618
      3  N7        63.5560  -23.9490    6.3980 N.2   1664  ADE1664    -0.2267
      4  C5        62.6880  -23.3830    5.4770 C.2   1664  ADE1664     0.2303
      5  C6        61.2970  -23.1600    5.4880 C.2   1664  ADE1664     0.4393
      6  N6        60.4910  -23.5010    6.4990 N.pl3 1664  ADE1664     0.2185
      7  N1        60.7550  -22.5730    4.4050 N.2   1664  ADE1664    -0.0265
      8  C2        61.5440  -22.2300    3.3840 C.3   1664  ADE1664     0.4008
      9  N3        62.8590  -22.3860    3.2590 N.2   1664  ADE1664    -0.1640
     10  C4        63.3740  -22.9740    4.3510 C.1   1664  ADE1664     0.0579
@<TRIPOS>BOND
     1     9     8    1
     2     9    10    2
     3     8     7    1
     4    10     1    2
     5    10     4    1
     6     7     5    2
     7     1     2    1
     8     4     5    1
     9     4     3    2
    10     5     6    1
    11     2     3    1
