@<TRIPOS>MOLECULE
2xoc_ADP_A_1.pdb
 27 29 0 0 0
SMALL
GASTEIGER

@<TRIPOS>ATOM
      1  PB        67.0420   -0.1440    1.6090 P.3   1665  ADP1665     0.5373
      2  O1B       67.4080   -1.2640    0.6500 O.2   1665  ADP1665    -0.2221
      3  O2B       67.5020    1.2060    1.0960 O.3   1665  ADP1665    -0.1143
      4  O3B       67.3970   -0.4180    3.0550 O.3   1665  ADP1665    -0.1143
      5  PA        64.3770   -0.8400    2.5370 P.3   1665  ADP1665     0.2231
      6  O1A       62.9760   -0.4310    2.1260 O.2   1665  ADP1665    -0.5169
      7  O2A       64.7240   -2.3140    2.6500 O.3   1665  ADP1665    -0.4370
      8  O3A       65.4220   -0.1180    1.5220 O.3   1665  ADP1665    -0.2261
      9  O5'       64.6470   -0.1830    3.9860 O.3   1665  ADP1665    -0.3111
     10  C5'       64.2230    1.1430    4.3130 C.3   1665  ADP1665     0.1813
     11  C4'       64.2380    1.2460    5.8300 C.3   1665  ADP1665     0.1821
     12  O4'       63.2840    0.3190    6.3630 O.3   1665  ADP1665    -0.3135
     13  C3'       65.6090    0.8550    6.3660 C.3   1665  ADP1665     0.2184
     14  O3'       66.0580    1.8220    7.3230 O.3   1665  ADP1665    -0.2174
     15  C2'       65.3960   -0.4500    7.0980 C.3   1665  ADP1665     0.2570
     16  O2'       66.1860   -0.4430    8.2850 O.3   1665  ADP1665    -0.2130
     17  C1'       63.9130   -0.4200    7.4150 C.3   1665  ADP1665     0.3186
     18  N9        63.3480   -1.7840    7.5740 N.pl3 1665  ADP1665    -0.1439
     19  C8        63.7440   -2.9340    6.9840 C.3   1665  ADP1665     0.3377
     20  N7        62.9800   -3.9790    7.4040 N.2   1665  ADP1665    -0.2095
     21  C5        62.0750   -3.5020    8.2870 C.2   1665  ADP1665     0.2526
     22  C6        60.9640   -4.0540    9.1120 C.2   1665  ADP1665     0.4393
     23  N6        60.6350   -5.3740    9.0920 N.pl3 1665  ADP1665     0.2180
     24  N1        60.2800   -3.1870    9.8960 N.2   1665  ADP1665     0.0021
     25  C2        60.5780   -1.8710    9.9370 C.3   1665  ADP1665     0.5254
     26  N3        61.5660   -1.3070    9.2200 N.2   1665  ADP1665    -0.0055
     27  C4        62.3350   -2.0570    8.3960 C.2   1665  ADP1665     0.3518
@<TRIPOS>BOND
     1     2     1    2
     2     3     1    1
     3     8     1    1
     4     8     5    1
     5     1     4    1
     6     6     5    2
     7     5     7    1
     8     5     9    1
     9     9    10    1
    10    10    11    1
    11    11    12    1
    12    11    13    1
    13    12    17    1
    14    13    15    1
    15    13    14    1
    16    19    20    1
    17    19    18    1
    18    15    17    1
    19    15    16    1
    20    20    21    2
    21    17    18    1
    22    18    27    1
    23    21    27    1
    24    21    22    1
    25    27    26    2
    26    23    22    1
    27    22    24    2
    28    26    25    1
    29    24    25    1
