@<TRIPOS>MOLECULE
2xod_FMN_A_1.pdb
 31 33 0 0 0
SMALL
GASTEIGER

@<TRIPOS>ATOM
      1  N1         0.5570    1.0540   -0.4290 N.2   1119  FMN1119    -0.2890
      2  C2         0.6280    0.1930   -1.4440 C.1   1119  FMN1119     0.3669
      3  O2         0.3500    0.5460   -2.6070 O.2   1119  FMN1119    -0.1744
      4  N3         1.0480   -1.1000   -1.2260 N.2   1119  FMN1119    -0.2300
      5  C4         1.4420   -1.6100   -0.0090 C.1   1119  FMN1119     0.2513
      6  O4         1.8290   -2.7950    0.0700 O.2   1119  FMN1119    -0.2057
      7  C4A        1.3940   -0.6940    1.0630 C.2   1119  FMN1119     0.2700
      8  N5         1.7360   -1.1030    2.3000 N.2   1119  FMN1119    -0.3878
      9  C5A        1.7920   -0.1290    3.3270 C.2   1119  FMN1119     0.1320
     10  C6         2.2680   -0.4550    4.5650 C.2   1119  FMN1119     0.0250
     11  C7         2.2900    0.4120    5.6230 C.2   1119  FMN1119    -0.0238
     12  C7M        2.8360   -0.0170    6.9660 C.3   1119  FMN1119     0.0308
     13  C8         1.7970    1.6850    5.3940 C.2   1119  FMN1119    -0.0280
     14  C8M        1.7290    2.6750    6.5950 C.3   1119  FMN1119     0.0304
     15  C9         1.3110    2.0820    4.1780 C.2   1119  FMN1119    -0.0041
     16  C9A        1.3070    1.1880    3.1160 C.3   1119  FMN1119     0.1497
     17  N10        0.8150    1.5090    1.8420 N.pl3 1119  FMN1119    -0.2691
     18  C10        0.9020    0.6460    0.7780 C.2   1119  FMN1119     0.2416
     19  C1'        0.3800    2.9150    1.5840 C.3   1119  FMN1119     0.1294
     20  C2'       -1.0540    3.1450    2.0750 C.3   1119  FMN1119     0.2044
     21  O2'       -1.9790    2.2510    1.4230 O.3   1119  FMN1119    -0.2185
     22  C3'       -1.4260    4.5850    1.7370 C.3   1119  FMN1119     0.2164
     23  O3'       -0.7300    5.4750    2.6200 O.3   1119  FMN1119    -0.2175
     24  C4'       -2.9320    4.8730    1.8460 C.3   1119  FMN1119     0.2147
     25  O4'       -3.1760    6.1670    1.2940 O.3   1119  FMN1119    -0.2176
     26  C5'       -3.4020    4.8140    3.2890 C.3   1119  FMN1119     0.1892
     27  O5'       -4.8450    5.0670    3.2690 O.3   1119  FMN1119    -0.2674
     28  P         -5.5490    5.5900    4.5820 P.3   1119  FMN1119     0.5327
     29  O1P       -4.8090    6.9090    4.9680 O.3   1119  FMN1119    -0.1145
     30  O2P       -5.4350    4.5960    5.7180 O.3   1119  FMN1119    -0.1145
     31  O3P       -6.9460    5.9240    4.1330 O.2   1119  FMN1119    -0.2224
@<TRIPOS>BOND
     1     3     2    2
     2     2     4    2
     3     2     1    2
     4     4     5    2
     5     1    18    2
     6     5     6    2
     7     5     7    1
     8    18     7    1
     9    18    17    1
    10     7     8    2
    11    25    24    1
    12    21    20    1
    13    19    17    1
    14    19    20    1
    15    22    24    1
    16    22    20    1
    17    22    23    1
    18    17    16    1
    19    24    26    1
    20     8     9    2
    21    16     9    1
    22    16    15    1
    23    27    26    1
    24    27    28    1
    25     9    10    1
    26    31    28    2
    27    15    13    2
    28    10    11    2
    29    28    29    1
    30    28    30    1
    31    13    11    1
    32    13    14    1
    33    11    12    1
