@<TRIPOS>MOLECULE
2xoe_FMN_A_1.pdb
 31 33 0 0 0
SMALL
GASTEIGER

@<TRIPOS>ATOM
      1  N1         0.5890    1.0350   -0.8900 N.2   1119  FMN1119    -0.2887
      2  C2         0.5150    0.2320   -1.9730 C.1   1119  FMN1119     0.3669
      3  O2         0.2520    0.6320   -3.1110 O.2   1119  FMN1119    -0.1744
      4  N3         0.9260   -1.0760   -1.7820 N.2   1119  FMN1119    -0.2300
      5  C4         1.2660   -1.6110   -0.5660 C.1   1119  FMN1119     0.2513
      6  O4         1.5750   -2.8530   -0.5420 O.2   1119  FMN1119    -0.2057
      7  C4A        1.3100   -0.7810    0.5390 C.2   1119  FMN1119     0.2706
      8  N5         1.6380   -1.2780    1.7530 N.2   1119  FMN1119    -0.3841
      9  C5A        1.7670   -0.4220    2.8350 C.2   1119  FMN1119     0.1452
     10  C6         2.2200   -0.8860    4.0360 C.2   1119  FMN1119     0.0252
     11  C7         2.2820   -0.0340    5.1300 C.2   1119  FMN1119    -0.0375
     12  C7M        2.7500   -0.5040    6.4710 C.3   1119  FMN1119     0.0268
     13  C8         1.8800    1.2930    4.9930 C.3   1119  FMN1119     0.0417
     14  C8M        1.9900    2.2130    6.1620 C.3   1119  FMN1119     0.0091
     15  C9         1.4380    1.7890    3.7560 C.2   1119  FMN1119    -0.0049
     16  C9A        1.3860    0.9420    2.6690 C.2   1119  FMN1119     0.0795
     17  N10        0.9290    1.3740    1.4540 N.pl3 1119  FMN1119    -0.2545
     18  C10        0.8970    0.5500    0.3600 C.2   1119  FMN1119     0.2449
     19  C1'        0.5170    2.7930    1.2060 C.3   1119  FMN1119     0.1336
     20  C2'       -0.9000    3.0480    1.7560 C.3   1119  FMN1119     0.2048
     21  O2'       -1.8670    2.2240    1.1080 O.3   1119  FMN1119    -0.2185
     22  C3'       -1.2870    4.5120    1.4550 C.3   1119  FMN1119     0.2165
     23  O3'       -0.5830    5.3560    2.3630 O.3   1119  FMN1119    -0.2175
     24  C4'       -2.7570    4.7540    1.5790 C.3   1119  FMN1119     0.2147
     25  O4'       -2.9620    6.1030    1.0370 O.3   1119  FMN1119    -0.2176
     26  C5'       -3.2150    4.6950    3.0550 C.3   1119  FMN1119     0.1892
     27  O5'       -4.6500    4.9830    3.0480 O.3   1119  FMN1119    -0.2674
     28  P         -5.3340    5.5070    4.3660 P.3   1119  FMN1119     0.5327
     29  O1P       -4.5280    6.8340    4.7850 O.3   1119  FMN1119    -0.1145
     30  O2P       -5.1900    4.5120    5.4780 O.3   1119  FMN1119    -0.1145
     31  O3P       -6.7310    5.8680    3.9960 O.2   1119  FMN1119    -0.2224
@<TRIPOS>BOND
     1     3     2    2
     2     2     4    2
     3     2     1    2
     4     4     5    2
     5     1    18    2
     6     5     6    2
     7     5     7    1
     8    18     7    1
     9    18    17    1
    10     7     8    2
    11    25    24    1
    12    21    20    1
    13    19    17    1
    14    19    20    1
    15    17    16    1
    16    22    24    1
    17    22    20    1
    18    22    23    1
    19    24    26    1
    20     8     9    2
    21    16     9    1
    22    16    15    2
    23     9    10    1
    24    27    26    1
    25    27    28    1
    26    15    13    1
    27    31    28    2
    28    10    11    2
    29    28    29    1
    30    28    30    1
    31    13    11    1
    32    13    14    1
    33    11    12    1
