@<TRIPOS>MOLECULE
2xog_SFB_A_1.pdb
 40 44 0 0 0
SMALL
GASTEIGER

@<TRIPOS>ATOM
      1  N1A       35.4910    6.8770   22.3960 N.2   1125  SFB1125     0.0021
      2  C1B       39.0070    6.6920   18.6440 C.3   1125  SFB1125     0.3186
      3  C1C       37.6050    0.4220   11.9550 C.3   1125  SFB1125     0.2374
      4  N1D       36.7840   -0.8110   12.2110 N.am  1125  SFB1125    -0.1767
      5  C2A       35.8810    7.8370   21.5430 C.3   1125  SFB1125     0.5254
      6  C2B       40.4810    6.8950   18.9770 C.3   1125  SFB1125     0.2570
      7  O2B       40.6700    8.1940   19.5500 O.3   1125  SFB1125    -0.2130
      8  C2D       35.6360   -0.8080   11.3160 C.1   1125  SFB1125     0.2845
      9  O2D       35.3180    0.1090   10.5540 O.2   1125  SFB1125    -0.1918
     10  N3A       36.8240    7.5980   20.6160 N.2   1125  SFB1125    -0.0055
     11  C3B       41.2140    6.7730   17.6560 C.3   1125  SFB1125     0.2200
     12  O3B       41.8830    7.9970   17.3420 O.3   1125  SFB1125    -0.2174
     13  C3C       38.9560    1.6450   13.5510 C.3   1125  SFB1125     0.0899
     14  N3D       34.8720   -2.0040   11.3950 N.2   1125  SFB1125    -0.2452
     15  C4A       37.4020    6.3730   20.5190 C.2   1125  SFB1125     0.3518
     16  C4B       40.1450    6.4620   16.6100 C.3   1125  SFB1125     0.2010
     17  O4B       38.9500    6.1190   17.3360 O.3   1125  SFB1125    -0.3119
     18  C4C       39.8080    1.1820   12.3700 C.3   1125  SFB1125     0.1543
     19  O4C       38.9970    0.2510   11.6430 O.3   1125  SFB1125    -0.3345
     20  C4D       35.1280   -3.1510   12.2440 C.1   1125  SFB1125     0.2182
     21  O4D       34.3810   -4.0930   12.1950 O.2   1125  SFB1125    -0.2085
     22  C5A       37.0200    5.3630   21.3860 C.2   1125  SFB1125     0.2526
     23  C5B       40.5260    5.3040   15.6890 C.3   1125  SFB1125     0.2766
     24  C5C       41.0390    0.4180   12.8390 C.3   1125  SFB1125     0.2116
     25  O5C       40.6490   -0.5760   13.7980 O.3   1125  SFB1125    -0.2177
     26  C5D       36.3030   -3.0630   13.1110 C.2   1125  SFB1125     0.1242
     27  C6A       36.0440    5.6400   22.3410 C.2   1125  SFB1125     0.4393
     28  N6A       35.6360    4.6870   23.2060 N.pl3 1125  SFB1125     0.2180
     29  C6D       37.0570   -1.9330   13.0600 C.2   1125  SFB1125     0.0929
     30  N7A       37.7440    4.2680   21.0730 N.2   1125  SFB1125    -0.2095
     31  C8A       38.5570    4.5970   20.0370 C.3   1125  SFB1125     0.3377
     32  N9A       38.3410    5.8840   19.7050 N.pl3 1125  SFB1125    -0.1439
     33  C1S       39.2210    2.9020   14.3580 C.3   1125  SFB1125     0.1758
     34  O1S       41.6890    2.3800   14.9430 O.2   1125  SFB1125    -0.1560
     35  C2C       37.5240    1.1850   13.2680 C.3   1125  SFB1125     0.2035
     36  O2C       36.5730    2.2510   13.1540 O.3   1125  SFB1125    -0.2184
     37  O2S       40.0440    1.5740   16.4080 O.2   1125  SFB1125    -0.1560
     38  N3S       40.5430    4.0130   16.3730 N.3   1125  SFB1125    -0.0472
     39  O5B       41.8070    5.5660   15.1020 O.3   1125  SFB1125    -0.1991
     40  SAS       40.4050    2.6510   15.5270 S.O2  1125  SFB1125     0.0599
@<TRIPOS>BOND
     1     9     8    2
     2     8    14    2
     3     8     4   am
     4    14    20    2
     5    19     3    1
     6    19    18    1
     7     3     4    1
     8     3    35    1
     9    21    20    2
    10     4    29    1
    11    20    26    1
    12    18    24    1
    13    18    13    1
    14    24    25    1
    15    29    26    2
    16    36    35    1
    17    35    13    1
    18    13    33    1
    19    33    40    1
    20    34    40    2
    21    39    23    1
    22    40    38    1
    23    40    37    2
    24    23    38    1
    25    23    16    1
    26    16    17    1
    27    16    11    1
    28    17     2    1
    29    12    11    1
    30    11     6    1
    31     2     6    1
    32     2    32    1
    33     6     7    1
    34    32    31    1
    35    32    15    1
    36    31    30    1
    37    15    10    2
    38    15    22    1
    39    10     5    1
    40    30    22    2
    41    22    27    1
    42     5     1    1
    43    27     1    2
    44    27    28    1
