@<TRIPOS>MOLECULE
2xoi_SFB_A_1.pdb
 39 43 0 0 0
SMALL
GASTEIGER

@<TRIPOS>ATOM
      1  N1A       35.3620    5.9940   22.3830 N.2   1125  SFB1125     0.0021
      2  C1B       38.9350    5.5860   18.6820 C.3   1125  SFB1125     0.3186
      3  C1C       37.3860   -0.2510   12.0990 C.3   1125  SFB1125     0.2064
      4  N1D       36.5960   -1.4920   12.2300 N.am  1125  SFB1125    -0.1791
      5  C1S       39.2850    1.8510   14.4210 C.3   1125  SFB1125     0.1732
      6  O1S       39.6900    0.6350   16.6700 O.2   1125  SFB1125    -0.1560
      7  C2A       35.7660    6.9150   21.4920 C.3   1125  SFB1125     0.5254
      8  C2B       40.3690    5.8780   19.1020 C.3   1125  SFB1125     0.2570
      9  O2B       40.4600    7.2290   19.5570 O.3   1125  SFB1125    -0.2130
     10  C2D       35.4470   -1.6890   11.4240 C.1   1125  SFB1125     0.2844
     11  O2D       35.0920   -0.8160   10.6040 O.2   1125  SFB1125    -0.1918
     12  O2S       41.6100    1.1550   15.2970 O.2   1125  SFB1125    -0.1560
     13  N3A       36.7180    6.6300   20.5870 N.2   1125  SFB1125    -0.0055
     14  C3B       41.2090    5.6520   17.8590 C.3   1125  SFB1125     0.2200
     15  O3B       41.9250    6.8360   17.4930 O.3   1125  SFB1125    -0.2174
     16  C3C       38.8410    0.4990   13.8760 C.3   1125  SFB1125     0.0594
     17  N3D       34.7250   -2.8160   11.5350 N.2   1125  SFB1125    -0.2452
     18  N3S       40.4590    2.9330   16.5100 N.3   1125  SFB1125    -0.0472
     19  C4A       37.2940    5.3990   20.5540 C.2   1125  SFB1125     0.3518
     20  C4B       40.2060    5.2790   16.7710 C.3   1125  SFB1125     0.2010
     21  O4B       39.0130    4.8640   17.4520 O.3   1125  SFB1125    -0.3119
     22  C4C       39.6620    0.0360   12.6800 C.3   1125  SFB1125     0.1518
     23  O4C       38.7460   -0.5440   11.7470 O.3   1125  SFB1125    -0.3365
     24  C4D       35.0710   -3.7780   12.4060 C.1   1125  SFB1125     0.2182
     25  O4D       34.3850   -4.8200   12.4950 O.2   1125  SFB1125    -0.2085
     26  C5A       36.8950    4.4320   21.4640 C.2   1125  SFB1125     0.2526
     27  C5B       40.7050    4.1930   15.8200 C.3   1125  SFB1125     0.2766
     28  O5B       42.1070    4.3380   15.5500 O.3   1125  SFB1125    -0.1991
     29  C5C       40.7350   -0.9830   13.0580 C.3   1125  SFB1125     0.2115
     30  O5C       40.1470   -2.1440   13.6590 O.3   1125  SFB1125    -0.2177
     31  C5D       36.1960   -3.6180   13.2110 C.2   1125  SFB1125     0.1242
     32  C6A       35.9080    4.7530   22.3930 C.2   1125  SFB1125     0.4393
     33  N6A       35.4940    3.8330   23.2950 N.pl3 1125  SFB1125     0.2180
     34  C6D       36.9520   -2.4530   13.1020 C.2   1125  SFB1125     0.0928
     35  N7A       37.6160    3.3210   21.2120 N.2   1125  SFB1125    -0.2095
     36  C8A       38.4430    3.5940   20.1740 C.3   1125  SFB1125     0.3377
     37  N9A       38.2380    4.8600   19.7760 N.pl3 1125  SFB1125    -0.1439
     38  SAS       40.2800    1.6320   15.7430 S.O2  1125  SFB1125     0.0598
     39  C2C       37.3980    0.5450   13.4020 C.3   1125  SFB1125     0.0563
@<TRIPOS>BOND
     1    11    10    2
     2    10    17    2
     3    10     4   am
     4    17    24    2
     5    23     3    1
     6    23    22    1
     7     3     4    1
     8     3    39    1
     9     4    34    1
    10    24    25    2
    11    24    31    1
    12    22    29    1
    13    22    16    1
    14    29    30    1
    15    34    31    2
    16    39    16    1
    17    16     5    1
    18     5    38    1
    19    12    38    2
    20    28    27    1
    21    38    18    1
    22    38     6    2
    23    27    18    1
    24    27    20    1
    25    20    21    1
    26    20    14    1
    27    21     2    1
    28    15    14    1
    29    14     8    1
    30     2     8    1
    31     2    37    1
    32     8     9    1
    33    37    36    1
    34    37    19    1
    35    36    35    1
    36    19    13    2
    37    19    26    1
    38    13     7    1
    39    35    26    2
    40    26    32    1
    41     7     1    1
    42     1    32    2
    43    32    33    1
