@<TRIPOS>MOLECULE
2xok_ANP_A_1.pdb
 31 33 0 0 0
SMALL
GASTEIGER

@<TRIPOS>ATOM
      1  PG        53.3840  -23.2160   -2.8300 P.3   600  ANP600      0.4884
      2  O1G       54.7010  -23.6860   -2.0600 O.3   600  ANP600     -0.1240
      3  O2G       53.2030  -24.0250   -4.2070 O.2   600  ANP600     -0.2331
      4  O3G       53.3950  -21.6310   -3.1040 O.3   600  ANP600     -0.1240
      5  PB        51.0100  -24.7260   -2.6270 P.3   600  ANP600      0.4669
      6  O1B       50.1530  -23.9320   -3.6860 O.2   600  ANP600     -0.2351
      7  O2B       51.8220  -25.8380   -3.4190 O.3   600  ANP600     -0.1253
      8  N3B       52.0650  -23.6370   -1.8130 N.3   600  ANP600     -0.0163
      9  PA        50.9560  -26.3820   -0.4140 P.3   600  ANP600      0.2220
     10  O1A       50.8350  -27.8110   -1.0970 O.2   600  ANP600     -0.5170
     11  O2A       52.4520  -25.8890   -0.2100 O.3   600  ANP600     -0.4370
     12  O3A       50.1890  -25.3420   -1.3860 O.3   600  ANP600     -0.2360
     13  O5'       50.1720  -26.3430    0.9780 O.3   600  ANP600     -0.3111
     14  C5'       50.3280  -25.1660    1.7720 C.3   600  ANP600      0.1813
     15  C4'       50.5980  -25.5820    3.2160 C.3   600  ANP600      0.1821
     16  O4'       49.3880  -26.0530    3.7930 O.3   600  ANP600     -0.3135
     17  C3'       51.6020  -26.7110    3.2900 C.3   600  ANP600      0.2184
     18  O3'       52.5940  -26.2370    4.1860 O.3   600  ANP600     -0.2174
     19  C2'       50.8720  -27.9070    3.8780 C.3   600  ANP600      0.2570
     20  O2'       51.5390  -28.4880    4.9910 O.3   600  ANP600     -0.2130
     21  C1'       49.4860  -27.3940    4.2380 C.3   600  ANP600      0.3186
     22  N9        48.3250  -28.1200    3.6930 N.pl3 600  ANP600     -0.1439
     23  C8        47.9340  -28.2440    2.4010 C.3   600  ANP600      0.3377
     24  N7        46.7760  -28.9920    2.2860 N.2   600  ANP600     -0.2095
     25  C5        46.4090  -29.3310    3.5410 C.2   600  ANP600      0.2526
     26  C6        45.3350  -30.0750    4.2510 C.2   600  ANP600      0.4393
     27  N6        44.3400  -30.6500    3.5370 N.pl3 600  ANP600      0.2180
     28  N1        45.3560  -30.1760    5.6020 N.2   600  ANP600      0.0021
     29  C2        46.3290  -29.6170    6.3410 C.3   600  ANP600      0.5254
     30  N3        47.3450  -28.9170    5.8220 N.2   600  ANP600     -0.0055
     31  C4        47.4090  -28.7530    4.4050 C.2   600  ANP600      0.3518
@<TRIPOS>BOND
     1     3     1    2
     2     6     5    2
     3     7     5    1
     4     4     1    1
     5     1     2    1
     6     1     8    1
     7     5     8    1
     8     5    12    1
     9    12     9    1
    10    10     9    2
    11     9    11    1
    12     9    13    1
    13    13    14    1
    14    14    15    1
    15    24    23    1
    16    24    25    2
    17    23    22    1
    18    15    17    1
    19    15    16    1
    20    17    19    1
    21    17    18    1
    22    27    26    1
    23    25    26    1
    24    25    31    1
    25    22    21    1
    26    22    31    1
    27    16    21    1
    28    19    21    1
    29    19    20    1
    30    26    28    2
    31    31    30    2
    32    28    29    1
    33    30    29    1
