@<TRIPOS>MOLECULE
2xom_GAL_A_1.pdb
 12 12 0 0 0
SMALL
GASTEIGER

@<TRIPOS>ATOM
      1  C1         1.1050   -4.8840   17.3060 C.3   1166  GAL1166     0.3024
      2  C2        -0.3300   -5.1510   16.8930 C.3   1166  GAL1166     0.2434
      3  C3        -1.2200   -4.6840   18.0260 C.3   1166  GAL1166     0.2199
      4  C4        -0.8220   -5.3140   19.3460 C.3   1166  GAL1166     0.2144
      5  C5         0.6500   -4.9970   19.6110 C.3   1166  GAL1166     0.1836
      6  C6         1.0750   -5.6050   20.9470 C.3   1166  GAL1166     0.2142
      7  O1         1.9460   -5.4260   16.3430 O.3   1166  GAL1166    -0.1869
      8  O2        -0.6010   -4.4220   15.7080 O.3   1166  GAL1166    -0.2148
      9  O3        -2.5790   -4.9620   17.7350 O.3   1166  GAL1166    -0.2174
     10  O4        -0.9920   -6.7140   19.3070 O.3   1166  GAL1166    -0.2176
     11  O5         1.4110   -5.5160   18.5410 O.3   1166  GAL1166    -0.3236
     12  O6         2.3050   -5.0580   21.3110 O.3   1166  GAL1166    -0.2176
@<TRIPOS>BOND
     1     8     2    1
     2     7     1    1
     3     2     1    1
     4     2     3    1
     5     1    11    1
     6     9     3    1
     7     3     4    1
     8    11     5    1
     9    10     4    1
    10     4     5    1
    11     5     6    1
    12     6    12    1
