@<TRIPOS>MOLECULE
2xon_GAL_A_1.pdb
 11 11 0 0 0
SMALL
GASTEIGER

@<TRIPOS>ATOM
      1  C1        22.7450    9.4090   16.9040 C.3   1181  GAL1181     0.1777
      2  C2        21.5840    8.6700   16.2430 C.3   1181  GAL1181     0.2141
      3  O2        20.3910    9.0890   16.9420 O.3   1181  GAL1181    -0.2176
      4  C3        21.7670    7.1500   16.3760 C.3   1181  GAL1181     0.2173
      5  O3        20.7380    6.4710   15.6930 O.3   1181  GAL1181    -0.2175
      6  C4        23.1570    6.7450   15.8520 C.3   1181  GAL1181     0.2142
      7  O4        23.2170    7.0050   14.4770 O.3   1181  GAL1181    -0.2176
      8  C5        24.2180    7.5720   16.6020 C.3   1181  GAL1181     0.1810
      9  C6        25.6340    7.2710   16.0920 C.3   1181  GAL1181     0.2141
     10  O6        26.5480    7.9760   16.9450 O.3   1181  GAL1181    -0.2176
     11  O5        23.9610    8.9490   16.3840 O.3   1181  GAL1181    -0.3481
@<TRIPOS>BOND
     1     7     6    1
     2     5     4    1
     3     6     4    1
     4     6     8    1
     5     9     8    1
     6     9    10    1
     7     2     4    1
     8     2     1    1
     9     2     3    1
    10    11     8    1
    11    11     1    1
