@<TRIPOS>MOLECULE
2xow_ISM_A_1.pdb
 14 14 0 0 0
SMALL
GASTEIGER

@<TRIPOS>ATOM
      1  O1        13.2860   -9.9340   47.6230 O.2   401  ISM401     -0.2832
      2  C1        13.8240   -9.0260   48.2350 C.2   401  ISM401      0.2339
      3  C2        14.6960   -9.2220   49.3100 C.ar  401  ISM401      0.0401
      4  C3        15.2120  -10.4930   49.5810 C.ar  401  ISM401      0.0210
      5  C4        16.0940  -10.6940   50.6440 C.ar  401  ISM401      0.0892
      6  N1        16.5650  -11.9000   50.9150 N.pl3 401  ISM401     -0.1281
      7  C5        16.5050   -9.6260   51.4190 C.ar  401  ISM401      0.0177
      8  C6        16.0080   -8.3600   51.1390 C.ar  401  ISM401     -0.0022
      9  C7        15.1370   -8.1330   50.0760 C.ar  401  ISM401     -0.0078
     10  C8        14.7060   -6.7880   49.9110 C.3   401  ISM401      0.1360
     11  C9        13.3750   -6.5150   49.1700 C.2   401  ISM401      0.3216
     12  O2        12.3960   -7.2470   49.3000 O.2   401  ISM401     -0.2497
     13  O3        13.3510   -5.3830   48.3950 O.3   401  ISM401     -0.4442
     14  C10       12.0880   -5.2600   47.7340 C.3   401  ISM401      0.2556
@<TRIPOS>BOND
     1     1     2    2
     2    14    13    1
     3     2     3    1
     4    13    11    1
     5    11    12    2
     6    11    10    1
     7     3     4   ar
     8     3     9   ar
     9     4     5   ar
    10    10     9    1
    11     9     8   ar
    12     5     6    1
    13     5     7   ar
    14     8     7   ar
