@<TRIPOS>MOLECULE
2xoy_AMP_B_1.pdb
 23 25 0 0 0
SMALL
GASTEIGER

@<TRIPOS>ATOM
      1  P         60.8220  -32.4990    5.5280 P.3   1665  AMP1665     0.5327
      2  O1P       61.1250  -33.9800    5.4110 O.3   1665  AMP1665    -0.1145
      3  O2P       62.0080  -31.5710    5.3440 O.3   1665  AMP1665    -0.1145
      4  O3P       59.5900  -32.0710    4.7540 O.2   1665  AMP1665    -0.2224
      5  O5'       60.4620  -32.3050    7.0920 O.3   1665  AMP1665    -0.2675
      6  C5'       59.3160  -32.9180    7.6860 C.3   1665  AMP1665     0.1860
      7  C4'       58.9420  -32.1920    8.9820 C.3   1665  AMP1665     0.1823
      8  O4'       57.9550  -31.1730    8.7520 O.3   1665  AMP1665    -0.3135
      9  C3'       58.3430  -33.1280   10.0230 C.3   1665  AMP1665     0.2184
     10  O3'       59.2360  -33.2090   11.1470 O.3   1665  AMP1665    -0.2174
     11  C2'       57.0010  -32.5210   10.4240 C.3   1665  AMP1665     0.2570
     12  O2'       56.8750  -32.5030   11.8520 O.3   1665  AMP1665    -0.2130
     13  C1'       57.0130  -31.1100    9.8340 C.3   1665  AMP1665     0.3186
     14  N9        55.6680  -30.6150    9.3760 N.pl3 1665  AMP1665    -0.1439
     15  C8        54.7550  -31.3390    8.6860 C.3   1665  AMP1665     0.3377
     16  N7        53.6400  -30.6070    8.4200 N.2   1665  AMP1665    -0.2095
     17  C5        53.8160  -29.3750    8.9510 C.2   1665  AMP1665     0.2526
     18  C6        53.0120  -28.1210    9.0290 C.2   1665  AMP1665     0.4393
     19  N6        51.7720  -28.0490    8.4660 N.pl3 1665  AMP1665     0.2180
     20  N1        53.5610  -27.0640    9.6790 N.2   1665  AMP1665     0.0021
     21  C2        54.7890  -27.1330   10.2320 C.3   1665  AMP1665     0.5254
     22  N3        55.5720  -28.2330   10.1970 N.2   1665  AMP1665    -0.0055
     23  C4        55.1510  -29.3790    9.5860 C.2   1665  AMP1665     0.3518
@<TRIPOS>BOND
     1     4     1    2
     2     3     1    1
     3     2     1    1
     4     1     5    1
     5     5     6    1
     6     6     7    1
     7    16    15    1
     8    16    17    2
     9    19    18    1
    10    15    14    1
    11     8     7    1
    12     8    13    1
    13    17    18    1
    14    17    23    1
    15     7     9    1
    16    18    20    2
    17    14    23    1
    18    14    13    1
    19    23    22    2
    20    20    21    1
    21    13    11    1
    22     9    11    1
    23     9    10    1
    24    22    21    1
    25    11    12    1
