@<TRIPOS>MOLECULE
2xoy_ADE_B_1.pdb
 10 11 0 0 0
SMALL
GASTEIGER

@<TRIPOS>ATOM
      1  N9        65.0360  -24.6970    6.0740 N.2   1666  ADE1666    -0.1914
      2  C8        64.9910  -24.0740    4.8510 C.3   1666  ADE1666     0.2618
      3  N7        63.7780  -23.7620    4.4550 N.2   1666  ADE1666    -0.2267
      4  C5        62.9730  -24.2150    5.4980 C.2   1666  ADE1666     0.2303
      5  C6        61.5810  -24.1840    5.6990 C.2   1666  ADE1666     0.4393
      6  N6        60.7470  -23.6500    4.8040 N.pl3 1666  ADE1666     0.2185
      7  N1        61.0850  -24.7190    6.8420 N.2   1666  ADE1666    -0.0265
      8  C2        61.9350  -25.2530    7.7360 C.3   1666  ADE1666     0.4008
      9  N3        63.2670  -25.3430    7.6610 N.2   1666  ADE1666    -0.1640
     10  C4        63.7270  -24.7980    6.5070 C.1   1666  ADE1666     0.0579
@<TRIPOS>BOND
     1     3     2    1
     2     3     4    2
     3     6     5    1
     4     2     1    1
     5     4     5    1
     6     4    10    1
     7     5     7    2
     8     1    10    2
     9    10     9    2
    10     7     8    1
    11     9     8    1
