@<TRIPOS>MOLECULE
2xoz_AMP_B_1.pdb
 10 11 0 0 0
SMALL
GASTEIGER

@<TRIPOS>ATOM
      1  N9        65.2800  -22.3040    4.3830 N.2   1664  AMP1664    -0.1914
      2  C8        65.3770  -22.8790    5.6170 C.3   1664  AMP1664     0.2618
      3  N7        64.2370  -23.0260    6.2490 N.2   1664  AMP1664    -0.2267
      4  C5        63.3100  -22.5040    5.3670 C.2   1664  AMP1664     0.2303
      5  C6        61.9090  -22.3500    5.4340 C.2   1664  AMP1664     0.4393
      6  N6        61.1730  -22.7330    6.4750 N.pl3 1664  AMP1664     0.2185
      7  N1        61.2760  -21.7900    4.3810 N.2   1664  AMP1664    -0.0265
      8  C2        62.0150  -21.4030    3.3370 C.3   1664  AMP1664     0.4008
      9  N3        63.3380  -21.4950    3.1630 N.2   1664  AMP1664    -0.1640
     10  C4        63.9370  -22.0580    4.2200 C.1   1664  AMP1664     0.0579
@<TRIPOS>BOND
     1     9     8    1
     2     9    10    2
     3     8     7    1
     4    10     1    2
     5    10     4    1
     6     7     5    2
     7     1     2    1
     8     4     5    1
     9     4     3    2
    10     5     6    1
    11     2     3    1
