@<TRIPOS>MOLECULE
2xp2_VGH_A_1.pdb
 30 33 0 0 0
SMALL
GASTEIGER

@<TRIPOS>ATOM
      1 CL         32.9370   46.3310    6.6220 Cl    9000  VGH9000    -0.0824
      2  C13       33.4020   46.0180    8.2730 C.ar  9000  VGH9000     0.0580
      3  C3        34.2220   47.0020    8.9000 C.ar  9000  VGH9000     0.0135
      4  C2        34.6560   46.8470   10.2410 C.ar  9000  VGH9000     0.0314
      5  C12       34.2850   45.7030   10.9980 C.ar  9000  VGH9000     0.1505
      6  F         34.7220   45.6010   12.2650 F     9000  VGH9000    -0.2033
      7  C17       32.9950   44.8250    9.0120 C.ar  9000  VGH9000     0.0405
      8  C18       33.4550   44.6800   10.4050 C.ar  9000  VGH9000     0.0852
      9 CL2        33.0420   43.3000   11.4140 Cl    9000  VGH9000    -0.0801
     10  C21       32.0950   43.7500    8.3080 C.3   9000  VGH9000     0.1901
     11  C1        32.7790   42.3700    8.2830 C.3   9000  VGH9000     0.0524
     12  O27       30.7900   43.5410    8.9500 O.3   9000  VGH9000    -0.4718
     13  C15       29.7900   44.5100    9.1260 C.ar  9000  VGH9000     0.1734
     14  C4        29.6840   45.7470    8.3920 C.ar  9000  VGH9000     0.0416
     15  C19       28.7610   44.2670   10.0990 C.ar  9000  VGH9000     0.2039
     16  N22       28.7980   43.0760   10.8500 N.pl3 9000  VGH9000    -0.1039
     17  N23       27.7320   45.1150   10.3500 N.ar  9000  VGH9000    -0.2234
     18  C5        27.6600   46.2780    9.6400 C.ar  9000  VGH9000     0.1007
     19  C14       28.6090   46.6610    8.6410 C.ar  9000  VGH9000     0.0253
     20  C16       28.4980   47.9680    7.8660 C.ar  9000  VGH9000     0.0412
     21  C6        29.5440   48.6380    7.0900 C.ar  9000  VGH9000     0.1217
     22  C7        27.3800   48.7930    7.7370 C.ar  9000  VGH9000     0.0966
     23  N26       27.8290   49.8540    6.9230 N.ar  9000  VGH9000    -0.2512
     24  N24       29.0630   49.7200    6.5830 N.ar  9000  VGH9000    -0.1677
     25  C20       27.0170   51.0170    6.4770 C.3   9000  VGH9000     0.1081
     26  C8        26.8190   52.0170    7.6370 C.3   9000  VGH9000     0.0432
     27  C10       25.9750   53.2180    7.1460 C.3   9000  VGH9000     0.0907
     28  N25       24.6730   52.7900    6.5550 N.3   9000  VGH9000    -0.2179
     29  C11       24.8360   51.7910    5.4600 C.3   9000  VGH9000     0.0907
     30  C9        25.6480   50.5560    5.9130 C.3   9000  VGH9000     0.0432
@<TRIPOS>BOND
     1    29    30    1
     2    29    28    1
     3    30    25    1
     4    25    23    1
     5    25    26    1
     6    28    27    1
     7    24    23   ar
     8    24    21   ar
     9     1     2    1
    10    23    22   ar
    11    21    20   ar
    12    27    26    1
    13    22    20   ar
    14    20    19    1
    15     2     3   ar
    16     2     7   ar
    17    11    10    1
    18    10    12    1
    19    10     7    1
    20    14    19   ar
    21    14    13   ar
    22    19    18   ar
    23     3     4   ar
    24    12    13    1
    25     7     8   ar
    26    13    15   ar
    27    18    17   ar
    28    15    17   ar
    29    15    16    1
    30     4     5   ar
    31     8     5   ar
    32     8     9    1
    33     5     6    1
