@<TRIPOS>MOLECULE
2xp3_B21_A_1.pdb
 16 17 0 0 0
SMALL
GASTEIGER

@<TRIPOS>ATOM
      1  CAL       38.5740  -19.5420   10.2350 C.3   1165  B211165     0.2525
      2  OAP       38.8540  -18.4630   11.1170 O.3   1165  B211165    -0.4713
      3  CAH       39.2030  -18.6260   12.4390 C.ar  1165  B211165     0.1416
      4  CAK       39.3810  -19.8720   13.0720 C.ar  1165  B211165     0.0370
      5  CAI       39.7630  -19.9660   14.4280 C.ar  1165  B211165     0.0031
      6  CAJ       39.9560  -18.8200   15.1920 C.ar  1165  B211165     0.0003
      7  CAG       39.7690  -17.5860   14.5630 C.ar  1165  B211165     0.0061
      8  CAF       39.3910  -17.4730   13.1930 C.ar  1165  B211165     0.0685
      9  CAB       39.2230  -16.2080   12.6030 C.ar  1165  B211165     0.1485
     10  OAM       39.4290  -15.0470   13.2900 O.2   1165  B211165    -0.4467
     11  CAD       38.8510  -15.8630   11.2920 C.ar  1165  B211165     0.0410
     12  CAC       38.8120  -14.4700   11.1890 C.ar  1165  B211165     0.0475
     13  CAA       39.1590  -13.9870   12.4570 C.ar  1165  B211165     0.2246
     14  CAE       39.3500  -12.6230   13.0910 C.2   1165  B211165     0.4216
     15  OAO       39.0310  -11.6010   12.4350 O.co2 1165  B211165    -0.2371
     16  OAN       39.8680  -12.5130   14.2470 O.co2 1165  B211165    -0.2371
@<TRIPOS>BOND
     1     1     2    1
     2     2     3    1
     3    12    11   ar
     4    12    13   ar
     5    11     9   ar
     6    15    14   ar
     7     3     4   ar
     8     3     8   ar
     9    13    14    1
    10    13    10   ar
    11     9     8    1
    12     9    10   ar
    13     4     5   ar
    14    14    16   ar
    15     8     7   ar
    16     5     6   ar
    17     7     6   ar
