@<TRIPOS>MOLECULE
2xp4_G14_A_1.pdb
 14 15 0 0 0
SMALL
GASTEIGER

@<TRIPOS>ATOM
      1  O14      -38.6610   28.5810   25.6620 O.co2 1165  G141165    -0.2379
      2  C12      -37.7740   28.0390   26.2790 C.2   1165  G141165     0.4156
      3  O13      -37.6260   28.2960   27.4920 O.co2 1165  G141165    -0.2379
      4  C10      -36.8670   27.0210   25.5030 C.2   1165  G141165     0.2247
      5  C9       -37.1270   26.5820   24.2410 C.3   1165  G141165     0.2036
      6  N8       -36.0910   25.8040   23.9480 N.2   1165  G141165    -0.2022
      7  C7       -35.1990   25.8180   24.9580 C.1   1165  G141165     0.0832
      8  N11      -35.6660   26.6290   25.9470 N.2   1165  G141165    -0.3463
      9  C6       -34.0090   25.1070   24.9580 C.ar  1165  G141165     0.0737
     10  C1       -33.4000   24.8210   23.7310 C.ar  1165  G141165     0.0110
     11  C2       -32.2040   24.0690   23.6920 C.ar  1165  G141165     0.0007
     12  C3       -31.5920   23.6850   24.9060 C.ar  1165  G141165     0.0000
     13  C4       -32.1840   24.0120   26.1460 C.ar  1165  G141165     0.0007
     14  C5       -33.4090   24.7170   26.1750 C.ar  1165  G141165     0.0110
@<TRIPOS>BOND
     1    11    10   ar
     2    11    12   ar
     3    10     9   ar
     4     6     5    1
     5     6     7    2
     6     5     4    1
     7    12    13   ar
     8     7     9    1
     9     7     8    2
    10     9    14   ar
    11     4     8    2
    12     4     2    1
    13     1     2   ar
    14    13    14   ar
    15     2     3   ar
