@<TRIPOS>MOLECULE
2xp5_4FF_A_1.pdb
 15 16 0 0 0
SMALL
GASTEIGER

@<TRIPOS>ATOM
      1  O14      -37.4850   28.4410   27.3900 O.co2 1165  4FF1165    -0.2375
      2  C12      -37.7380   28.1510   26.1990 C.2   1165  4FF1165     0.4200
      3  O13      -38.7680   28.5830   25.6820 O.co2 1165  4FF1165    -0.2375
      4  C10      -36.8500   27.1730   25.3390 C.2   1165  4FF1165     0.2490
      5  C9       -37.1340   26.7090   24.0460 C.2   1165  4FF1165     0.1587
      6  N8       -36.1190   25.8980   23.6800 N.2   1165  4FF1165    -0.3414
      7  C7       -35.2250   25.8500   24.7240 C.1   1165  4FF1165     0.1378
      8  N11      -35.6900   26.6570   25.7080 N.2   1165  4FF1165    -0.3307
      9  C6       -34.0100   25.1430   24.7950 C.ar  1165  4FF1165     0.0856
     10  C1       -33.3370   24.7610   23.6170 C.ar  1165  4FF1165     0.0120
     11  C2       -32.1150   24.0540   23.6470 C.ar  1165  4FF1165     0.0007
     12  C3       -31.5520   23.7450   24.8990 C.ar  1165  4FF1165     0.0000
     13  C4       -32.1830   24.1480   26.0950 C.ar  1165  4FF1165     0.0007
     14  C5       -33.4200   24.8350   26.0280 C.ar  1165  4FF1165     0.0120
     15  C15      -38.3780   27.0810   23.1580 C.3   1165  4FF1165     0.0705
@<TRIPOS>BOND
     1    15     5    1
     2    10    11   ar
     3    10     9   ar
     4    11    12   ar
     5     6     5    2
     6     6     7    2
     7     5     4    1
     8     7     9    1
     9     7     8    2
    10     9    14   ar
    11    12    13   ar
    12     4     8    2
    13     4     2    1
    14     3     2   ar
    15    14    13   ar
    16     2     1   ar
