@<TRIPOS>MOLECULE
2xp6_4G2_A_1.pdb
 16 17 0 0 0
SMALL
GASTEIGER

@<TRIPOS>ATOM
      1  O14      -37.8530   28.3630   27.6200 O.co2 1165  4G21165    -0.2375
      2  C12      -38.1060   28.1520   26.4360 C.2   1165  4G21165     0.4200
      3  O13      -39.0270   28.7820   25.9190 O.co2 1165  4G21165    -0.2375
      4  C10      -37.2130   27.1770   25.6380 C.2   1165  4G21165     0.2490
      5  C9       -37.4050   26.6840   24.3470 C.2   1165  4G21165     0.1587
      6  N8       -36.3630   25.9020   24.0970 N.2   1165  4G21165    -0.3414
      7  C7       -35.5230   25.9250   25.1470 C.1   1165  4G21165     0.1378
      8  N11      -36.0250   26.7200   26.1020 N.2   1165  4G21165    -0.3307
      9  C6       -34.3210   25.2570   25.2120 C.ar  1165  4G21165     0.0864
     10  C1       -33.6760   25.1900   26.4180 C.ar  1165  4G21165     0.0234
     11  C2       -32.4260   24.5200   26.4710 C.ar  1165  4G21165     0.0584
     12  C3       -31.8520   23.9350   25.3210 C.ar  1165  4G21165     0.0114
     13  C4       -32.5000   24.0560   24.0850 C.ar  1165  4G21165     0.0016
     14  C5       -33.7410   24.7260   24.0510 C.ar  1165  4G21165     0.0121
     15 CL1       -31.5940   24.4120   27.9890 Cl    1165  4G21165    -0.0822
     16  C15      -38.5780   26.9250   23.3700 C.3   1165  4G21165     0.0705
@<TRIPOS>BOND
     1    16     5    1
     2    14    13   ar
     3    14     9   ar
     4    13    12   ar
     5     6     5    2
     6     6     7    2
     7     5     4    1
     8     7     9    1
     9     7     8    2
    10     9    10   ar
    11    12    11   ar
    12     4     8    2
    13     4     2    1
    14     3     2   ar
    15    10    11   ar
    16     2     1   ar
    17    11    15    1
