@<TRIPOS>MOLECULE
2xp7_4F8_A_1.pdb
 17 18 0 0 0
SMALL
GASTEIGER

@<TRIPOS>ATOM
      1  N4C      -40.7520   18.4640   16.0600 N.2   1164  4F81164    -0.3301
      2  C5C      -41.9740   18.8690   15.6940 C.2   1164  4F81164     0.2598
      3  C6C      -42.2190   18.4060   14.3840 C.2   1164  4F81164     0.2598
      4  C7C      -43.4810   18.5870   13.4930 C.2   1164  4F81164     0.4206
      5  O8C      -44.5950   18.6540   14.0120 O.co2 1164  4F81164    -0.2375
      6  O9C      -43.4120   18.5580   12.2560 O.co2 1164  4F81164    -0.2375
      7  C1D      -38.9990   17.0960   14.9630 C.ar  1164  4F81164     0.0856
      8  C2D      -38.4570   16.5020   16.1140 C.ar  1164  4F81164     0.0120
      9  C3D      -37.2500   15.7980   16.0700 C.ar  1164  4F81164     0.0007
     10  C4D      -36.5740   15.6420   14.8530 C.ar  1164  4F81164     0.0000
     11  C5D      -37.1360   16.2120   13.7110 C.ar  1164  4F81164     0.0007
     12  C6D      -38.3420   16.9250   13.7600 C.ar  1164  4F81164     0.0120
     13  C7D      -40.2290   17.7620   15.0180 C.1   1164  4F81164     0.1384
     14  O        -43.8410   20.3570   16.0420 O.co2 1164  4F81164    -0.2375
     15  O2       -42.7390   19.8280   17.7960 O.co2 1164  4F81164    -0.2375
     16  N3       -41.1440   17.7060   14.0100 N.2   1164  4F81164    -0.3301
     17  C6       -42.9130   19.7290   16.5690 C.2   1164  4F81164     0.4206
@<TRIPOS>BOND
     1     6     4   ar
     2     4     5   ar
     3     4     3    1
     4    11    12   ar
     5    11    10   ar
     6    12     7   ar
     7    16     3    2
     8    16    13    2
     9     3     2    1
    10    10     9   ar
    11     7    13    1
    12     7     8   ar
    13    13     1    2
    14     2     1    2
    15     2    17    1
    16    14    17   ar
    17     9     8   ar
    18    17    15   ar
