@<TRIPOS>MOLECULE
2xp8_4FY_A_1.pdb
 22 24 0 0 0
SMALL
GASTEIGER

@<TRIPOS>ATOM
      1  C13      -33.1440   24.9960   23.1160 C.ar  1165  4FY1165     0.0120
      2  C14      -31.9500   24.2850   23.0090 C.ar  1165  4FY1165     0.0007
      3  C2       -33.6230   29.4830   27.0160 C.3   1165  4FY1165     0.1637
      4  C15      -31.3410   23.8650   24.1770 C.ar  1165  4FY1165     0.0000
      5  C16      -31.9190   24.1530   25.4230 C.ar  1165  4FY1165     0.0007
      6  C17      -33.1210   24.8430   25.5330 C.ar  1165  4FY1165     0.0120
      7  C12      -33.7420   25.2360   24.3620 C.ar  1165  4FY1165     0.0856
      8  C9       -34.9020   25.9880   24.3820 C.1   1165  4FY1165     0.1383
      9  N10      -35.1350   26.8230   25.3730 N.2   1165  4FY1165    -0.3322
     10  N8       -35.8550   26.1000   23.4250 N.2   1165  4FY1165    -0.3302
     11  C7       -36.7160   27.0090   23.8630 C.2   1165  4FY1165     0.2577
     12  C20      -37.9460   27.4710   23.0900 C.2   1165  4FY1165     0.4205
     13  O22      -37.9820   27.2570   21.8750 O.co2 1165  4FY1165    -0.2375
     14  O21      -38.8350   28.1450   23.6230 O.co2 1165  4FY1165    -0.2375
     15  C11      -36.2630   27.4620   25.0970 C.2   1165  4FY1165     0.2338
     16  C18      -36.8310   28.5090   26.0890 C.2   1165  4FY1165     0.2827
     17  O19      -37.9410   28.3750   26.6220 O.2   1165  4FY1165    -0.2670
     18  N3       -36.0260   29.5510   26.4140 N.am  1165  4FY1165    -0.2687
     19  C1       -34.6370   29.6870   25.8620 C.3   1165  4FY1165     0.1259
     20  C5       -36.3960   30.5150   27.4700 C.3   1165  4FY1165     0.1259
     21  C6       -35.3690   30.2900   28.6160 C.3   1165  4FY1165     0.1637
     22  O4       -34.3680   29.2220   28.2780 O.3   1165  4FY1165    -0.3501
@<TRIPOS>BOND
     1    13    12   ar
     2     2     1   ar
     3     2     4   ar
     4    12    14   ar
     5    12    11    1
     6     1     7   ar
     7    10    11    2
     8    10     8    2
     9    11    15    1
    10     4     5   ar
    11     7     8    1
    12     7     6   ar
    13     8     9    2
    14    15     9    2
    15    15    16    1
    16     5     6   ar
    17    19    18    1
    18    19     3    1
    19    16    18   am
    20    16    17    2
    21    18    20    1
    22     3    22    1
    23    20    21    1
    24    22    21    1
