@<TRIPOS>MOLECULE
2xp9_4G8_A_1.pdb
 28 30 0 0 0
SMALL
GASTEIGER

@<TRIPOS>ATOM
      1  C20       44.1960  -12.4880   15.2230 C.ar  1165  4G81165    -0.0026
      2  C21       44.9320  -13.3770   16.0270 C.ar  1165  4G81165    -0.0003
      3  C22       44.2380  -14.3880   16.7280 C.ar  1165  4G81165    -0.0000
      4  C23       42.8350  -14.4940   16.6330 C.ar  1165  4G81165    -0.0003
      5  C24       42.1040  -13.6080   15.8310 C.ar  1165  4G81165    -0.0026
      6  C19       42.7830  -12.6040   15.1190 C.ar  1165  4G81165    -0.0023
      7  C18       41.9770  -11.6190   14.2240 C.3   1165  4G81165     0.1211
      8  N17       41.2910  -12.4780   13.2230 N.am  1165  4G81165    -0.2596
      9  C25       42.2070  -13.3010   12.3670 C.3   1165  4G81165     0.2090
     10  C26       42.5270  -12.4610   11.1050 C.2   1165  4G81165     0.3848
     11  O27       42.4570  -11.2250   11.0960 O.co2 1165  4G81165    -0.2437
     12  O28       42.8010  -13.1130    9.9470 O.co2 1165  4G81165    -0.2437
     13  C15       39.9660  -12.5620   13.1590 C.2   1165  4G81165     0.2832
     14  O16       39.2290  -11.9260   13.8960 O.2   1165  4G81165    -0.2669
     15  C9        39.4130  -13.6920   12.1800 C.2   1165  4G81165     0.2338
     16  N8        39.4600  -15.0050   12.5070 N.2   1165  4G81165    -0.3322
     17  C10       38.8940  -13.5890   10.9040 C.2   1165  4G81165     0.2577
     18  C12       38.6880  -12.3160   10.0660 C.2   1165  4G81165     0.4205
     19  O14       38.8260  -11.1910   10.5860 O.co2 1165  4G81165    -0.2375
     20  O13       38.3870  -12.4500    8.8630 O.co2 1165  4G81165    -0.2375
     21  N11       38.5940  -14.8020   10.4660 N.2   1165  4G81165    -0.3302
     22  C1        38.9350  -15.6920   11.4540 C.1   1165  4G81165     0.1383
     23  C2        38.8370  -17.0880   11.4190 C.ar  1165  4G81165     0.0856
     24  C3        38.9390  -17.7500   10.1860 C.ar  1165  4G81165     0.0120
     25  C4        38.8810  -19.1360   10.1360 C.ar  1165  4G81165     0.0007
     26  C5        38.7400  -19.9200   11.3000 C.ar  1165  4G81165     0.0000
     27  C6        38.6630  -19.2320   12.5380 C.ar  1165  4G81165     0.0007
     28  C7        38.7200  -17.8510   12.6110 C.ar  1165  4G81165     0.0120
@<TRIPOS>BOND
     1    20    18   ar
     2    12    10   ar
     3    18    19   ar
     4    18    17    1
     5    25    24   ar
     6    25    26   ar
     7    24    23   ar
     8    21    17    2
     9    21    22    2
    10    17    15    1
    11    11    10   ar
    12    10     9    1
    13    26    27   ar
    14    23    22    1
    15    23    28   ar
    16    22    16    2
    17    15    16    2
    18    15    13    1
    19     9     8    1
    20    27    28   ar
    21    13     8   am
    22    13    14    2
    23     8     7    1
    24     7     6    1
    25     6     1   ar
    26     6     5   ar
    27     1     2   ar
    28     5     4   ar
    29     2     3   ar
    30     4     3   ar
