@<TRIPOS>MOLECULE
2xpa_4G5_A_1.pdb
 22 23 0 0 0
SMALL
GASTEIGER

@<TRIPOS>ATOM
      1  C10       39.0110  -17.8670   10.2520 C.ar  1165  4G51165     0.0120
      2  C11       38.9630  -19.2590   10.3400 C.ar  1165  4G51165     0.0007
      3  C12       38.9080  -19.8960   11.5870 C.ar  1165  4G51165     0.0000
      4  C13       38.9010  -19.1200   12.7480 C.ar  1165  4G51165     0.0007
      5  C14       38.9310  -17.7180   12.6660 C.ar  1165  4G51165     0.0120
      6  C9        38.9550  -17.0920   11.4200 C.ar  1165  4G51165     0.0856
      7  C5        39.0400  -15.7000   11.3420 C.1   1165  4G51165     0.1383
      8  N1        39.6080  -14.9950   12.3240 N.2   1165  4G51165    -0.3322
      9  N4        38.6750  -14.8520   10.3400 N.2   1165  4G51165    -0.3302
     10  C3        39.0110  -13.6040   10.7330 C.2   1165  4G51165     0.2577
     11  C15       38.8020  -12.2970    9.9310 C.2   1165  4G51165     0.4205
     12  O17       38.5330  -12.3280    8.7110 O.co2 1165  4G51165    -0.2375
     13  O16       38.9850  -11.2150   10.5150 O.co2 1165  4G51165    -0.2375
     14  C2        39.6140  -13.7110   11.9930 C.2   1165  4G51165     0.2338
     15  C6        40.2250  -12.6800   12.9800 C.2   1165  4G51165     0.2830
     16  O8        39.4830  -11.9210   13.5970 O.2   1165  4G51165    -0.2670
     17  N7        41.5650  -12.7720   13.2150 N.am  1165  4G51165    -0.2637
     18  C22       42.3730  -13.7430   12.4110 C.3   1165  4G51165     0.1157
     19  C18       42.2000  -11.9070   14.2400 C.3   1165  4G51165     0.1829
     20  C19       42.6600  -12.7830   15.4700 C.2   1165  4G51165     0.2810
     21  O21       42.0210  -13.7660   15.8860 O.2   1165  4G51165    -0.2698
     22  N20       43.8080  -12.3780   16.0350 N.am  1165  4G51165    -0.0863
@<TRIPOS>BOND
     1    12    11   ar
     2    11    13   ar
     3    11    10    1
     4     1     2   ar
     5     1     6   ar
     6     2     3   ar
     7     9    10    2
     8     9     7    2
     9    10    14    1
    10     7     6    1
    11     7     8    2
    12     6     5   ar
    13     3     4   ar
    14    14     8    2
    15    14    15    1
    16    18    17    1
    17     5     4   ar
    18    15    17   am
    19    15    16    2
    20    17    19    1
    21    19    20    1
    22    20    21    2
    23    20    22   am
