@<TRIPOS>MOLECULE
2xpb_4GE_A_1.pdb
 26 28 0 0 0
SMALL
GASTEIGER

@<TRIPOS>ATOM
      1  C5        39.4070  -17.8470   12.7850 C.ar  1165  4GE1165     0.0234
      2  C6        39.3470  -19.2380   12.9100 C.ar  1165  4GE1165     0.0584
      3 CL1        39.6560  -20.0070   14.4540 Cl    1165  4GE1165    -0.0822
      4  C1        39.0910  -20.0120   11.7750 C.ar  1165  4GE1165     0.0114
      5  C2        38.8920  -19.3970   10.5260 C.ar  1165  4GE1165     0.0016
      6  C3        38.9510  -18.0020   10.4380 C.ar  1165  4GE1165     0.0121
      7  C4        39.1760  -17.2240   11.5630 C.ar  1165  4GE1165     0.0865
      8  C7        39.2480  -15.8420   11.4880 C.1   1165  4GE1165     0.1383
      9  N8        39.7830  -15.1150   12.4820 N.2   1165  4GE1165    -0.3322
     10  N11       38.8340  -14.9970   10.4890 N.2   1165  4GE1165    -0.3302
     11  C10       39.1440  -13.7380   10.8640 C.2   1165  4GE1165     0.2577
     12  C13       38.8660  -12.4650    9.9880 C.2   1165  4GE1165     0.4205
     13  O15       38.4260  -12.5990    8.8300 O.co2 1165  4GE1165    -0.2375
     14  O14       39.0700  -11.3200   10.4500 O.co2 1165  4GE1165    -0.2375
     15  C9        39.7390  -13.8140   12.1380 C.2   1165  4GE1165     0.2338
     16  C16       40.3110  -12.7470   13.1350 C.2   1165  4GE1165     0.2829
     17  O18       39.5500  -12.0730   13.8250 O.2   1165  4GE1165    -0.2670
     18  N17       41.6540  -12.7150   13.3110 N.am  1165  4GE1165    -0.2680
     19  C21       42.5210  -13.5960   12.4530 C.3   1165  4GE1165     0.1156
     20  C19       42.2280  -11.8120   14.3560 C.3   1165  4GE1165     0.1206
     21  C20       42.9650  -12.7190   15.3920 C.ar  1165  4GE1165    -0.0023
     22  C22       42.2700  -13.7170   16.0980 C.ar  1165  4GE1165    -0.0026
     23  C23       42.9290  -14.5400   17.0230 C.ar  1165  4GE1165    -0.0003
     24  C24       44.3010  -14.4070   17.2490 C.ar  1165  4GE1165    -0.0000
     25  C25       45.0130  -13.4180   16.5390 C.ar  1165  4GE1165    -0.0003
     26  C26       44.3460  -12.5820   15.6170 C.ar  1165  4GE1165    -0.0026
@<TRIPOS>BOND
     1    13    12   ar
     2    12    14   ar
     3    12    11    1
     4     6     5   ar
     5     6     7   ar
     6    10    11    2
     7    10     8    2
     8     5     4   ar
     9    11    15    1
    10     8     7    1
    11     8     9    2
    12     7     1   ar
    13     4     2   ar
    14    15     9    2
    15    15    16    1
    16    19    18    1
    17     1     2   ar
    18     2     3    1
    19    16    18   am
    20    16    17    2
    21    18    20    1
    22    20    21    1
    23    21    26   ar
    24    21    22   ar
    25    26    25   ar
    26    22    23   ar
    27    25    24   ar
    28    23    24   ar
