@<TRIPOS>MOLECULE
2xpc_051_A_1.pdb
 37 40 0 0 0
SMALL
GASTEIGER

@<TRIPOS>ATOM
      1  N30       21.6620   34.4520   46.6590 N.1   500  051500     -0.1908
      2  C30       20.5700   34.4340   47.0450 C.1   500  051500      0.1005
      3  C27       19.3770   34.3900   47.5450 C.ar  500  051500      0.0707
      4  C26       18.2940   34.8570   46.8040 C.ar  500  051500      0.0397
      5  C25       17.0190   34.8210   47.3460 C.ar  500  051500      0.1403
      6  F25       15.9530   35.2620   46.6420 F     500  051500     -0.2044
      7  C28       19.1840   33.8970   48.8300 C.ar  500  051500      0.0102
      8  C29       17.9060   33.8680   49.3770 C.ar  500  051500      0.0022
      9  C24       16.8380   34.3380   48.6270 C.ar  500  051500      0.0487
     10  C23       15.4910   34.3480   49.2360 C.3   500  051500      0.2342
     11  O22       15.2960   33.7410   50.5430 O.3   500  051500     -0.4706
     12  C20       14.5590   32.6010   50.2460 C.ar  500  051500      0.1391
     13  C21       13.9960   32.4540   48.9670 C.ar  500  051500      0.0369
     14  C15       13.1540   31.3640   48.6680 C.ar  500  051500      0.0031
     15  C14       12.6000   31.2170   47.3910 C.ar  500  051500      0.0015
     16  C13       11.7450   30.1400   47.1110 C.ar  500  051500      0.0200
     17  C19       14.3120   31.6300   51.2170 C.ar  500  051500      0.0369
     18  C18       13.4820   30.5350   50.9100 C.ar  500  051500      0.0032
     19  C16       12.8920   30.3910   49.6640 C.ar  500  051500      0.0015
     20  C17       12.0870   29.2850   49.3450 C.ar  500  051500      0.0200
     21  C12       11.4910   29.1560   48.0770 C.ar  500  051500      0.1235
     22  S11       10.4330   27.9730   47.6600 S.O2  500  051500      0.0768
     23  O32       10.5270   27.5510   46.2550 O.2   500  051500     -0.1516
     24  O33       10.4780   26.8760   48.6560 O.2   500  051500     -0.1516
     25  N          9.0530   28.6860   47.7600 N.3   500  051500     -0.0787
     26  C1         8.3880   28.9830   49.0400 C.3   500  051500      0.1084
     27  C3         8.6760   30.3440   49.6830 C.3   500  051500      0.0204
     28  C6         7.8240   31.3700   48.9230 C.3   500  051500      0.0128
     29  C4         6.3610   30.9510   49.1420 C.3   500  051500      0.1040
     30  C8         5.4350   31.9900   48.5960 C.2   500  051500      0.3643
     31  O4         5.2820   33.0190   49.3070 O.co2 500  051500     -0.2457
     32  O3         4.8720   31.7690   47.4960 O.co2 500  051500     -0.2457
     33  C5         6.0340   29.5550   48.5770 C.3   500  051500      0.0240
     34  C2         6.9940   28.5430   49.2020 C.3   500  051500      0.1217
     35  C7         6.7950   27.2520   48.8220 C.2   500  051500      0.3658
     36  O1         7.0870   26.3140   49.6110 O.co2 500  051500     -0.2456
     37  O2         6.3510   27.0520   47.6880 O.co2 500  051500     -0.2456
@<TRIPOS>BOND
     1    23    22    2
     2     6     5    1
     3     1     2    3
     4     4     5   ar
     5     4     3   ar
     6     2     3    1
     7    16    15   ar
     8    16    21   ar
     9     5     9   ar
    10    15    14   ar
    11    32    30   ar
    12     3     7   ar
    13    22    25    1
    14    22    21    1
    15    22    24    2
    16    37    35   ar
    17    25    26    1
    18    21    20   ar
    19    33    29    1
    20    33    34    1
    21    30    29    1
    22    30    31   ar
    23     9    10    1
    24     9     8   ar
    25    14    13   ar
    26    14    19   ar
    27    35    34    1
    28    35    36   ar
    29     7     8   ar
    30    28    29    1
    31    28    27    1
    32    13    12   ar
    33    26    34    1
    34    26    27    1
    35    10    11    1
    36    20    19   ar
    37    19    18   ar
    38    12    11    1
    39    12    17   ar
    40    18    17   ar
