@<TRIPOS>MOLECULE
2xpk_Z0M_A_1.pdb
 27 29 0 0 0
SMALL
GASTEIGER

@<TRIPOS>ATOM
      1  CAZ        5.2880   -2.0340   15.7010 C.3   1625  Z0M1625     0.0783
      2  CAN        3.8310   -1.7130   16.0410 C.3   1625  Z0M1625     0.0993
      3  CAL        3.5460   -0.1920   16.0920 C.2   1625  Z0M1625     0.2427
      4  OAM        4.4170    0.6470   15.8430 O.2   1625  Z0M1625    -0.2733
      5  NAK        2.2680    0.1080   16.4010 N.am  1625  Z0M1625    -0.1958
      6  CAB        1.4380    1.9530   15.0470 C.3   1625  Z0M1625     0.2117
      7  OAG        0.1170    1.5980   14.7110 O.3   1625  Z0M1625    -0.2180
      8  CAA        1.5660    3.4860   14.9230 C.3   1625  Z0M1625     0.2049
      9  OAH        1.2500    3.8650   13.6020 O.3   1625  Z0M1625    -0.2185
     10  CAF        2.9910    3.8840   15.2540 C.3   1625  Z0M1625     0.1410
     11  CAI        3.2840    5.3420   14.9220 C.3   1625  Z0M1625     0.2044
     12  OAJ        2.4360    6.2280   15.6960 O.3   1625  Z0M1625    -0.2185
     13  NAE        3.1860    3.5840   16.6990 N.pl3 1625  Z0M1625    -0.2758
     14  CAQ        3.8510    4.2020   17.6690 C.3   1625  Z0M1625     0.1477
     15  CAD        2.6160    2.4420   17.2780 C.2   1625  Z0M1625     0.1822
     16  NAO        2.9500    2.4610   18.5570 N.2   1625  Z0M1625    -0.3965
     17  CAP        3.6990    3.5250   18.8160 C.2   1625  Z0M1625     0.1082
     18  CAR        4.3400    3.9160   20.1960 C.3   1625  Z0M1625     0.0609
     19  CAS        3.3830    3.7700   21.3970 C.3   1625  Z0M1625     0.0335
     20  CAT        2.2840    4.8380   21.3610 C.ar  1625  Z0M1625    -0.0218
     21  CAU        1.0960    4.5860   20.6430 C.ar  1625  Z0M1625    -0.0043
     22  CAV        0.0930    5.5520   20.5850 C.ar  1625  Z0M1625    -0.0003
     23  CAW        0.2850    6.7720   21.2420 C.ar  1625  Z0M1625    -0.0000
     24  CAC        1.7170    1.4580   16.4760 C.3   1625  Z0M1625     0.1941
     25  CAX        1.4680    7.0280   21.9550 C.ar  1625  Z0M1625    -0.0003
     26  CAY        2.4800    6.0590   22.0220 C.ar  1625  Z0M1625    -0.0043
     27  SAZ        5.5900   -3.8240   15.4400 S.3   1625  Z0M1625    -0.0816
@<TRIPOS>BOND
     1     9     8    1
     2     7     6    1
     3    11    10    1
     4    11    12    1
     5     8     6    1
     6     8    10    1
     7     6    24    1
     8    10    13    1
     9    27     1    1
    10     1     2    1
    11     4     3    2
    12     2     3    1
    13     3     5   am
    14     5    24    1
    15    24    15    1
    16    13    15    1
    17    13    14    1
    18    15    16    2
    19    14    17    1
    20    16    17    2
    21    17    18    1
    22    18    19    1
    23    22    21   ar
    24    22    23   ar
    25    21    20   ar
    26    23    25   ar
    27    20    19    1
    28    20    26   ar
    29    25    26   ar
