@<TRIPOS>MOLECULE
2xps_TDC_A_1.pdb
 31 34 0 0 0
SMALL
GASTEIGER

@<TRIPOS>ATOM
      1  O12       20.9500   33.9100   32.0140 O.2   222  TDC222     -0.2882
      2  C12       20.4000   34.1090   33.1380 C.2   222  TDC222      0.2099
      3  C1B       20.0340   35.4220   33.7230 C.ar  222  TDC222      0.0723
      4  C11       20.3510   36.5890   33.0550 C.ar  222  TDC222      0.2012
      5  O11       21.1080   36.5490   31.9360 O.3   222  TDC222     -0.2864
      6  C1A       19.9120   37.7920   33.5650 C.ar  222  TDC222      0.0776
      7  C10       20.2190   38.9490   32.8710 C.ar  222  TDC222      0.1987
      8  O10       20.9600   38.9470   31.7170 O.3   222  TDC222     -0.2865
      9  C9        19.7950   40.1950   33.4460 C.ar  222  TDC222      0.0421
     10  C8        19.0650   40.1660   34.6270 C.ar  222  TDC222      0.0033
     11  C7        18.7470   39.0080   35.2900 C.ar  222  TDC222     -0.0000
     12  C61       19.1860   37.8030   34.7890 C.ar  222  TDC222      0.0019
     13  C6        18.8540   36.6380   35.4740 C.ar  222  TDC222     -0.0254
     14  C62       18.1040   36.6930   36.7720 C.3   222  TDC222      0.0307
     15  C51       19.3030   35.4310   34.9480 C.ar  222  TDC222     -0.0200
     16  C5        19.0580   34.1280   35.6620 C.3   222  TDC222      0.0313
     17  C1C       19.9630   32.8490   33.8200 C.3   222  TDC222      0.2340
     18  C1        18.5020   32.4320   33.4710 C.2   222  TDC222      0.2006
     19  O1        17.9200   32.9800   32.5030 O.2   222  TDC222     -0.2921
     20  O1C       20.8380   31.8400   33.3560 O.3   222  TDC222     -0.2101
     21  C41       20.0840   33.0480   35.2810 C.3   222  TDC222      0.0682
     22  C4        19.7370   31.7500   36.0860 C.3   222  TDC222      0.1202
     23  N4        20.8180   30.9610   36.7470 N.3   222  TDC222     -0.2654
     24  C43       21.4970   31.7950   37.7980 C.3   222  TDC222      0.0900
     25  C42       21.7960   30.4020   35.7820 C.3   222  TDC222      0.0900
     26  C3        18.7890   30.7940   35.3350 C.2   222  TDC222      0.1806
     27  O3        18.5650   29.6960   35.8640 O.2   222  TDC222     -0.2937
     28  C2        18.0670   31.2530   34.1600 C.3   222  TDC222      0.1983
     29  C21       16.9150   30.5070   33.6410 C.2   222  TDC222      0.2746
     30  O21       16.3550   29.6120   34.3000 O.2   222  TDC222     -0.2707
     31  N21       16.1760   30.9120   32.5810 N.am  222  TDC222     -0.0871
@<TRIPOS>BOND
     1     8     7    1
     2     5     4    1
     3     1     2    2
     4    19    18    2
     5    31    29   am
     6     7     9   ar
     7     7     6   ar
     8     4     6   ar
     9     4     3   ar
    10     2     3    1
    11     2    17    1
    12    20    17    1
    13     9    10   ar
    14    18    17    1
    15    18    28    1
    16     6    12   ar
    17    29    28    1
    18    29    30    2
    19     3    15   ar
    20    17    21    1
    21    28    26    1
    22    10    11   ar
    23    12    11   ar
    24    12    13   ar
    25    15    13   ar
    26    15    16    1
    27    21    16    1
    28    21    22    1
    29    26    27    2
    30    26    22    1
    31    13    14    1
    32    25    23    1
    33    22    23    1
    34    23    24    1
