@<TRIPOS>MOLECULE
2xpt_TDC_A_1.pdb
 31 34 0 0 0
SMALL
GASTEIGER

@<TRIPOS>ATOM
      1  O12       21.9150   35.8100   32.0650 O.2   1209  TDC1209    -0.2882
      2  C12       21.4870   35.9690   33.2530 C.2   1209  TDC1209     0.2099
      3  C1B       21.1650   37.2750   33.8930 C.ar  1209  TDC1209     0.0723
      4  C11       21.4470   38.4350   33.2300 C.ar  1209  TDC1209     0.2012
      5  O11       22.0410   38.4550   32.0130 O.3   1209  TDC1209    -0.2864
      6  C1A       21.1210   39.6840   33.7680 C.ar  1209  TDC1209     0.0776
      7  C10       21.4530   40.8290   33.0430 C.ar  1209  TDC1209     0.1987
      8  O10       22.0640   40.7080   31.8000 O.3   1209  TDC1209    -0.2865
      9  C9        21.0990   42.1460   33.6180 C.ar  1209  TDC1209     0.0421
     10  C8        20.4710   42.1670   34.8360 C.ar  1209  TDC1209     0.0033
     11  C7        20.2010   40.9980   35.5380 C.ar  1209  TDC1209    -0.0000
     12  C61       20.5100   39.7460   35.0130 C.ar  1209  TDC1209     0.0019
     13  C6        20.2100   38.5540   35.7640 C.ar  1209  TDC1209    -0.0254
     14  C62       19.5160   38.5940   37.1110 C.3   1209  TDC1209     0.0307
     15  C51       20.5380   37.3300   35.1610 C.ar  1209  TDC1209    -0.0200
     16  C5        20.2500   36.0550   35.9130 C.3   1209  TDC1209     0.0313
     17  C1C       21.1060   34.7280   34.0180 C.3   1209  TDC1209     0.2340
     18  C1        19.6490   34.3410   33.7160 C.2   1209  TDC1209     0.2006
     19  O1        19.0110   34.9340   32.7800 O.2   1209  TDC1209    -0.2921
     20  O1C       21.8750   33.6720   33.4870 O.3   1209  TDC1209    -0.2101
     21  C41       21.2310   34.9400   35.4990 C.3   1209  TDC1209     0.0682
     22  C4        20.8970   33.6150   36.3000 C.3   1209  TDC1209     0.1202
     23  N4        21.9510   32.8420   36.9180 N.3   1209  TDC1209    -0.2654
     24  C43       22.7310   33.6640   37.9410 C.3   1209  TDC1209     0.0900
     25  C42       22.8810   32.2390   35.9520 C.3   1209  TDC1209     0.0900
     26  C3        19.8860   32.6720   35.6170 C.2   1209  TDC1209     0.1806
     27  O3        19.6310   31.6150   36.2850 O.2   1209  TDC1209    -0.2937
     28  C2        19.1950   33.1550   34.4620 C.3   1209  TDC1209     0.1983
     29  C21       18.0160   32.4270   33.9780 C.2   1209  TDC1209     0.2746
     30  O21       17.4790   31.5930   34.7290 O.2   1209  TDC1209    -0.2707
     31  N21       17.3750   32.8170   32.8790 N.am  1209  TDC1209    -0.0871
@<TRIPOS>BOND
     1     8     7    1
     2     5     4    1
     3     1     2    2
     4    19    18    2
     5    31    29   am
     6     7     9   ar
     7     7     6   ar
     8     4     6   ar
     9     4     3   ar
    10     2     3    1
    11     2    17    1
    12    20    17    1
    13     9    10   ar
    14    18    17    1
    15    18    28    1
    16     6    12   ar
    17     3    15   ar
    18    29    28    1
    19    29    30    2
    20    17    21    1
    21    28    26    1
    22    10    11   ar
    23    12    11   ar
    24    12    13   ar
    25    15    13   ar
    26    15    16    1
    27    21    16    1
    28    21    22    1
    29    26    27    2
    30    26    22    1
    31    13    14    1
    32    25    23    1
    33    22    23    1
    34    23    24    1
