@<TRIPOS>MOLECULE
2xpu_TDC_A_1.pdb
 31 34 0 0 0
SMALL
GASTEIGER

@<TRIPOS>ATOM
      1  O12       21.2100   34.3110   32.2490 O.2   1209  TDC1209    -0.2882
      2  C12       20.6050   34.4300   33.3490 C.2   1209  TDC1209     0.2099
      3  C1B       20.1990   35.7240   33.9610 C.ar  1209  TDC1209     0.0723
      4  C11       20.4540   36.8950   33.2820 C.ar  1209  TDC1209     0.2012
      5  O11       21.0660   36.8790   32.0250 O.3   1209  TDC1209    -0.2864
      6  C1A       20.0770   38.1170   33.8440 C.ar  1209  TDC1209     0.0776
      7  C10       20.3500   39.2750   33.1210 C.ar  1209  TDC1209     0.1987
      8  O10       20.9910   39.2470   31.8780 O.3   1209  TDC1209    -0.2865
      9  C9        19.9230   40.5530   33.7270 C.ar  1209  TDC1209     0.0421
     10  C8        19.3330   40.5560   34.9850 C.ar  1209  TDC1209     0.0033
     11  C7        19.0590   39.4010   35.6790 C.ar  1209  TDC1209    -0.0000
     12  C61       19.4450   38.1680   35.1270 C.ar  1209  TDC1209     0.0019
     13  C6        19.2000   36.9720   35.8160 C.ar  1209  TDC1209    -0.0254
     14  C62       18.5410   36.9620   37.1850 C.3   1209  TDC1209     0.0307
     15  C51       19.5780   35.7670   35.2290 C.ar  1209  TDC1209    -0.0200
     16  C5        19.3520   34.4820   35.9890 C.3   1209  TDC1209     0.0313
     17  C1C       20.1410   33.1740   34.0100 C.3   1209  TDC1209     0.2340
     18  C1        18.6890   32.7910   33.7120 C.2   1209  TDC1209     0.2006
     19  O1        18.0820   33.3450   32.7890 O.2   1209  TDC1209    -0.2921
     20  O1C       21.0660   32.1110   33.6320 O.3   1209  TDC1209    -0.2101
     21  C41       20.2820   33.3520   35.5120 C.3   1209  TDC1209     0.0682
     22  C4        19.9710   32.0510   36.2970 C.3   1209  TDC1209     0.1202
     23  N4        21.0690   31.2550   36.9320 N.3   1209  TDC1209    -0.2654
     24  C43       21.7610   32.0440   38.0030 C.3   1209  TDC1209     0.0900
     25  C42       22.0460   30.7140   35.9550 C.3   1209  TDC1209     0.0900
     26  C3        19.0010   31.1340   35.5370 C.2   1209  TDC1209     0.1806
     27  O3        18.7620   30.0980   36.1000 O.2   1209  TDC1209    -0.2937
     28  C2        18.2810   31.5720   34.3850 C.3   1209  TDC1209     0.1983
     29  C21       17.1540   30.7850   33.9070 C.2   1209  TDC1209     0.2746
     30  O21       16.6090   29.8760   34.5910 O.2   1209  TDC1209    -0.2707
     31  N21       16.4330   31.2750   32.8920 N.am  1209  TDC1209    -0.0871
@<TRIPOS>BOND
     1     8     7    1
     2     5     4    1
     3     1     2    2
     4    19    18    2
     5    31    29   am
     6     7     9   ar
     7     7     6   ar
     8     4     6   ar
     9     4     3   ar
    10     2     3    1
    11     2    17    1
    12    20    17    1
    13    18    17    1
    14    18    28    1
    15     9    10   ar
    16     6    12   ar
    17    29    28    1
    18    29    30    2
    19     3    15   ar
    20    17    21    1
    21    28    26    1
    22    10    11   ar
    23    12    11   ar
    24    12    13   ar
    25    15    13   ar
    26    15    16    1
    27    21    16    1
    28    21    22    1
    29    26    27    2
    30    26    22    1
    31    13    14    1
    32    25    23    1
    33    22    23    1
    34    23    24    1
