@<TRIPOS>MOLECULE
2xpv_MIY_A_1.pdb
 33 36 0 0 0
SMALL
GASTEIGER

@<TRIPOS>ATOM
      1  O8        17.6140   32.0380   34.5830 O.2   1209  MIY1209    -0.2711
      2  C21       18.1400   32.9430   33.9010 C.2   1209  MIY1209     0.2700
      3  N2        17.5290   33.3450   32.8150 N.am  1209  MIY1209    -0.0874
      4  C2        19.4100   33.5520   34.2750 C.3   1209  MIY1209     0.1715
      5  C1        20.0490   34.5770   33.4770 C.2   1209  MIY1209     0.1960
      6  O1        19.5280   35.0630   32.4900 O.2   1209  MIY1209    -0.2924
      7  C3        20.0940   33.1930   35.3940 C.3   1209  MIY1209     0.1823
      8  O2        19.8960   32.1140   36.0750 O.3   1209  MIY1209    -0.2207
      9  C4        21.0690   34.0950   36.1290 C.3   1209  MIY1209     0.0922
     10  N1        22.0690   33.3100   36.8830 N.3   1209  MIY1209    -0.2692
     11  C20       22.7620   34.1300   37.9370 C.3   1209  MIY1209     0.0897
     12  C19       23.0520   32.6510   36.0110 C.3   1209  MIY1209     0.0897
     13  C5        21.6710   35.2110   35.2750 C.3   1209  MIY1209     0.0596
     14  C18       21.4930   34.9360   33.7780 C.3   1209  MIY1209     0.2327
     15  O7        22.2740   33.7580   33.4590 O.3   1209  MIY1209    -0.2101
     16  C17       21.9980   36.0460   32.8630 C.2   1209  MIY1209     0.2063
     17  O6        22.3830   35.6680   31.6530 O.2   1209  MIY1209    -0.2885
     18  C16       22.0860   37.3090   33.3340 C.2   1209  MIY1209     0.0543
     19  C7        21.6810   37.6660   34.7290 C.3   1209  MIY1209     0.0330
     20  C6        20.9180   36.5410   35.4370 C.3   1209  MIY1209     0.0096
     21  C15       22.5990   38.4220   32.5330 C.2   1209  MIY1209     0.1973
     22  O5        23.0100   38.2760   31.3800 O.2   1209  MIY1209    -0.2867
     23  C14       22.3460   39.8160   32.9630 C.ar  1209  MIY1209     0.0748
     24  C9        21.4720   40.0710   33.9840 C.ar  1209  MIY1209    -0.0024
     25  C8        20.7700   38.9250   34.7110 C.3   1209  MIY1209     0.0324
     26  C13       22.9850   40.8180   32.2580 C.ar  1209  MIY1209     0.1985
     27  O4        23.7910   40.5290   31.2020 O.3   1209  MIY1209    -0.2865
     28  C12       22.7080   42.1370   32.5840 C.ar  1209  MIY1209     0.0434
     29  C11       21.8510   42.4340   33.6310 C.ar  1209  MIY1209     0.0175
     30  C10       21.2120   41.4060   34.3350 C.ar  1209  MIY1209     0.0442
     31  N7        20.3320   41.6400   35.4060 N.pl3 1209  MIY1209    -0.3043
     32  CN7       21.0440   41.6170   36.6710 C.3   1209  MIY1209     0.1122
     33  C71       19.5610   42.8860   35.3270 C.3   1209  MIY1209     0.1122
@<TRIPOS>BOND
     1    27    26    1
     2    22    21    2
     3    17    16    1
     4    26    28   ar
     5    26    23   ar
     6     6     5    2
     7    21    23    1
     8    21    18    1
     9    28    29   ar
    10     3     2   am
    11    16    18    2
    12    16    14    1
    13    23    24   ar
    14    18    19    1
    15    15    14    1
    16     5    14    1
    17     5     4    1
    18    29    30   ar
    19    14    13    1
    20     2     4    1
    21     2     1    2
    22    24    30   ar
    23    24    25    1
    24     4     7    1
    25    30    31    1
    26    25    19    1
    27    19    20    1
    28    13    20    1
    29    13     9    1
    30    33    31    1
    31     7     8    1
    32     7     9    1
    33    31    32    1
    34    12    10    1
    35     9    10    1
    36    10    11    1
