@<TRIPOS>MOLECULE
2xpw_OTC_A_1.pdb
 33 36 0 0 0
SMALL
GASTEIGER

@<TRIPOS>ATOM
      1  C1        18.9880   32.9280   34.4770 C.2   222  OTC222      0.1961
      2  O1        18.4320   33.3510   33.4760 O.2   222  OTC222     -0.2924
      3  C2        18.5580   31.7190   35.1660 C.3   222  OTC222      0.1715
      4  O21       16.9800   30.0800   35.3980 O.2   222  OTC222     -0.2711
      5  C21       17.4220   30.9570   34.6690 C.2   222  OTC222      0.2700
      6  N21       16.7660   31.3610   33.5930 N.am  222  OTC222     -0.0874
      7  C3        19.2340   31.3450   36.2620 C.3   222  OTC222      0.1824
      8  O3        19.1710   30.1860   36.8600 O.3   222  OTC222     -0.2207
      9  C4        20.1420   32.2480   37.0260 C.3   222  OTC222      0.0947
     10  N4        21.2470   31.6060   37.7650 N.3   222  OTC222     -0.2691
     11  C41       22.3040   31.0470   36.8730 C.3   222  OTC222      0.0897
     12  C42       21.8360   32.4540   38.8680 C.3   222  OTC222      0.0897
     13  C4A       20.4850   33.5980   36.3600 C.3   222  OTC222      0.0900
     14  C5        19.5830   34.7580   36.7590 C.3   222  OTC222      0.1634
     15  O5        19.4550   34.8350   38.1300 O.3   222  OTC222     -0.2225
     16  C5A       19.9520   36.0650   36.1300 C.3   222  OTC222      0.0908
     17  C6        18.8440   37.1280   36.1020 C.3   222  OTC222      0.1518
     18  O6        17.8130   36.6630   35.1450 O.3   222  OTC222     -0.2208
     19  C61       18.1330   37.2860   37.4490 C.3   222  OTC222      0.0380
     20  C6A       19.3960   38.4250   35.5560 C.ar  222  OTC222      0.0116
     21  C7        18.8860   39.6120   36.0150 C.ar  222  OTC222     -0.0016
     22  C8        19.3070   40.8000   35.4240 C.ar  222  OTC222      0.0030
     23  C9        20.2510   40.7880   34.4130 C.ar  222  OTC222      0.0421
     24  C10       20.7610   39.5780   33.9550 C.ar  222  OTC222      0.1985
     25  O10       21.6670   39.5980   32.9540 O.3   222  OTC222     -0.2865
     26  C6B       20.3450   38.3840   34.5390 C.ar  222  OTC222      0.0759
     27  C11       20.8850   37.0900   34.0560 C.2   222  OTC222      0.1975
     28  O11       21.4930   37.1140   32.9620 O.2   222  OTC222     -0.2867
     29  C5B       20.5220   35.9020   34.7280 C.2   222  OTC222      0.0592
     30  C12       20.7980   34.6770   34.1390 C.2   222  OTC222      0.2065
     31  O12       21.3210   34.4930   32.9770 O.2   222  OTC222     -0.2885
     32  C4B       20.4010   33.4050   34.8580 C.3   222  OTC222      0.2351
     33  O13       21.3470   32.3900   34.4630 O.3   222  OTC222     -0.2101
@<TRIPOS>BOND
     1    25    24    1
     2    28    27    2
     3    31    30    1
     4     2     1    2
     5     6     5   am
     6    24    23   ar
     7    24    26   ar
     8    27    26    1
     9    27    29    1
    10    30    29    2
    11    30    32    1
    12    23    22   ar
    13    33    32    1
    14     1    32    1
    15     1     3    1
    16    26    20   ar
    17     5     3    1
    18     5     4    2
    19    29    16    1
    20    32    13    1
    21    18    17    1
    22     3     7    1
    23    22    21   ar
    24    20    21   ar
    25    20    17    1
    26    17    16    1
    27    17    19    1
    28    16    14    1
    29     7     8    1
    30     7     9    1
    31    13    14    1
    32    13     9    1
    33    14    15    1
    34    11    10    1
    35     9    10    1
    36    10    12    1
