@<TRIPOS>MOLECULE
2xpy_GSH_A_1.pdb
 20 19 0 0 0
SMALL
GASTEIGER

@<TRIPOS>ATOM
      1  N1       -27.6810   88.7570    1.8260 N.3   1674  GSH1674    -0.1208
      2  CA1      -27.8940   87.5950    0.9770 C.3   1674  GSH1674     0.1948
      3  C1       -26.8270   86.5310    1.2180 C.2   1674  GSH1674     0.3819
      4  O11      -26.6450   85.9350    2.2750 O.co2 1674  GSH1674    -0.2441
      5  O12      -26.0340   86.1860    0.3410 O.co2 1674  GSH1674    -0.2441
      6  CB1      -29.3310   87.0920    1.1910 C.3   1674  GSH1674     0.0402
      7  CG1      -30.1570   87.0700   -0.1040 C.3   1674  GSH1674     0.0889
      8  CD1      -31.5390   87.7160   -0.0220 C.2   1674  GSH1674     0.2418
      9  OE1      -31.8910   88.8180   -0.8200 O.2   1674  GSH1674    -0.2733
     10  N2       -32.4820   87.2300    0.7790 N.am  1674  GSH1674    -0.1968
     11  CA2      -33.8470   87.5990    0.4220 C.3   1674  GSH1674     0.1843
     12  C2       -34.6950   88.2190    1.4930 C.2   1674  GSH1674     0.2627
     13  O2       -36.0810   88.2600    1.3110 O.2   1674  GSH1674    -0.2714
     14  CB2      -34.6010   86.3870   -0.0990 C.3   1674  GSH1674     0.0997
     15  SG2      -35.1390   86.6800   -1.8000 S.3   1674  GSH1674    -0.0797
     16  N3       -34.1310   88.7310    2.5770 N.am  1674  GSH1674    -0.1917
     17  CA3      -34.8790   89.6280    3.4380 C.3   1674  GSH1674     0.2285
     18  C3       -35.6920   88.8460    4.4340 C.2   1674  GSH1674     0.3865
     19  O31      -35.5940   87.5950    4.4610 O.co2 1674  GSH1674    -0.2437
     20  O32      -36.4530   89.4550    5.2280 O.co2 1674  GSH1674    -0.2437
@<TRIPOS>BOND
     1    15    14    1
     2     9     8    2
     3     7     8    1
     4     7     6    1
     5    14    11    1
     6     8    10   am
     7     5     3   ar
     8    11    10    1
     9    11    12    1
    10     2     6    1
    11     2     3    1
    12     2     1    1
    13     3     4   ar
    14    13    12    2
    15    12    16   am
    16    16    17    1
    17    17    18    1
    18    18    19   ar
    19    18    20   ar
