@<TRIPOS>MOLECULE
2xq0_BES_A_1.pdb
 22 22 0 0 0
SMALL
GASTEIGER

@<TRIPOS>ATOM
      1  N2       -21.5920   -3.4090   14.9550 N.3   901  BES901     -0.1293
      2  C1       -22.6260   -2.4150   14.7540 C.3   901  BES901      0.1355
      3  C6       -23.9570   -3.0970   14.4320 C.3   901  BES901      0.0485
      4  C7       -24.4110   -3.9330   15.6080 C.ar  901  BES901     -0.0206
      5  C8       -24.3770   -3.3960   16.8900 C.ar  901  BES901     -0.0042
      6  C12      -24.8440   -5.2410   15.4130 C.ar  901  BES901     -0.0042
      7  C9       -24.7870   -4.1620   17.9750 C.ar  901  BES901     -0.0003
      8  C11      -25.2530   -6.0080   16.5010 C.ar  901  BES901     -0.0003
      9  C10      -25.2260   -5.4680   17.7830 C.ar  901  BES901     -0.0000
     10  C2       -22.2480   -1.4430   13.6290 C.3   901  BES901      0.2467
     11  O2       -21.0000   -0.7610   13.8190 O.3   901  BES901     -0.2116
     12  C3       -23.3500   -0.4420   13.5270 C.2   901  BES901      0.2738
     13  O3       -23.5120    0.4300   14.3840 O.2   901  BES901     -0.2705
     14  N1       -24.0800   -0.6660   12.4420 N.am  901  BES901     -0.1934
     15  C4       -25.2390    0.0650   11.9730 C.3   901  BES901      0.1978
     16  C13      -24.6570    1.0200   10.9380 C.3   901  BES901      0.0333
     17  C14      -25.0460    2.4710   11.1870 C.3   901  BES901      0.0023
     18  C15      -24.0560    3.4040   10.4990 C.3   901  BES901      0.0001
     19  C16      -25.1540    2.7870   12.6770 C.3   901  BES901      0.0001
     20  C5       -26.1190   -0.9330   11.2760 C.2   901  BES901      0.3842
     21  O1       -27.3490   -0.7150   11.2080 O.co2 901  BES901     -0.2437
     22  O4       -25.5810   -1.9600   10.7900 O.co2 901  BES901     -0.2437
@<TRIPOS>BOND
     1    18    17    1
     2    22    20   ar
     3    16    17    1
     4    16    15    1
     5    17    19    1
     6    21    20   ar
     7    20    15    1
     8    15    14    1
     9    14    12   am
    10    12    10    1
    11    12    13    2
    12    10    11    1
    13    10     2    1
    14     3     2    1
    15     3     4    1
    16     2     1    1
    17     6     4   ar
    18     6     8   ar
    19     4     5   ar
    20     8     9   ar
    21     5     7   ar
    22     9     7   ar
