@<TRIPOS>MOLECULE
2xq1_HEM_B_1.pdb
 43 50 0 0 0
SMALL
GASTEIGER

@<TRIPOS>ATOM
      1  CHA       -3.8740  -10.9170   15.9000 C.2   1503  HEM1503     0.0000
      2  CHB       -7.4150  -11.5880   19.0620 C.2   1503  HEM1503     0.0000
      3  CHC       -5.9480   -7.6160   21.4880 C.2   1503  HEM1503     0.0000
      4  CHD       -1.7430   -7.9430   19.1370 C.2   1503  HEM1503     0.0000
      5  C1A       -4.9940  -11.4400   16.4740 C.ar  1503  HEM1503     0.0000
      6  C2A       -5.8060  -12.5350   15.9690 C.ar  1503  HEM1503     0.0000
      7  C3A       -6.7950  -12.7100   16.8590 C.ar  1503  HEM1503     0.0000
      8  C4A       -6.6360  -11.7490   17.9360 C.ar  1503  HEM1503     0.0000
      9  CMA       -7.9090  -13.7500   16.7980 C.3   1503  HEM1503     0.0000
     10  CAA       -5.5250  -13.3030   14.6560 C.3   1503  HEM1503     0.0000
     11  CBA       -4.4910  -14.3620   14.9940 C.3   1503  HEM1503     0.0000
     12  CGA       -4.2820  -15.3230   13.8480 C.2   1503  HEM1503     0.0000
     13  O1A       -5.1500  -15.3510   12.9250 O.co2 1503  HEM1503     0.0000
     14  O2A       -3.2610  -16.0670   13.8620 O.co2 1503  HEM1503     0.0000
     15  C1B       -7.3730  -10.5640   19.9950 C.2   1503  HEM1503     0.0000
     16  C2B       -8.3240  -10.3200   21.0670 C.2   1503  HEM1503     0.0000
     17  C3B       -7.9160   -9.2160   21.7360 C.2   1503  HEM1503     0.0000
     18  C4B       -6.7010   -8.7240   21.1200 C.2   1503  HEM1503     0.0000
     19  CMB       -9.5740  -11.2040   21.3520 C.3   1503  HEM1503     0.0000
     20  CAB       -8.5720   -8.5400   22.9610 C.2   1503  HEM1503     0.0000
     21  CBB       -9.5230   -9.1460   23.6840 C.2   1503  HEM1503     0.0000
     22  C1C       -4.6080   -7.4330   21.1820 C.ar  1503  HEM1503     0.0000
     23  C2C       -3.5910   -6.6870   21.9340 C.ar  1503  HEM1503     0.0000
     24  C3C       -2.4280   -6.7810   21.2590 C.ar  1503  HEM1503     0.0000
     25  C4C       -2.6680   -7.5870   20.0810 C.ar  1503  HEM1503     0.0000
     26  CMC       -3.8000   -5.9000   23.2600 C.3   1503  HEM1503     0.0000
     27  CAC       -1.0740   -6.1630   21.6600 C.2   1503  HEM1503     0.0000
     28  CBC       -0.8500   -5.8530   22.9360 C.2   1503  HEM1503     0.0000
     29  C1D       -1.9530   -8.6770   17.9960 C.2   1503  HEM1503     0.0000
     30  C2D       -1.0440   -8.7300   16.8710 C.2   1503  HEM1503     0.0000
     31  C3D       -1.7350   -9.6720   15.8610 C.2   1503  HEM1503     0.0000
     32  C4D       -2.9640  -10.0900   16.4870 C.2   1503  HEM1503     0.0000
     33  CMD        0.3200   -8.0130   16.7280 C.3   1503  HEM1503     0.0000
     34  CAD       -1.2230  -10.1260   14.4930 C.3   1503  HEM1503     0.0000
     35  CBD       -0.3120  -11.2440   14.9080 C.3   1503  HEM1503     0.0000
     36  CGD        0.3130  -11.8260   13.6890 C.2   1503  HEM1503     0.0000
     37  O1D        1.0810  -11.0800   12.9760 O.co2 1503  HEM1503     0.0000
     38  O2D        0.0180  -13.0500   13.5140 O.co2 1503  HEM1503     0.0000
     39  NA        -5.5210  -10.9990   17.6580 N.ar  1503  HEM1503     0.0000
     40  NB        -6.4160   -9.5820   20.0720 N.2   1503  HEM1503     0.0000
     41  NC        -3.9870   -7.9630   20.0680 N.ar  1503  HEM1503     0.0000
     42  ND        -3.0650   -9.4710   17.7210 N.2   1503  HEM1503     0.0000
     43 FE         -4.7050   -9.4970   18.8760 Fe    1503  HEM1503     0.0000
@<TRIPOS>BOND
     1    13    12   ar
     2    37    36   ar
     3    38    36   ar
     4    36    35    1
     5    12    14   ar
     6    12    11    1
     7    34    35    1
     8    34    31    1
     9    10    11    1
    10    10     6    1
    11    31    32    1
    12    31    30    2
    13     1     5    2
    14     1    32    1
    15     6     5   ar
    16     6     7   ar
    17     5    39   ar
    18    32    42    2
    19    33    30    1
    20     9     7    1
    21     7     8   ar
    22    30    29    1
    23    39     8   ar
    24    39    43    1
    25    42    29    1
    26    42    43    1
    27     8     2    2
    28    29     4    2
    29    43    41    1
    30    43    40    1
    31     2    15    1
    32     4    25    1
    33    15    40    2
    34    15    16    1
    35    41    25   ar
    36    41    22   ar
    37    40    18    1
    38    25    24   ar
    39    16    19    1
    40    16    17    2
    41    18     3    2
    42    18    17    1
    43    22     3    1
    44    22    23   ar
    45    24    27    1
    46    24    23   ar
    47    27    28    2
    48    17    20    1
    49    23    26    1
    50    20    21    2
