@<TRIPOS>MOLECULE
2xqf_FUL_A_1.pdb
 10 10 0 0 0
SMALL
GASTEIGER

@<TRIPOS>ATOM
      1  C1        -1.0130  -56.3030  -28.0680 C.3   1547  FUL1547     0.1776
      2  C2        -2.2050  -56.7610  -27.2090 C.3   1547  FUL1547     0.2141
      3  O2        -2.1190  -56.4950  -25.8180 O.3   1547  FUL1547    -0.2176
      4  C3        -3.3310  -55.8970  -27.7760 C.3   1547  FUL1547     0.2172
      5  O3        -4.5590  -56.1710  -27.1050 O.3   1547  FUL1547    -0.2175
      6  C4        -3.3960  -56.0630  -29.3160 C.3   1547  FUL1547     0.2116
      7  O4        -4.1520  -57.2250  -29.6040 O.3   1547  FUL1547    -0.2177
      8  C5        -2.0170  -56.0890  -30.0370 C.3   1547  FUL1547     0.1483
      9  C6        -2.0610  -56.4230  -31.5170 C.3   1547  FUL1547     0.0349
     10  O5        -1.0900  -56.9010  -29.3510 O.3   1547  FUL1547    -0.3508
@<TRIPOS>BOND
     1     9     8    1
     2     8    10    1
     3     8     6    1
     4     7     6    1
     5    10     1    1
     6     6     4    1
     7     1     2    1
     8     4     2    1
     9     4     5    1
    10     2     3    1
