@<TRIPOS>MOLECULE
2xqg_FUL_A_1.pdb
 10 10 0 0 0
SMALL
GASTEIGER

@<TRIPOS>ATOM
      1  C1        -1.2670  -56.0980  -27.9410 C.3   1565  FUL1565     0.1776
      2  C2        -2.4290  -56.6470  -27.1050 C.3   1565  FUL1565     0.2141
      3  O2        -2.3560  -56.3490  -25.7300 O.3   1565  FUL1565    -0.2176
      4  C3        -3.6490  -55.8990  -27.6250 C.3   1565  FUL1565     0.2172
      5  O3        -4.8190  -56.3370  -26.9310 O.3   1565  FUL1565    -0.2175
      6  C4        -3.7220  -55.9470  -29.1730 C.3   1565  FUL1565     0.2116
      7  O4        -4.4950  -57.0700  -29.5560 O.3   1565  FUL1565    -0.2177
      8  C5        -2.3320  -55.8510  -29.8900 C.3   1565  FUL1565     0.1483
      9  C6        -2.2940  -56.0410  -31.4100 C.3   1565  FUL1565     0.0349
     10  O5        -1.3600  -56.6480  -29.2470 O.3   1565  FUL1565    -0.3508
@<TRIPOS>BOND
     1     9     8    1
     2     8    10    1
     3     8     6    1
     4     7     6    1
     5    10     1    1
     6     6     4    1
     7     1     2    1
     8     4     2    1
     9     4     5    1
    10     2     3    1
