@<TRIPOS>MOLECULE
2xqi_FUL_A_1.pdb
 10 10 0 0 0
SMALL
GASTEIGER

@<TRIPOS>ATOM
      1  C1        -0.8600  -56.4670  -28.5920 C.3   1566  FUL1566     0.1776
      2  C2        -1.9460  -57.0040  -27.6500 C.3   1566  FUL1566     0.2141
      3  O2        -1.7830  -56.5140  -26.3480 O.3   1566  FUL1566    -0.2176
      4  C3        -3.3110  -56.4610  -28.0500 C.3   1566  FUL1566     0.2172
      5  O3        -4.3110  -57.2220  -27.3920 O.3   1566  FUL1566    -0.2175
      6  C4        -3.5120  -56.3930  -29.5730 C.3   1566  FUL1566     0.2116
      7  O4        -4.1370  -57.5770  -30.0190 O.3   1566  FUL1566    -0.2177
      8  C5        -2.2200  -56.0990  -30.3700 C.3   1566  FUL1566     0.1483
      9  C6        -2.3890  -56.2590  -31.8760 C.3   1566  FUL1566     0.0349
     10  O5        -1.1330  -56.8810  -29.9120 O.3   1566  FUL1566    -0.3508
@<TRIPOS>BOND
     1     9     8    1
     2     8    10    1
     3     8     6    1
     4     7     6    1
     5    10     1    1
     6     6     4    1
     7     1     2    1
     8     4     2    1
     9     4     5    1
    10     2     3    1
