@<TRIPOS>MOLECULE
2xqi_5AX_A_1.pdb
 14 14 0 0 0
SMALL
GASTEIGER

@<TRIPOS>ATOM
      1  C1         9.0970  -46.2330  -48.8970 C.3   1563  5AX1563     0.1665
      2  C2        10.2870  -45.2700  -49.0980 C.3   1563  5AX1563     0.1576
      3  C3         9.8620  -43.8890  -49.6880 C.3   1563  5AX1563     0.2069
      4  C4         8.7220  -44.0030  -50.7360 C.3   1563  5AX1563     0.2134
      5  C5         7.5930  -44.7540  -50.0330 C.3   1563  5AX1563     0.1809
      6  C6         6.2160  -44.6480  -50.6970 C.3   1563  5AX1563     0.2141
      7  C7        12.0120  -45.9620  -47.3620 C.2   1563  5AX1563     0.2420
      8  C8        12.6760  -45.5210  -46.0800 C.3   1563  5AX1563     0.0964
      9  N2        11.0810  -45.1130  -47.8670 N.am  1563  5AX1563    -0.2019
     10  O3        10.9710  -43.1910  -50.2410 O.3   1563  5AX1563    -0.2184
     11  O4         8.3100  -42.7730  -51.3460 O.3   1563  5AX1563    -0.2176
     12  O5         8.0870  -46.0810  -49.9190 O.3   1563  5AX1563    -0.3489
     13  O6         6.2300  -45.3020  -51.9430 O.3   1563  5AX1563    -0.2176
     14  O7        12.3510  -47.0510  -47.8530 O.2   1563  5AX1563    -0.2733
@<TRIPOS>BOND
     1    13     6    1
     2    11     4    1
     3     4     5    1
     4     4     3    1
     5     6     5    1
     6    10     3    1
     7     5    12    1
     8    12     1    1
     9     3     2    1
    10     2     1    1
    11     2     9    1
    12     9     7   am
    13    14     7    2
    14     7     8    1
