@<TRIPOS>MOLECULE
2xqj_FUL_A_1.pdb
 10 10 0 0 0
SMALL
GASTEIGER

@<TRIPOS>ATOM
      1  C1        -1.2100  -56.5460  -28.0590 C.3   1547  FUL1547     0.1776
      2  C2        -2.3260  -57.1310  -27.1920 C.3   1547  FUL1547     0.2141
      3  O2        -2.1670  -56.9130  -25.8050 O.3   1547  FUL1547    -0.2176
      4  C3        -3.5750  -56.3940  -27.6650 C.3   1547  FUL1547     0.2172
      5  O3        -4.7090  -56.8640  -26.9450 O.3   1547  FUL1547    -0.2175
      6  C4        -3.7250  -56.4530  -29.2080 C.3   1547  FUL1547     0.2116
      7  O4        -4.4470  -57.6040  -29.5700 O.3   1547  FUL1547    -0.2177
      8  C5        -2.3890  -56.3600  -29.9960 C.3   1547  FUL1547     0.1483
      9  C6        -2.4700  -56.7380  -31.4720 C.3   1547  FUL1547     0.0349
     10  O5        -1.3530  -57.0870  -29.3620 O.3   1547  FUL1547    -0.3508
@<TRIPOS>BOND
     1     9     8    1
     2     8    10    1
     3     8     6    1
     4     7     6    1
     5    10     1    1
     6     6     4    1
     7     1     2    1
     8     4     2    1
     9     4     5    1
    10     2     3    1
