@<TRIPOS>MOLECULE
2xqk_FUC_A_1.pdb
 10 10 0 0 0
SMALL
GASTEIGER

@<TRIPOS>ATOM
      1  C1        -1.1940  -56.7320  -27.2350 C.3   1548  FUC1548     0.1776
      2  C2        -2.5790  -56.9690  -26.6350 C.3   1548  FUC1548     0.2141
      3  C3        -3.5930  -56.0240  -27.2730 C.3   1548  FUC1548     0.2172
      4  C4        -3.5060  -56.0620  -28.8190 C.3   1548  FUC1548     0.2116
      5  C5        -2.0650  -56.0780  -29.3880 C.3   1548  FUC1548     0.1483
      6  C6        -1.9590  -56.3980  -30.8770 C.3   1548  FUC1548     0.0349
      7  O2        -2.5690  -56.8050  -25.2300 O.3   1548  FUC1548    -0.2176
      8  O3        -4.8790  -56.3720  -26.7780 O.3   1548  FUC1548    -0.2175
      9  O4        -4.2390  -57.1670  -29.2950 O.3   1548  FUC1548    -0.2177
     10  O5        -1.1980  -56.9340  -28.6530 O.3   1548  FUC1548    -0.3508
@<TRIPOS>BOND
     1     6     5    1
     2     5     4    1
     3     5    10    1
     4     9     4    1
     5     4     3    1
     6    10     1    1
     7     3     8    1
     8     3     2    1
     9     1     2    1
    10     2     7    1
