@<TRIPOS>MOLECULE
2xqo_CTR_A_1.pdb
 34 36 0 0 0
SMALL
GASTEIGER

@<TRIPOS>ATOM
      1  C1C      -13.7870   29.7120   15.7510 C.3   1244  CTR1244     0.3023
      2  C2C      -14.6410   28.5850   15.2450 C.3   1244  CTR1244     0.2433
      3  C3C      -16.1250   28.9320   15.3210 C.3   1244  CTR1244     0.2168
      4  C4C      -16.4940   29.4620   16.7120 C.3   1244  CTR1244     0.1804
      5  C5C      -15.5050   30.5530   17.0940 C.3   1244  CTR1244     0.1804
      6  C6C      -15.6930   30.9720   18.5310 C.3   1244  CTR1244     0.2141
      7  O1C      -12.3930   29.2440   15.8080 O.3   1244  CTR1244    -0.1869
      8  O2C      -14.2520   28.2410   13.8710 O.3   1244  CTR1244    -0.2148
      9  O3C      -16.9040   27.8140   14.9710 O.3   1244  CTR1244    -0.2175
     10  O4C      -17.8130   29.9990   16.6490 O.3   1244  CTR1244    -0.3257
     11  O5C      -14.1580   30.0360   17.0740 O.3   1244  CTR1244    -0.3237
     12  O6C      -14.7410   32.0290   18.8460 O.3   1244  CTR1244    -0.2176
     13  C1B      -18.6180   29.7000   17.7900 C.3   1244  CTR1244     0.2695
     14  C2B      -19.7130   30.7750   17.8460 C.3   1244  CTR1244     0.2404
     15  C3B      -20.6540   30.4280   19.0520 C.3   1244  CTR1244     0.2167
     16  C4B      -21.1240   29.0070   18.9490 C.3   1244  CTR1244     0.1804
     17  C5B      -19.9470   28.0350   18.7800 C.3   1244  CTR1244     0.1803
     18  C6B      -20.3230   26.6160   18.5450 C.3   1244  CTR1244     0.2141
     19  O2B      -19.1230   32.0650   18.1110 O.3   1244  CTR1244    -0.2149
     20  O3B      -21.7170   31.3490   18.9640 O.3   1244  CTR1244    -0.2175
     21  O4B      -21.8210   28.6600   20.1320 O.3   1244  CTR1244    -0.3257
     22  O5B      -19.1720   28.4080   17.6210 O.3   1244  CTR1244    -0.3257
     23  O6B      -21.0060   26.4310   17.2460 O.3   1244  CTR1244    -0.2176
     24  C1A      -23.1220   28.0760   19.9720 C.3   1244  CTR1244     0.2695
     25  C2A      -23.4340   27.4550   21.2870 C.3   1244  CTR1244     0.2406
     26  C3A      -24.8650   26.9380   21.1490 C.3   1244  CTR1244     0.2198
     27  C4A      -25.8480   27.9690   20.6820 C.3   1244  CTR1244     0.2144
     28  C5A      -25.3300   28.6060   19.4000 C.3   1244  CTR1244     0.1835
     29  C6A      -26.1970   29.7580   18.9070 C.3   1244  CTR1244     0.2142
     30  O2A      -22.5600   26.3460   21.5900 O.3   1244  CTR1244    -0.2149
     31  O3A      -25.2920   26.3970   22.4410 O.3   1244  CTR1244    -0.2174
     32  O4A      -27.1180   27.3380   20.4180 O.3   1244  CTR1244    -0.2176
     33  O5A      -24.0000   29.1080   19.6350 O.3   1244  CTR1244    -0.3256
     34  O6A      -26.4370   30.6880   20.0080 O.3   1244  CTR1244    -0.2176
@<TRIPOS>BOND
     1     8     2    1
     2     9     3    1
     3     2     3    1
     4     2     1    1
     5     3     4    1
     6     1     7    1
     7     1    11    1
     8    10     4    1
     9    10    13    1
    10     4     5    1
    11    11     5    1
    12     5     6    1
    13    23    18    1
    14    22    13    1
    15    22    17    1
    16    13    14    1
    17    14    19    1
    18    14    15    1
    19     6    12    1
    20    18    17    1
    21    17    16    1
    22    29    28    1
    23    29    34    1
    24    16    15    1
    25    16    21    1
    26    20    15    1
    27    28    33    1
    28    28    27    1
    29    33    24    1
    30    24    21    1
    31    24    25    1
    32    32    27    1
    33    27    26    1
    34    26    25    1
    35    26    31    1
    36    25    30    1
