@<TRIPOS>MOLECULE
2xqr_FRU_A_1.pdb
 12 12 0 0 0
SMALL
GASTEIGER

@<TRIPOS>ATOM
      1  C1        19.9130  -35.0470   63.2830 C.3   1000  FRU1000     0.2434
      2  C2        19.5560  -35.9300   64.4840 C.3   1000  FRU1000     0.2807
      3  C3        18.9350  -37.2650   64.0980 C.3   1000  FRU1000     0.2409
      4  C4        18.0920  -37.6010   65.3150 C.3   1000  FRU1000     0.2168
      5  C5        17.6040  -36.2330   65.7730 C.3   1000  FRU1000     0.1836
      6  C6        17.3830  -36.1460   67.2780 C.3   1000  FRU1000     0.2142
      7  O1        19.9370  -33.6530   63.6340 O.3   1000  FRU1000    -0.2148
      8  O2        20.7610  -36.2040   65.2130 O.3   1000  FRU1000    -0.1896
      9  O3        19.9280  -38.2500   63.8040 O.3   1000  FRU1000    -0.2149
     10  O4        17.0090  -38.4810   65.0020 O.3   1000  FRU1000    -0.2175
     11  O5        18.5940  -35.2860   65.3420 O.3   1000  FRU1000    -0.3253
     12  O6        16.3480  -35.1900   67.5540 O.3   1000  FRU1000    -0.2176
@<TRIPOS>BOND
     1     1     7    1
     2     1     2    1
     3     9     3    1
     4     3     2    1
     5     3     4    1
     6     2     8    1
     7     2    11    1
     8    10     4    1
     9     4     5    1
    10    11     5    1
    11     5     6    1
    12     6    12    1
