@<TRIPOS>MOLECULE
2xqr_MAN_A_1.pdb
 11 11 0 0 0
SMALL
GASTEIGER

@<TRIPOS>ATOM
      1  C1        37.9830  -21.2850   60.7150 C.3   1004  MAN1004     0.1777
      2  C2        38.7810  -20.3740   59.7950 C.3   1004  MAN1004     0.2141
      3  C3        37.8380  -19.7060   58.7900 C.3   1004  MAN1004     0.2173
      4  C4        36.9340  -20.7210   58.0930 C.3   1004  MAN1004     0.2142
      5  C5        36.2680  -21.6300   59.1210 C.3   1004  MAN1004     0.1810
      6  C6        35.4680  -22.7600   58.4820 C.3   1004  MAN1004     0.2141
      7  O2        39.7990  -21.1060   59.1300 O.3   1004  MAN1004    -0.2176
      8  O3        38.5700  -19.0150   57.8110 O.3   1004  MAN1004    -0.2175
      9  O4        35.9530  -20.0370   57.3420 O.3   1004  MAN1004    -0.2176
     10  O5        37.2710  -22.2130   59.9270 O.3   1004  MAN1004    -0.3481
     11  O6        34.6810  -23.3890   59.4790 O.3   1004  MAN1004    -0.2176
@<TRIPOS>BOND
     1     9     4    1
     2     8     3    1
     3     4     3    1
     4     4     5    1
     5     6     5    1
     6     6    11    1
     7     3     2    1
     8     5    10    1
     9     7     2    1
    10     2     1    1
    11    10     1    1
