@<TRIPOS>MOLECULE
2xqs_CVM_A_1.pdb
 33 35 0 0 0
SMALL
GASTEIGER

@<TRIPOS>ATOM
      1  C1       -54.8470   17.7050    2.7150 C.3   102  CVM102      0.1449
      2  C2       -53.8650   17.4350    3.8630 C.3   102  CVM102      0.0322
      3  C3       -54.4250   17.9290    5.2030 C.3   102  CVM102      0.0026
      4  C4       -53.8030   17.2330    6.4190 C.3   102  CVM102      0.0001
      5  C6       -54.8030   16.9290    7.5480 C.3   102  CVM102      0.0000
      6  C7       -55.0590   18.1630    8.4140 C.3   102  CVM102      0.0000
      7  C8       -55.8850   17.8660    9.6700 C.3   102  CVM102      0.0000
      8  C9       -56.3430   16.4160    9.7410 C.3   102  CVM102      0.0000
      9  C10      -55.1440   15.4860    9.6400 C.3   102  CVM102      0.0000
     10  C11      -54.2550   15.8130    8.4400 C.3   102  CVM102      0.0000
     11  O12      -54.7910   16.6980    1.6890 O.3   102  CVM102     -0.3286
     12  C13      -56.0910   16.2560    1.2410 C.3   102  CVM102      0.2695
     13  O14      -56.0260   14.9400    0.6750 O.3   102  CVM102     -0.3257
     14  C15      -57.3030   14.3390    0.3860 C.3   102  CVM102      0.1803
     15  C16      -58.2800   15.2430   -0.3760 C.3   102  CVM102      0.1804
     16  C17      -58.1280   16.7520   -0.1330 C.3   102  CVM102      0.2167
     17  C18      -56.6880   17.1730    0.1760 C.3   102  CVM102      0.2404
     18  C19      -57.1190   13.0360   -0.4010 C.3   102  CVM102      0.2141
     19  O20      -56.5720   11.9850    0.4120 O.3   102  CVM102     -0.2176
     20  O21      -58.6060   17.4740   -1.2830 O.3   102  CVM102     -0.2175
     21  O22      -56.6540   18.5410    0.6130 O.3   102  CVM102     -0.2149
     22  O23      -59.5890   14.8270    0.0110 O.3   102  CVM102     -0.3257
     23  C24      -60.4920   14.6680   -1.0830 C.3   102  CVM102      0.2695
     24  O25      -60.0620   13.5590   -1.9020 O.3   102  CVM102     -0.3256
     25  C26      -60.9350   12.4530   -2.1640 C.3   102  CVM102      0.1835
     26  C27      -62.3920   12.8700   -2.1580 C.3   102  CVM102      0.2144
     27  C28      -62.7100   13.3650   -0.7670 C.3   102  CVM102      0.2198
     28  C29      -61.9070   14.6260   -0.4890 C.3   102  CVM102      0.2406
     29  C30      -60.5960   11.8820   -3.5350 C.3   102  CVM102      0.2142
     30  O31      -61.1100   12.7680   -4.5380 O.3   102  CVM102     -0.2176
     31  O32      -63.2240   11.7520   -2.4870 O.3   102  CVM102     -0.2176
     32  O33      -64.1070   13.6610   -0.6680 O.3   102  CVM102     -0.2174
     33  O34      -61.8110   14.8080    0.9300 O.3   102  CVM102     -0.2149
@<TRIPOS>BOND
     1    30    29    1
     2    29    25    1
     3    31    26    1
     4    25    26    1
     5    25    24    1
     6    26    27    1
     7    24    23    1
     8    20    16    1
     9    23    28    1
    10    23    22    1
    11    27    32    1
    12    27    28    1
    13    28    33    1
    14    18    14    1
    15    18    19    1
    16    15    16    1
    17    15    22    1
    18    15    14    1
    19    16    17    1
    20    17    21    1
    21    17    12    1
    22    14    13    1
    23    13    12    1
    24    12    11    1
    25    11     1    1
    26     1     2    1
    27     2     3    1
    28     3     4    1
    29     4     5    1
    30     5     6    1
    31     5    10    1
    32     6     7    1
    33    10     9    1
    34     9     8    1
    35     7     8    1
