@<TRIPOS>MOLECULE
2xqt_CVM_A_1.pdb
 33 35 0 0 0
SMALL
GASTEIGER

@<TRIPOS>ATOM
      1  C1        54.0550  -17.7210    3.6330 C.3   1087  CVM1087     0.1449
      2  C2        53.1210  -17.2100    4.7380 C.3   1087  CVM1087     0.0322
      3  C3        53.7900  -17.4610    6.1010 C.3   1087  CVM1087     0.0026
      4  C4        53.1720  -16.7690    7.3220 C.3   1087  CVM1087     0.0001
      5  C6        54.1920  -16.5830    8.4610 C.3   1087  CVM1087     0.0000
      6  C7        53.7220  -17.2390    9.7470 C.3   1087  CVM1087     0.0000
      7  C8        54.4810  -16.7650   11.0000 C.3   1087  CVM1087     0.0000
      8  C9        55.7840  -16.0420   10.6760 C.3   1087  CVM1087     0.0000
      9  C10       55.5800  -14.8950    9.6770 C.3   1087  CVM1087     0.0000
     10  C11       54.3780  -15.1040    8.7590 C.3   1087  CVM1087     0.0000
     11  O12       53.9060  -17.0150    2.3990 O.3   1087  CVM1087    -0.3286
     12  C13       55.1160  -16.3300    2.0300 C.3   1087  CVM1087     0.2695
     13  O14       54.8200  -15.0450    1.4650 O.3   1087  CVM1087    -0.3257
     14  C15       55.9900  -14.2120    1.4380 C.3   1087  CVM1087     0.1803
     15  C16       57.0660  -14.8200    0.5350 C.3   1087  CVM1087     0.1804
     16  C17       57.2750  -16.3290    0.7970 C.3   1087  CVM1087     0.2167
     17  C18       55.9540  -17.0760    0.9950 C.3   1087  CVM1087     0.2404
     18  C19       55.6280  -12.7780    1.0320 C.3   1087  CVM1087     0.2141
     19  O20       56.6940  -11.8670    1.3560 O.3   1087  CVM1087    -0.2176
     20  O21       57.9590  -16.9430   -0.3060 O.3   1087  CVM1087    -0.2175
     21  O22       56.2010  -18.4320    1.3880 O.3   1087  CVM1087    -0.2149
     22  O23       58.2660  -14.0400    0.6910 O.3   1087  CVM1087    -0.3257
     23  C24       58.8600  -13.7120   -0.5660 C.3   1087  CVM1087     0.2695
     24  O25       58.3930  -12.4270   -1.0220 O.3   1087  CVM1087    -0.3256
     25  C26       59.2850  -11.3040   -0.9390 C.3   1087  CVM1087     0.1835
     26  C27       60.6820  -11.6020   -1.5150 C.3   1087  CVM1087     0.2144
     27  C28       61.3360  -12.7690   -0.7640 C.3   1087  CVM1087     0.2198
     28  C29       60.3680  -13.9000   -0.3660 C.3   1087  CVM1087     0.2406
     29  C30       58.6600  -10.0860   -1.6320 C.3   1087  CVM1087     0.2142
     30  O31       57.3110   -9.8500   -1.1980 O.3   1087  CVM1087    -0.2176
     31  O32       61.5400  -10.4320   -1.4190 O.3   1087  CVM1087    -0.2176
     32  O33       62.4530  -13.3230   -1.4920 O.3   1087  CVM1087    -0.2174
     33  O34       60.5680  -14.2790    1.0170 O.3   1087  CVM1087    -0.2149
@<TRIPOS>BOND
     1    29    30    1
     2    29    25    1
     3    26    31    1
     4    26    25    1
     5    26    27    1
     6    32    27    1
     7    24    25    1
     8    24    23    1
     9    27    28    1
    10    23    28    1
    11    23    22    1
    12    28    33    1
    13    20    16    1
    14    15    22    1
    15    15    16    1
    16    15    14    1
    17    16    17    1
    18    17    21    1
    19    17    12    1
    20    18    19    1
    21    18    14    1
    22    14    13    1
    23    13    12    1
    24    12    11    1
    25    11     1    1
    26     1     2    1
    27     2     3    1
    28     3     4    1
    29     4     5    1
    30     5    10    1
    31     5     6    1
    32    10     9    1
    33     9     8    1
    34     6     7    1
    35     8     7    1
