@<TRIPOS>MOLECULE
2xqt_DCW_A_1.pdb
 16 17 0 0 0
SMALL
GASTEIGER

@<TRIPOS>ATOM
      1  N1        64.9030   -4.0190   35.2560 N.am  1062  DCW1062    -0.1890
      2  O1        66.8710   -3.8860   34.2450 O.2   1062  DCW1062    -0.2492
      3  C1        66.2400   -3.9660   35.2890 C.2   1062  DCW1062     0.3391
      4  C2        64.0990   -2.7970   35.4740 C.3   1062  DCW1062     0.0969
      5  N2        66.8850   -3.9990   36.4510 N.am  1062  DCW1062    -0.1890
      6  C3        63.6850   -2.7240   36.9390 C.3   1062  DCW1062     0.0217
      7  C7        64.9800   -1.5810   35.1870 C.3   1062  DCW1062     0.0217
      8  C4        62.9110   -1.4430   37.2470 C.3   1062  DCW1062     0.0018
      9  C5        63.7510   -0.2300   36.9140 C.3   1062  DCW1062     0.0001
     10  C6        64.2070   -0.2950   35.4610 C.3   1062  DCW1062     0.0018
     11  C8        68.1370   -4.7280   36.5600 C.3   1062  DCW1062     0.0969
     12  C9        68.0620   -6.0080   35.7360 C.3   1062  DCW1062     0.0217
     13  C13       69.3010   -3.8770   36.0620 C.3   1062  DCW1062     0.0217
     14  C10       69.4450   -6.6030   35.5350 C.3   1062  DCW1062     0.0018
     15  C11       70.2450   -5.7080   34.6050 C.3   1062  DCW1062     0.0001
     16  C12       69.7050   -4.2840   34.6460 C.3   1062  DCW1062     0.0018
@<TRIPOS>BOND
     1     2     3    2
     2    15    16    1
     3    15    14    1
     4    16    13    1
     5     7    10    1
     6     7     4    1
     7     1     3   am
     8     1     4    1
     9     3     5   am
    10    10     9    1
    11     4     6    1
    12    14    12    1
    13    12    11    1
    14    13    11    1
    15     5    11    1
    16     9     8    1
    17     6     8    1
