@<TRIPOS>MOLECULE
2xqu_CVM_A_1.pdb
 33 35 0 0 0
SMALL
GASTEIGER

@<TRIPOS>ATOM
      1  C1       -54.4720   18.1080    3.4450 C.3   102  CVM102      0.1449
      2  C2       -53.7180   17.5710    4.6560 C.3   102  CVM102      0.0322
      3  C3       -54.4810   17.8950    5.9370 C.3   102  CVM102      0.0026
      4  C4       -54.2660   16.8080    6.9820 C.3   102  CVM102      0.0001
      5  C6       -55.3770   16.7800    8.0270 C.3   102  CVM102      0.0000
      6  C7       -55.0970   17.8260    9.0990 C.3   102  CVM102      0.0000
      7  C8       -56.0480   17.7050   10.2880 C.3   102  CVM102      0.0000
      8  C9       -57.0980   16.6280   10.0490 C.3   102  CVM102      0.0000
      9  C10      -56.4330   15.2850    9.7760 C.3   102  CVM102      0.0000
     10  C11      -55.4050   15.3920    8.6560 C.3   102  CVM102      0.0000
     11  O12      -54.3180   17.2160    2.3410 O.3   102  CVM102     -0.3286
     12  C13      -55.5670   16.6190    1.9930 C.3   102  CVM102      0.2695
     13  O14      -55.3420   15.3340    1.4140 O.3   102  CVM102     -0.3257
     14  C15      -56.5680   14.6350    1.1840 C.3   102  CVM102      0.1803
     15  C16      -57.4880   15.3960    0.2360 C.3   102  CVM102      0.1804
     16  C17      -57.6800   16.8370    0.6980 C.3   102  CVM102      0.2167
     17  C18      -56.3320   17.4800    0.9950 C.3   102  CVM102      0.2404
     18  C19      -56.2930   13.2250    0.6730 C.3   102  CVM102      0.2141
     19  O20      -57.4580   12.4200    0.8890 O.3   102  CVM102     -0.2176
     20  O21      -58.3540   17.5980   -0.3120 O.3   102  CVM102     -0.2175
     21  O22      -56.5370   18.8000    1.5130 O.3   102  CVM102     -0.2149
     22  O23      -58.7390   14.7120    0.2230 O.3   102  CVM102     -0.3257
     23  C24      -59.4290   14.7670   -1.0270 C.3   102  CVM102      0.2695
     24  O25      -58.6860   14.0960   -2.0520 O.3   102  CVM102     -0.3256
     25  C26      -58.6140   12.6800   -1.8910 C.3   102  CVM102      0.1835
     26  C27      -60.0020   12.0780   -2.0480 C.3   102  CVM102      0.2144
     27  C28      -61.0000   12.6910   -1.0720 C.3   102  CVM102      0.2198
     28  C29      -60.8180   14.1820   -0.7760 C.3   102  CVM102      0.2406
     29  C30      -57.6450   12.0980   -2.9190 C.3   102  CVM102      0.2142
     30  O31      -56.3290   12.6310   -2.7170 O.3   102  CVM102     -0.2176
     31  O32      -59.9260   10.6670   -1.7890 O.3   102  CVM102     -0.2176
     32  O33      -62.3250   12.4920   -1.5870 O.3   102  CVM102     -0.2174
     33  O34      -61.1160   14.3940    0.6140 O.3   102  CVM102     -0.2149
@<TRIPOS>BOND
     1    29    30    1
     2    29    25    1
     3    24    25    1
     4    24    23    1
     5    26    25    1
     6    26    31    1
     7    26    27    1
     8    32    27    1
     9    27    28    1
    10    23    28    1
    11    23    22    1
    12    28    33    1
    13    20    16    1
    14    22    15    1
    15    15    16    1
    16    15    14    1
    17    18    19    1
    18    18    14    1
    19    16    17    1
    20    17    21    1
    21    17    12    1
    22    14    13    1
    23    13    12    1
    24    12    11    1
    25    11     1    1
    26     1     2    1
    27     2     3    1
    28     3     4    1
    29     4     5    1
    30     5    10    1
    31     5     6    1
    32    10     9    1
    33     6     7    1
    34     9     8    1
    35     8     7    1
