@<TRIPOS>MOLECULE
2xr5_MAN_A_1.pdb
 12 12 0 0 0
SMALL
GASTEIGER

@<TRIPOS>ATOM
      1  O1         0.9330   21.1230   30.0820 O.3   1384  MAN1384    -0.1869
      2  C1         1.5090   21.7330   28.9350 C.3   1384  MAN1384     0.3024
      3  C2         1.0610   20.8740   27.7660 C.3   1384  MAN1384     0.2434
      4  O2         1.5240   21.5110   26.5570 O.3   1384  MAN1384    -0.2148
      5  C3         1.7630   19.5400   27.8940 C.3   1384  MAN1384     0.2199
      6  O3         1.4680   18.7210   26.7590 O.3   1384  MAN1384    -0.2174
      7  C4         3.2500   19.6440   28.0600 C.3   1384  MAN1384     0.2144
      8  O4         3.7310   18.2780   28.1540 O.3   1384  MAN1384    -0.2176
      9  C5         3.5810   20.5680   29.2290 C.3   1384  MAN1384     0.1836
     10  O5         2.9350   21.8380   29.0000 O.3   1384  MAN1384    -0.3236
     11  C6         5.0690   20.7500   29.2440 C.3   1384  MAN1384     0.2142
     12  O6         5.4200   21.6590   30.3020 O.3   1384  MAN1384    -0.2176
@<TRIPOS>BOND
     1     4     3    1
     2     6     5    1
     3     3     5    1
     4     3     2    1
     5     5     7    1
     6     7     8    1
     7     7     9    1
     8     2    10    1
     9     2     1    1
    10    10     9    1
    11     9    11    1
    12    11    12    1
