@<TRIPOS>MOLECULE
2xr6_MAN_A_1.pdb
 12 12 0 0 0
SMALL
GASTEIGER

@<TRIPOS>ATOM
      1  O2        21.5050    1.4480  -26.5560 O.3   1385  MAN1385    -0.2148
      2  C2        20.8940    1.1480  -27.8100 C.3   1385  MAN1385     0.2434
      3  C3        19.5370    1.8560  -27.9200 C.3   1385  MAN1385     0.2199
      4  O3        18.7170    1.5550  -26.7860 O.3   1385  MAN1385    -0.2174
      5  C4        19.6740    3.3380  -28.0100 C.3   1385  MAN1385     0.2144
      6  O4        18.3610    3.8980  -28.1960 O.3   1385  MAN1385    -0.2176
      7  C5        20.6220    3.7910  -29.1730 C.3   1385  MAN1385     0.1836
      8  C6        20.9340    5.2430  -29.0620 C.3   1385  MAN1385     0.2142
      9  O6        21.7670    5.6150  -30.1960 O.3   1385  MAN1385    -0.2176
     10  O5        21.8650    3.0990  -28.9500 O.3   1385  MAN1385    -0.3236
     11  C1        21.7930    1.6600  -28.9250 C.3   1385  MAN1385     0.3024
     12  O1        21.2190    1.0880  -30.0660 O.3   1385  MAN1385    -0.1869
@<TRIPOS>BOND
     1     9     8    1
     2    12    11    1
     3     7     8    1
     4     7    10    1
     5     7     5    1
     6    10    11    1
     7    11     2    1
     8     6     5    1
     9     5     3    1
    10     3     2    1
    11     3     4    1
    12     2     1    1
