@<TRIPOS>MOLECULE
2xr7_MLC_A_1.pdb
 30 30 0 0 0
SMALL
GASTEIGER

@<TRIPOS>ATOM
      1  NP2      -11.1250   -6.8850   25.5650 N.am  1001  MLC1001    -0.0856
      2  CP6      -11.3650   -6.0120   26.5560 C.2   1001  MLC1001     0.2912
      3  OP2      -12.0000   -6.2850   27.5820 O.2   1001  MLC1001    -0.2689
      4  CP7      -10.8340   -4.5810   26.3360 C.3   1001  MLC1001     0.2329
      5  OP3       -9.5510   -4.5820   25.6780 O.3   1001  MLC1001    -0.2131
      6  CPA      -11.8510   -3.8760   25.4620 C.3   1001  MLC1001     0.0646
      7  CP9      -12.5450   -4.9300   24.5950 C.3   1001  MLC1001     0.0056
      8  CP8      -12.8570   -3.1660   26.3540 C.3   1001  MLC1001     0.0056
      9  CPB      -11.1340   -2.8400   24.5900 C.3   1001  MLC1001     0.1519
     10  O7       -10.4330   -3.4820   23.5190 O.3   1001  MLC1001    -0.3138
     11  P2        -9.2470   -2.7290   22.7220 P.3   1001  MLC1001     0.2188
     12  O21       -9.7350   -2.4260   21.3730 O.2   1001  MLC1001    -0.5170
     13  O22       -8.0010   -3.5330   22.9150 O.3   1001  MLC1001    -0.4371
     14  O6        -9.1940   -1.2580   23.3670 O.3   1001  MLC1001    -0.2703
     15  P1        -8.1310   -0.9240   24.5270 P.3   1001  MLC1001     0.2189
     16  O11       -8.1640   -2.0570   25.4970 O.3   1001  MLC1001    -0.4371
     17  O12       -8.3980    0.4650   24.9840 O.2   1001  MLC1001    -0.5170
     18  O5'       -6.6800   -0.9670   23.7310 O.3   1001  MLC1001    -0.3112
     19  C5'       -6.2400   -2.2530   23.1860 C.3   1001  MLC1001     0.1811
     20  C4'       -4.7630   -2.2770   22.6620 C.3   1001  MLC1001     0.1754
     21  O4'       -3.7990   -2.3710   23.7230 O.3   1001  MLC1001    -0.3483
     22  C3'       -4.4130   -0.9280   22.0380 C.3   1001  MLC1001     0.1884
     23  O3'       -3.3160   -1.1250   21.1280 O.3   1001  MLC1001    -0.2674
     24  P3        -3.3670   -2.4460   20.1480 P.3   1001  MLC1001     0.5327
     25  O31       -3.8260   -1.8950   18.7090 O.2   1001  MLC1001    -0.2224
     26  O32       -1.8530   -3.0000   19.8960 O.3   1001  MLC1001    -0.1145
     27  O33       -4.2390   -3.5200   20.6660 O.3   1001  MLC1001    -0.1145
     28  C2'       -4.0660   -0.0710   23.2860 C.3   1001  MLC1001     0.2113
     29  O2'       -2.7980    0.5730   23.1400 O.3   1001  MLC1001    -0.2177
     30  C1'       -3.9780   -1.1000   24.4290 C.3   1001  MLC1001     0.1776
@<TRIPOS>BOND
     1    25    24    2
     2    26    24    1
     3    24    27    1
     4    24    23    1
     5    23    22    1
     6    12    11    2
     7    22    20    1
     8    22    28    1
     9    20    19    1
    10    20    21    1
    11    11    13    1
    12    11    14    1
    13    11    10    1
    14    29    28    1
    15    19    18    1
    16    28    30    1
    17    14    15    1
    18    10     9    1
    19    21    30    1
    20    18    15    1
    21    15    17    2
    22    15    16    1
    23     9     6    1
    24     7     6    1
    25     6     4    1
    26     6     8    1
    27     1     2   am
    28     5     4    1
    29     4     2    1
    30     2     3    2
