@<TRIPOS>MOLECULE
2xrg_SWH_A_1.pdb
 33 36 0 0 0
SMALL
GASTEIGER

@<TRIPOS>ATOM
      1  O1       -24.9520    6.0970    5.4410 O.2   1862  SWH1862     0.0000
      2  C2       -24.6320    5.5530    6.4830 C.2   1862  SWH1862     0.0000
      3  N3       -25.4360    5.2590    7.5140 N.am  1862  SWH1862     0.0000
      4  C4       -26.8670    5.5940    7.4590 C.3   1862  SWH1862     0.0000
      5  C5       -27.6520    4.4120    6.9470 C.ar  1862  SWH1862     0.0000
      6  C6       -28.0610    3.4080    7.8180 C.ar  1862  SWH1862     0.0000
      7  C7       -28.7850    2.3220    7.3390 C.ar  1862  SWH1862     0.0000
      8  C8       -29.1010    2.2390    5.9850 C.ar  1862  SWH1862     0.0000
      9  F9       -29.8010    1.1860    5.5070 F     1862  SWH1862     0.0000
     10  C10      -28.6940    3.2470    5.1180 C.ar  1862  SWH1862     0.0000
     11  C11      -27.9700    4.3300    5.5970 C.ar  1862  SWH1862     0.0000
     12  C12      -24.9200    4.6710    8.5870 C.2   1862  SWH1862     0.0000
     13  O13      -25.5870    4.3750    9.5650 O.2   1862  SWH1862     0.0000
     14  S14      -23.0030    5.0090    6.9310 S.3   1862  SWH1862     0.0000
     15  C15      -23.4820    4.3730    8.5200 C.2   1862  SWH1862     0.0000
     16  C16      -22.7700    3.7380    9.4950 C.2   1862  SWH1862     0.0000
     17  C17      -21.3420    3.3700    9.5320 C.ar  1862  SWH1862     0.0000
     18  C18      -20.8360    2.9270   10.7670 C.ar  1862  SWH1862     0.0000
     19  C19      -19.5200    2.5310   10.8900 C.ar  1862  SWH1862     0.0000
     20  C20      -18.6630    2.5650    9.7900 C.ar  1862  SWH1862     0.0000
     21  O21      -17.3790    2.1370    9.9900 O.3   1862  SWH1862     0.0000
     22  C22      -16.3090    2.4120    9.0750 C.3   1862  SWH1862     0.0000
     23  C23      -16.3760    1.5250    7.8530 C.ar  1862  SWH1862     0.0000
     24  C24      -17.0540    0.3100    7.8770 C.ar  1862  SWH1862     0.0000
     25  C25      -17.1270   -0.4720    6.7340 C.ar  1862  SWH1862     0.0000
     26  C26      -16.5040   -0.0430    5.5540 C.ar  1862  SWH1862     0.0000
     27  B27      -16.6250   -0.8940    4.2370 B     1862  SWH1862     0.0000
     28  O28      -16.4780   -2.2300    4.5080 O.3   1862  SWH1862     0.0000
     29  O29      -15.6860   -0.4920    3.3220 O.3   1862  SWH1862     0.0000
     30  C30      -15.8430    1.1910    5.5300 C.ar  1862  SWH1862     0.0000
     31  C31      -15.7750    1.9580    6.6790 C.ar  1862  SWH1862     0.0000
     32  C32      -19.1620    2.9820    8.5460 C.ar  1862  SWH1862     0.0000
     33  C33      -20.4880    3.3710    8.4100 C.ar  1862  SWH1862     0.0000
@<TRIPOS>UNITY_ATOM_ATTR
27 1
charge -1
@<TRIPOS>BOND
     1    29    27    1
     2    27    28    1
     3    27    26    1
     4    10    11   ar
     5    10     8   ar
     6     1     2    2
     7     9     8    1
     8    30    26   ar
     9    30    31   ar
    10    26    25   ar
    11    11     5   ar
    12     8     7   ar
    13     2    14    1
    14     2     3   am
    15    31    23   ar
    16    25    24   ar
    17    14    15    1
    18     5     4    1
    19     5     6   ar
    20     7     6   ar
    21     4     3    1
    22     3    12   am
    23    23    24   ar
    24    23    22    1
    25    33    32   ar
    26    33    17   ar
    27    15    12    1
    28    15    16    2
    29    32    20   ar
    30    12    13    2
    31    22    21    1
    32    16    17    1
    33    17    18   ar
    34    20    21    1
    35    20    19   ar
    36    18    19   ar
