@<TRIPOS>MOLECULE
2xrl_DXT_A_1.pdb
 32 35 0 0 0
SMALL
GASTEIGER

@<TRIPOS>ATOM
      1  C1        19.7970   33.8880   34.4660 C.3   1211  DXT1211     0.1977
      2  O1        19.1760   34.3570   33.4350 O.3   1211  DXT1211    -0.2194
      3  C2        19.3680   32.7270   35.1430 C.3   1211  DXT1211     0.1446
      4  O21       17.5310   31.2760   35.5320 O.2   1211  DXT1211    -0.2715
      5  C21       18.1220   32.1360   34.8010 C.2   1211  DXT1211     0.2654
      6  N21       17.4890   32.4280   33.6570 N.am  1211  DXT1211    -0.0877
      7  C3        19.9130   32.4240   36.3490 C.3   1211  DXT1211     0.1778
      8  O3        19.7000   31.2940   36.9650 O.3   1211  DXT1211    -0.2211
      9  N4        21.8390   32.5980   37.8650 N.3   1211  DXT1211    -0.2692
     10  C41       22.3300   33.4620   39.0040 C.3   1211  DXT1211     0.0897
     11  C42       23.0520   32.1140   37.1080 C.3   1211  DXT1211     0.0897
     12  C5        20.4480   35.8840   36.7470 C.3   1211  DXT1211     0.1573
     13  O5        20.2170   35.9900   38.1410 O.3   1211  DXT1211    -0.2230
     14  C5A       20.7970   37.1680   36.0010 C.3   1211  DXT1211     0.0490
     15  C6        19.9080   38.4040   36.0470 C.3   1211  DXT1211     0.0258
     16  C61       19.3180   38.6220   37.4590 C.3   1211  DXT1211     0.0048
     17  C6A       20.7160   39.5660   35.4940 C.ar  1211  DXT1211    -0.0165
     18  C7        20.6730   40.8590   36.0210 C.ar  1211  DXT1211    -0.0040
     19  C8        21.4140   41.9290   35.4860 C.ar  1211  DXT1211     0.0030
     20  C9        22.2710   41.7410   34.4020 C.ar  1211  DXT1211     0.0421
     21  C10       22.3380   40.4740   33.8040 C.ar  1211  DXT1211     0.1981
     22  O10       23.1440   40.3300   32.7120 O.3   1211  DXT1211    -0.2865
     23  C6B       21.5810   39.3900   34.3930 C.ar  1211  DXT1211     0.0700
     24  O11       22.2050   37.9140   32.6650 O.2   1211  DXT1211    -0.2908
     25  C5B       21.3650   36.9360   34.5940 C.3   1211  DXT1211     0.1246
     26  C12       21.5490   35.7060   34.1290 C.2   1211  DXT1211     0.1875
     27  O12       22.0420   35.5100   32.9620 O.2   1211  DXT1211    -0.2930
     28  C4B       21.1900   34.4320   34.8780 C.3   1211  DXT1211     0.2093
     29  O13       22.1460   33.4140   34.5040 O.3   1211  DXT1211    -0.2153
     30  C4        20.7650   33.3720   37.1200 C.3   1211  DXT1211     0.0940
     31  C4A       21.2730   34.6360   36.3750 C.3   1211  DXT1211     0.0849
     32  C11       21.6520   38.0150   33.8100 C.2   1211  DXT1211     0.1825
@<TRIPOS>BOND
     1    24    32    2
     2    22    21    1
     3    27    26    2
     4     2     1    1
     5     6     5   am
     6    21    23   ar
     7    21    20   ar
     8    32    23    1
     9    32    25    1
    10    26    25    1
    11    26    28    1
    12    23    17   ar
    13    20    19   ar
    14     1    28    1
    15     1     3    1
    16    29    28    1
    17    25    14    1
    18     5     3    1
    19     5     4    2
    20    28    31    1
    21     3     7    1
    22    19    18   ar
    23    17    18   ar
    24    17    15    1
    25    14    15    1
    26    14    12    1
    27    15    16    1
    28     7     8    1
    29     7    30    1
    30    31    12    1
    31    31    30    1
    32    12    13    1
    33    11     9    1
    34    30     9    1
    35     9    10    1
