@<TRIPOS>MOLECULE
2xrp_GDP_A_1.pdb
 28 30 0 0 0
SMALL
GASTEIGER

@<TRIPOS>ATOM
      1  PB        91.2720   45.8810  139.3850 P.3   600  GDP600      0.5373
      2  O1B       90.5670   46.4340  138.2130 O.2   600  GDP600     -0.2221
      3  O2B       92.5800   46.3310  139.5850 O.3   600  GDP600     -0.1143
      4  O3B       90.3050   46.0500  140.6920 O.3   600  GDP600     -0.1143
      5  O3A       91.4240   44.3370  139.1130 O.3   600  GDP600     -0.2261
      6  PA        92.7970   43.3870  139.0430 P.3   600  GDP600      0.2231
      7  O1A       93.6160   43.8010  137.8700 O.2   600  GDP600     -0.5169
      8  O2A       93.4760   43.5240  140.3960 O.3   600  GDP600     -0.4370
      9  O5'       92.1780   41.9910  138.7470 O.3   600  GDP600     -0.3111
     10  C5'       92.8800   40.7600  139.0970 C.3   600  GDP600      0.1813
     11  C4'       93.1360   39.8640  137.9820 C.3   600  GDP600      0.1799
     12  O4'       94.0490   40.5410  137.0320 O.3   600  GDP600     -0.3326
     13  C3'       93.9600   38.5730  138.3340 C.3   600  GDP600      0.2158
     14  O3'       93.3830   37.4930  137.5140 O.3   600  GDP600     -0.2175
     15  C2'       95.4320   38.7770  137.9040 C.3   600  GDP600      0.2310
     16  O2'       96.1930   37.6420  137.4540 O.3   600  GDP600     -0.2158
     17  C1'       95.3200   39.7990  136.7750 C.3   600  GDP600      0.2293
     18  N9        96.4070   40.7770  136.7290 N.pl3 600  GDP600     -0.2354
     19  C8        96.4910   41.8280  137.8000 C.3   600  GDP600      0.2246
     20  N7        97.6360   42.4240  137.2430 N.2   600  GDP600     -0.2322
     21  C5        98.1840   41.9360  136.1350 C.2   600  GDP600      0.2182
     22  C6        99.2280   42.0630  135.1940 C.1   600  GDP600      0.2372
     23  O6       100.0800   43.0820  135.3900 O.2   600  GDP600     -0.2069
     24  N1        99.3960   41.2600  134.1190 N.2   600  GDP600     -0.2485
     25  C2        98.4310   40.1470  133.9140 C.1   600  GDP600      0.2531
     26  N2        98.7970   39.4920  132.8340 N.pl3 600  GDP600     -0.0226
     27  N3        97.4820   39.9650  134.7350 N.2   600  GDP600     -0.3074
     28  C4        97.3340   40.8130  135.7710 C.2   600  GDP600      0.2300
@<TRIPOS>BOND
     1    26    25    1
     2    25    24    2
     3    25    27    2
     4    24    22    2
     5    27    28    2
     6    22    23    2
     7    22    21    1
     8    28    21    1
     9    28    18    1
    10    21    20    2
    11    18    17    1
    12    18    19    1
    13    17    12    1
    14    17    15    1
    15    12    11    1
    16    20    19    1
    17    16    15    1
    18    14    13    1
    19     7     6    2
    20    15    13    1
    21    11    13    1
    22    11    10    1
    23     2     1    2
    24     9     6    1
    25     9    10    1
    26     6     5    1
    27     6     8    1
    28     5     1    1
    29     1     3    1
    30     1     4    1
