@<TRIPOS>MOLECULE
2xrp_GTP_B_1.pdb
 32 34 0 0 0
SMALL
GASTEIGER

@<TRIPOS>ATOM
      1  PG        90.6380   46.2860   99.2900 P.3   500  GTP500      0.5373
      2  O1G       91.9490   46.5110  100.2110 O.3   500  GTP500     -0.1143
      3  O2G       89.5910   47.3700   99.8400 O.2   500  GTP500     -0.2221
      4  O3G       89.9550   44.9900   99.9140 O.3   500  GTP500     -0.1143
      5  O3B       91.0580   46.2720   97.8980 O.3   500  GTP500     -0.2258
      6  PB        92.1540   45.2590   97.1960 P.3   500  GTP500      0.2277
      7  O1B       91.4150   44.6140   96.0340 O.2   500  GTP500     -0.5168
      8  O2B       93.4000   45.9600   96.9230 O.3   500  GTP500     -0.4368
      9  O3A       92.3130   44.1130   98.1940 O.3   500  GTP500     -0.2700
     10  PA        93.2970   42.9620   98.3880 P.3   500  GTP500      0.2189
     11  O1A       94.6970   43.4250   98.3530 O.2   500  GTP500     -0.5170
     12  O2A       92.8860   42.2240   99.6170 O.3   500  GTP500     -0.4371
     13  O5'       92.9720   41.9710   97.1160 O.3   500  GTP500     -0.3112
     14  C5'       93.7920   40.8130   97.0990 C.3   500  GTP500      0.1813
     15  C4'       93.5520   39.8560   95.9760 C.3   500  GTP500      0.1799
     16  O4'       94.3510   40.2170   94.8200 O.3   500  GTP500     -0.3326
     17  C3'       94.0390   38.4880   96.4040 C.3   500  GTP500      0.2158
     18  O3'       93.3490   37.4900   95.6890 O.3   500  GTP500     -0.2175
     19  C2'       95.5200   38.5620   96.0640 C.3   500  GTP500      0.2310
     20  O2'       96.0190   37.2430   95.8260 O.3   500  GTP500     -0.2158
     21  C1'       95.5590   39.4380   94.8030 C.3   500  GTP500      0.2293
     22  N9        96.6970   40.3670   94.7080 N.pl3 500  GTP500     -0.2354
     23  C8        97.0450   41.3470   95.6080 C.3   500  GTP500      0.2246
     24  N7        98.1070   42.0200   95.2610 N.2   500  GTP500     -0.2322
     25  C5        98.5000   41.4500   94.0740 C.2   500  GTP500      0.2182
     26  C6        99.5790   41.7460   93.2420 C.1   500  GTP500      0.2372
     27  O6       100.4170   42.6270   93.4180 O.2   500  GTP500     -0.2069
     28  N1        99.6410   40.9280   92.0920 N.2   500  GTP500     -0.2485
     29  C2        98.7460   39.9210   91.7980 C.1   500  GTP500      0.2531
     30  N2        98.9600   39.2550   90.7000 N.pl3 500  GTP500     -0.0226
     31  N3        97.7150   39.6180   92.5870 N.2   500  GTP500     -0.3074
     32  C4        97.6370   40.4150   93.7010 C.2   500  GTP500      0.2300
@<TRIPOS>BOND
     1    30    29    1
     2    29    28    2
     3    29    31    2
     4    28    26    2
     5    31    32    2
     6    26    27    2
     7    26    25    1
     8    32    25    1
     9    32    22    1
    10    25    24    2
    11    22    21    1
    12    22    23    1
    13    21    16    1
    14    21    19    1
    15    16    15    1
    16    24    23    1
    17    18    17    1
    18    20    19    1
    19    15    17    1
    20    15    14    1
    21     7     6    2
    22    19    17    1
    23     8     6    1
    24    14    13    1
    25    13    10    1
    26     6     5    1
    27     6     9    1
    28     5     1    1
    29     9    10    1
    30    11    10    2
    31    10    12    1
    32     1     3    2
    33     1     4    1
    34     1     2    1
