@<TRIPOS>MOLECULE
2xrq_GAL_D_1.pdb
 11 11 0 0 0
SMALL
GASTEIGER

@<TRIPOS>ATOM
      1  C1         2.7410   23.0290   14.5220 C.3   1104  GAL1104     0.1777
      2  C2         3.1910   23.7870   15.7780 C.3   1104  GAL1104     0.2141
      3  O2         2.9120   25.1700   15.6910 O.3   1104  GAL1104    -0.2176
      4  C3         4.6850   23.5540   15.9710 C.3   1104  GAL1104     0.2173
      5  O3         5.1350   24.1620   17.1530 O.3   1104  GAL1104    -0.2175
      6  C4         4.9820   22.0560   16.0190 C.3   1104  GAL1104     0.2142
      7  O4         4.3490   21.5370   17.1570 O.3   1104  GAL1104    -0.2176
      8  C5         4.4310   21.3920   14.7540 C.3   1104  GAL1104     0.1810
      9  C6         4.6770   19.8950   14.6930 C.3   1104  GAL1104     0.2141
     10  O6         4.2080   19.3720   13.4640 O.3   1104  GAL1104    -0.2176
     11  O5         3.0440   21.6450   14.6540 O.3   1104  GAL1104    -0.3481
@<TRIPOS>BOND
     1    10     9    1
     2     1    11    1
     3     1     2    1
     4    11     8    1
     5     9     8    1
     6     8     6    1
     7     3     2    1
     8     2     4    1
     9     4     6    1
    10     4     5    1
    11     6     7    1
