@<TRIPOS>MOLECULE
2xrq_SIA_D_1.pdb
 20 20 0 0 0
SMALL
GASTEIGER

@<TRIPOS>ATOM
      1  O10        2.4780   21.5270    3.6630 O.2   1108  SIA1108    -0.2733
      2  C10        3.5140   22.0620    4.0300 C.2   1108  SIA1108     0.2420
      3  C11        4.8250   21.6470    3.4620 C.3   1108  SIA1108     0.0964
      4  N5         3.5670   23.0340    4.9430 N.am  1108  SIA1108    -0.2020
      5  C5         2.3690   23.5700    5.5790 C.3   1108  SIA1108     0.1552
      6  C4         2.4360   25.1070    5.5680 C.3   1108  SIA1108     0.1773
      7  O4         2.2990   25.5950    4.2250 O.3   1108  SIA1108    -0.2211
      8  C3         1.3860   25.7840    6.4700 C.3   1108  SIA1108     0.0760
      9  C6         2.1690   23.0010    6.9970 C.3   1108  SIA1108     0.1710
     10  O6         1.0640   23.6670    7.6280 O.3   1108  SIA1108    -0.3429
     11  C2         1.2000   25.0910    7.8350 C.3   1108  SIA1108     0.2203
     12  C1         2.3930   25.2700    8.7670 C.2   1108  SIA1108     0.3914
     13  O1A        2.4720   24.4900    9.7590 O.co2 1108  SIA1108    -0.2430
     14  O1B        3.2510   26.1570    8.5340 O.co2 1108  SIA1108    -0.2430
     15  C7         1.9260   21.4820    7.0860 C.3   1108  SIA1108     0.2134
     16  O7         0.8640   21.0410    6.2300 O.3   1108  SIA1108    -0.2176
     17  C8         1.5440   21.0190    8.4890 C.3   1108  SIA1108     0.2173
     18  O8         2.3610   21.6600    9.4680 O.3   1108  SIA1108    -0.2175
     19  C9         1.6690   19.5060    8.5910 C.3   1108  SIA1108     0.2175
     20  O9         0.8990   18.9640    9.6760 O.3   1108  SIA1108    -0.2175
@<TRIPOS>BOND
     1     3     2    1
     2     1     2    2
     3     2     4   am
     4     7     6    1
     5     4     5    1
     6     6     5    1
     7     6     8    1
     8     5     9    1
     9    16    15    1
    10     8    11    1
    11     9    15    1
    12     9    10    1
    13    15    17    1
    14    10    11    1
    15    11    12    1
    16    17    19    1
    17    17    18    1
    18    14    12   ar
    19    19    20    1
    20    12    13   ar
