@<TRIPOS>MOLECULE
2xrs_GAL_D_1.pdb
 11 11 0 0 0
SMALL
GASTEIGER

@<TRIPOS>ATOM
      1  C1        -4.7690   -6.7140  -27.5490 C.3   208  GAL208      0.1777
      2  C2        -5.5930   -7.9930  -27.3660 C.3   208  GAL208      0.2141
      3  C3        -6.4990   -7.8960  -26.1330 C.3   208  GAL208      0.2173
      4  C4        -5.7130   -7.3850  -24.9230 C.3   208  GAL208      0.2142
      5  C5        -4.8820   -6.1430  -25.2480 C.3   208  GAL208      0.1810
      6  C6        -3.9820   -5.7040  -24.0800 C.3   208  GAL208      0.2141
      7  O2        -6.3400   -8.2240  -28.5370 O.3   208  GAL208     -0.2176
      8  O3        -7.1010   -9.1440  -25.8140 O.3   208  GAL208     -0.2175
      9  O4        -4.8750   -8.4200  -24.4640 O.3   208  GAL208     -0.2176
     10  O5        -4.0680   -6.4150  -26.3590 O.3   208  GAL208     -0.3481
     11  O6        -3.1130   -4.6500  -24.4660 O.3   208  GAL208     -0.2176
@<TRIPOS>BOND
     1     7     2    1
     2     1     2    1
     3     1    10    1
     4     2     3    1
     5    10     5    1
     6     3     8    1
     7     3     4    1
     8     5     4    1
     9     5     6    1
    10     4     9    1
    11    11     6    1
