@<TRIPOS>MOLECULE
2xru_400_A_1.pdb
 36 40 0 0 0
SMALL
GASTEIGER

@<TRIPOS>ATOM
      1  C1         3.7470   31.6470    7.9320 C.2   1389  4001389     0.3875
      2  N2         3.5630   31.9500    9.2420 N.2   1389  4001389     0.0806
      3  N3         4.3810   31.2430   10.0000 N.2   1389  4001389    -0.0373
      4  C4         4.7550   30.6780    7.8850 C.3   1389  4001389     0.2076
      5  C5         5.1370   30.4460    9.1940 C.2   1389  4001389     0.1280
      6  C6         6.1650   29.5030    9.3180 C.2   1389  4001389     0.0308
      7  C7         6.5710   29.0160    8.0490 C.2   1389  4001389     0.0825
      8  S8         5.6420   29.7200    6.7270 S.3   1389  4001389    -0.0915
      9  N9         3.0090   32.2690    7.0000 N.am  1389  4001389     0.0355
     10  C10        3.1830   32.3860    5.6410 C.2   1389  4001389     0.3753
     11  C11        2.5540   33.4510    4.8550 C.ar  1389  4001389     0.0821
     12  O12        3.9060   31.5140    5.0410 O.2   1389  4001389    -0.2377
     13  C13        1.6110   34.3900    5.4170 C.ar  1389  4001389     0.0082
     14  C14        1.0240   35.4080    4.6200 C.ar  1389  4001389     0.0147
     15  C15        1.3320   35.5620    3.1990 C.ar  1389  4001389     0.0479
     16  C16        2.2670   34.6220    2.6430 C.ar  1389  4001389     0.0147
     17  C17        2.8550   33.6050    3.4410 C.ar  1389  4001389     0.0082
     18  N18        0.7510   36.5810    2.4350 N.pl3 1389  4001389    -0.3046
     19  C19       -0.1590   36.3020    1.2540 C.3   1389  4001389     0.1081
     20  C20       -0.0350   37.3640    0.0850 C.3   1389  4001389     0.0938
     21  N21        0.0440   38.7800    0.6770 N.3   1389  4001389    -0.2686
     22  C22        1.2470   38.8780    1.5890 C.3   1389  4001389     0.0938
     23  C23        0.9740   37.9950    2.8210 C.3   1389  4001389     0.1081
     24  C24        0.0980   39.8480   -0.3940 C.3   1389  4001389     0.0897
     25  C25        7.6380   28.0720    7.8220 C.2   1389  4001389     0.2708
     26  O26        8.1640   27.4530    8.7840 O.2   1389  4001389    -0.2678
     27  N27        8.1380   27.8580    6.5820 N.am  1389  4001389    -0.1985
     28  C28        9.2770   27.0380    6.2430 C.3   1389  4001389     0.1178
     29  C29        8.7500   25.7080    5.7530 C.ar  1389  4001389    -0.0026
     30  C30       10.1460   27.8230    5.2220 C.3   1389  4001389     0.0262
     31  C31        7.5120   25.6070    4.9570 C.ar  1389  4001389    -0.0026
     32  C32        7.0020   24.3290    4.4990 C.ar  1389  4001389    -0.0003
     33  C33        7.7210   23.1280    4.8310 C.ar  1389  4001389    -0.0000
     34  C34        8.9460   23.2050    5.6150 C.ar  1389  4001389    -0.0003
     35  C35        9.4550   24.4830    6.0700 C.ar  1389  4001389    -0.0026
     36  C36       11.0320   28.9190    5.8880 C.3   1389  4001389     0.0022
@<TRIPOS>BOND
     1    24    21    1
     2    20    21    1
     3    20    19    1
     4    21    22    1
     5    19    18    1
     6    22    23    1
     7    18    23    1
     8    18    15    1
     9    16    15   ar
    10    16    17   ar
    11    15    14   ar
    12    17    11   ar
    13    32    33   ar
    14    32    31   ar
    15    14    13   ar
    16    33    34   ar
    17    11    13   ar
    18    11    10    1
    19    31    29   ar
    20    12    10    2
    21    30    36    1
    22    30    28    1
    23    34    35   ar
    24    10     9   am
    25    29    35   ar
    26    29    28    1
    27    28    27    1
    28    27    25   am
    29     8     4    1
    30     8     7    1
    31     9     1    1
    32    25     7    1
    33    25    26    2
    34     4     1    1
    35     4     5    1
    36     1     2    2
    37     7     6    2
    38     5     6    1
    39     5     3    2
    40     2     3    1
