@<TRIPOS>MOLECULE
2xrw_ANP_A_1.pdb
 27 29 0 0 0
SMALL
GASTEIGER

@<TRIPOS>ATOM
      1  PB        13.6510    4.8750   15.0860 P.3   1367  ANP1367     0.4738
      2  O1B       13.4580    3.3270   15.4030 O.3   1367  ANP1367    -0.1247
      3  O2B       12.3580    5.7650   14.7240 O.2   1367  ANP1367    -0.2343
      4  N3B       14.9200    4.7570   13.9780 N.3   1367  ANP1367    -0.0178
      5  PA        14.2760    6.6560   17.2150 P.3   1367  ANP1367     0.2220
      6  O1A       15.7830    6.7210   17.5150 O.3   1367  ANP1367    -0.4370
      7  O2A       13.6330    7.8600   16.5920 O.2   1367  ANP1367    -0.5170
      8  O3A       14.4110    5.2930   16.4340 O.3   1367  ANP1367    -0.2354
      9  O5'       13.5570    6.2190   18.5180 O.3   1367  ANP1367    -0.3111
     10  C5'       13.7740    5.0240   19.1860 C.3   1367  ANP1367     0.1813
     11  C4'       12.7840    4.7320   20.2120 C.3   1367  ANP1367     0.1821
     12  O4'       12.8260    5.8180   21.0970 O.3   1367  ANP1367    -0.3135
     13  C3'       11.4090    4.7450   19.6550 C.3   1367  ANP1367     0.2184
     14  O3'       11.0890    3.5060   19.1020 O.3   1367  ANP1367    -0.2174
     15  C2'       10.6420    5.0980   20.8290 C.3   1367  ANP1367     0.2570
     16  O2'       10.3890    3.9920   21.6680 O.3   1367  ANP1367    -0.2130
     17  C1'       11.4830    6.1090   21.5230 C.3   1367  ANP1367     0.3186
     18  N9        11.1430    7.4760   21.1950 N.pl3 1367  ANP1367    -0.1439
     19  C8        11.6560    8.2850   20.2560 C.3   1367  ANP1367     0.3377
     20  N7        11.1040    9.4700   20.2240 N.2   1367  ANP1367    -0.2095
     21  C5        10.1630    9.4250   21.2290 C.2   1367  ANP1367     0.2526
     22  C6         9.2770   10.3750   21.7090 C.2   1367  ANP1367     0.4393
     23  N6         9.1820   11.6610   21.1050 N.pl3 1367  ANP1367     0.2180
     24  N1         8.4710   10.0190   22.7450 N.2   1367  ANP1367     0.0021
     25  C2         8.5610    8.8190   23.2780 C.3   1367  ANP1367     0.5254
     26  N3         9.4030    7.8530   22.8690 N.2   1367  ANP1367    -0.0055
     27  C4        10.1970    8.1940   21.8420 C.2   1367  ANP1367     0.3518
@<TRIPOS>BOND
     1     4     1    1
     2     3     1    2
     3     1     2    1
     4     1     8    1
     5     8     5    1
     6     7     5    2
     7     5     6    1
     8     5     9    1
     9     9    10    1
    10    14    13    1
    11    10    11    1
    12    13    11    1
    13    13    15    1
    14    11    12    1
    15    20    19    1
    16    20    21    2
    17    19    18    1
    18    15    17    1
    19    15    16    1
    20    12    17    1
    21    23    22    1
    22    18    17    1
    23    18    27    1
    24    21    22    1
    25    21    27    1
    26    22    24    2
    27    27    26    2
    28    24    25    1
    29    26    25    1
