@<TRIPOS>MOLECULE
2xrx_BNL_A_1.pdb
 12 13 0 0 0
SMALL
GASTEIGER

@<TRIPOS>ATOM
      1  C1        29.3250    8.0010   11.8670 C.ar  1462  BNL1462     0.0000
      2  C2        28.3300    8.9510   12.1180 C.ar  1462  BNL1462     0.0000
      3  C3        27.0150    8.5350   12.3480 C.ar  1462  BNL1462     0.0000
      4  C4        26.6980    7.1760   12.3320 C.ar  1462  BNL1462     0.0000
      5  C5        27.6930    6.2320   12.0830 C.ar  1462  BNL1462     0.0000
      6  C6        29.0050    6.6440   11.8500 C.ar  1462  BNL1462     0.0000
      7  C12       28.3050   12.6510   11.3280 C.ar  1462  BNL1462     0.0000
      8  C13       29.3100   13.1200   12.1760 C.ar  1462  BNL1462     0.0000
      9  C14       29.9950   12.2310   13.0040 C.ar  1462  BNL1462     0.0000
     10  C15       29.6730   10.8740   12.9860 C.ar  1462  BNL1462     0.0000
     11  C16       28.6690   10.4020   12.1370 C.ar  1462  BNL1462     0.0000
     12  C17       27.9850   11.2940   11.3080 C.ar  1462  BNL1462     0.0000
@<TRIPOS>BOND
     1    12     7   ar
     2    12    11   ar
     3     7     8   ar
     4     6     1   ar
     5     6     5   ar
     6     1     2   ar
     7     5     4   ar
     8     2    11    1
     9     2     3   ar
    10    11    10   ar
    11     8     9   ar
    12     4     3   ar
    13    10     9   ar
