@<TRIPOS>MOLECULE
2xs0_ANP_A_1.pdb
 31 33 0 0 0
SMALL
GASTEIGER

@<TRIPOS>ATOM
      1  PG       -29.6910    4.8620    8.4250 P.3   1367  ANP1367     0.4884
      2  O1G      -30.7920    5.1050    7.4000 O.2   1367  ANP1367    -0.2331
      3  O2G      -30.0020    3.5140    9.1040 O.3   1367  ANP1367    -0.1240
      4  O3G      -29.6420    5.9890    9.4660 O.3   1367  ANP1367    -0.1240
      5  PB       -27.5840    6.1770    7.2490 P.3   1367  ANP1367     0.4669
      6  O1B      -27.2840    5.7350    5.7570 O.2   1367  ANP1367    -0.2351
      7  O2B      -26.4070    6.7970    8.1460 O.3   1367  ANP1367    -0.1253
      8  N3B      -28.2670    4.6940    7.6590 N.3   1367  ANP1367    -0.0163
      9  PA       -28.8180    8.5440    6.5230 P.3   1367  ANP1367     0.2220
     10  O1A      -29.9100    8.8100    5.4710 O.2   1367  ANP1367    -0.5170
     11  O2A      -28.9660    9.4180    7.7320 O.3   1367  ANP1367    -0.4370
     12  O3A      -28.9060    7.0410    6.9220 O.3   1367  ANP1367    -0.2360
     13  O5'      -27.4350    8.7920    5.8430 O.3   1367  ANP1367    -0.3111
     14  C5'      -27.3150    8.8570    4.4550 C.3   1367  ANP1367     0.1813
     15  C4'      -26.3030    9.7620    3.9380 C.3   1367  ANP1367     0.1821
     16  O4'      -26.9470   10.8550    3.3980 O.3   1367  ANP1367    -0.3135
     17  C3'      -25.4470   10.2930    5.0330 C.3   1367  ANP1367     0.2184
     18  O3'      -24.2990    9.5350    5.2020 O.3   1367  ANP1367    -0.2174
     19  C2'      -25.1010   11.6070    4.5830 C.3   1367  ANP1367     0.2570
     20  O2'      -23.9930   11.5550    3.7160 O.3   1367  ANP1367    -0.2130
     21  C1'      -26.2590   12.0420    3.8260 C.3   1367  ANP1367     0.3186
     22  N9       -27.1660   12.8860    4.5990 N.pl3 1367  ANP1367    -0.1439
     23  C8       -28.2670   12.4710    5.2410 C.3   1367  ANP1367     0.3377
     24  N7       -28.8450   13.5210    5.8330 N.2   1367  ANP1367    -0.2095
     25  C5       -28.1060   14.6200    5.5700 C.2   1367  ANP1367     0.2526
     26  C6       -28.1930   15.9630    5.9070 C.2   1367  ANP1367     0.4393
     27  N6       -29.3000   16.4310    6.7370 N.pl3 1367  ANP1367     0.2180
     28  N1       -27.2540   16.8370    5.4690 N.2   1367  ANP1367     0.0021
     29  C2       -26.2350   16.4060    4.7070 C.3   1367  ANP1367     0.5254
     30  N3       -26.1120   15.1270    4.3610 N.2   1367  ANP1367    -0.0055
     31  C4       -27.0270   14.2140    4.7790 C.2   1367  ANP1367     0.3518
@<TRIPOS>BOND
     1    16    21    1
     2    16    15    1
     3    20    19    1
     4    21    19    1
     5    21    22    1
     6    15    14    1
     7    15    17    1
     8    30    29    1
     9    30    31    2
    10    14    13    1
    11    19    17    1
    12    22    31    1
    13    22    23    1
    14    29    28    1
    15    31    25    1
    16    17    18    1
    17    23    24    1
    18    28    26    2
    19    10     9    2
    20    25    24    2
    21    25    26    1
    22     6     5    2
    23    13     9    1
    24    26    27    1
    25     9    12    1
    26     9    11    1
    27    12     5    1
    28     5     8    1
    29     5     7    1
    30     2     1    2
    31     8     1    1
    32     1     3    1
    33     1     4    1
