@<TRIPOS>MOLECULE
2xsb_GDL_A_1.pdb
 15 15 0 0 0
SMALL
GASTEIGER

@<TRIPOS>ATOM
      1  C1         9.5700   17.0710   31.9520 C.2   1436  GDL1436     0.3397
      2  C2         9.7290   15.7310   32.3730 C.3   1436  GDL1436     0.2261
      3  C3         8.9860   14.6920   31.4790 C.3   1436  GDL1436     0.2164
      4  C4         7.7650   15.2950   30.8310 C.3   1436  GDL1436     0.2267
      5  C5         8.3220   16.3790   29.9270 C.3   1436  GDL1436     0.2343
      6  C6         7.2440   17.0900   29.0960 C.3   1436  GDL1436     0.2281
      7  C7        12.0270   15.6710   31.3730 C.2   1436  GDL1436     0.2424
      8  C8        13.4570   15.1860   31.5780 C.3   1436  GDL1436     0.0964
      9  N1        11.1750   15.3860   32.3920 N.am  1436  GDL1436    -0.1930
     10  O1         9.9870   17.9700   32.6770 O.2   1436  GDL1436    -0.2481
     11  O3         8.6740   13.4940   32.2220 O.3   1436  GDL1436    -0.2178
     12  O4         7.0830   14.2930   30.0340 O.3   1436  GDL1436    -0.2163
     13  O5         9.0250   17.3550   30.7200 O.3   1436  GDL1436    -0.4455
     14  O6         6.3730   17.8760   29.9300 O.3   1436  GDL1436    -0.2163
     15  O7        11.7260   16.2730   30.3380 O.2   1436  GDL1436    -0.2733
@<TRIPOS>BOND
     1     6     5    1
     2     6    14    1
     3     5    13    1
     4     5     4    1
     5    12     4    1
     6    15     7    2
     7    13     1    1
     8     4     3    1
     9     7     8    1
    10     7     9   am
    11     3    11    1
    12     3     2    1
    13     1     2    1
    14     1    10    2
    15     2     9    1
