@<TRIPOS>MOLECULE
2xsh_DC5_A_1.pdb
 14 15 0 0 0
SMALL
GASTEIGER

@<TRIPOS>ATOM
      1  CA1       22.9520    6.3140   -5.7910 C.ar  902  DC5902      0.0016
      2  CA6       21.8970    5.6020   -5.1980 C.ar  902  DC5902      0.0001
      3  CA5       21.4480    4.4000   -5.7550 C.ar  902  DC5902      0.0000
      4  CA4       22.0500    3.8880   -6.9080 C.ar  902  DC5902      0.0000
      5  CA3       23.0970    4.5880   -7.5070 C.ar  902  DC5902      0.0000
      6  CA2       23.5360    5.7960   -6.9560 C.ar  902  DC5902      0.0001
      7  CB1       23.4250    7.5350   -5.2630 C.ar  902  DC5902      0.0212
      8  CB2       22.6460    8.6870   -5.2780 C.ar  902  DC5902      0.0585
      9  CB3       23.1260    9.8980   -4.7750 C.ar  902  DC5902      0.0114
     10  CB4       24.4070    9.9870   -4.2450 C.ar  902  DC5902      0.0017
     11  CB5       25.1990    8.8490   -4.2240 C.ar  902  DC5902      0.0114
     12  CB6       24.7080    7.6470   -4.7280 C.ar  902  DC5902      0.0585
     13 CL6        25.7150    6.2650   -4.6870 Cl    902  DC5902     -0.0822
     14 CL1        21.0580    8.6220   -5.9300 Cl    902  DC5902     -0.0822
@<TRIPOS>BOND
     1     5     6   ar
     2     5     4   ar
     3     6     1   ar
     4     4     3   ar
     5    14     8    1
     6     1     7    1
     7     1     2   ar
     8     3     2   ar
     9     8     7   ar
    10     8     9   ar
    11     7    12   ar
    12     9    10   ar
    13    12    13    1
    14    12    11   ar
    15    10    11   ar
