@<TRIPOS>MOLECULE
2xsi_MYR_A_1.pdb
 16 15 0 0 0
SMALL
GASTEIGER

@<TRIPOS>ATOM
      1  C1        28.9190   12.3260   36.3660 C.2   1001  MYR1001     0.3649
      2  O1        28.7820   13.5330   36.0840 O.co2 1001  MYR1001    -0.2457
      3  O2        28.0910   11.6730   37.0380 O.co2 1001  MYR1001    -0.2457
      4  C2        30.1700   11.6190   35.8660 C.3   1001  MYR1001     0.1141
      5  C3        31.2390   11.6160   36.9590 C.3   1001  MYR1001     0.0118
      6  C4        32.0890   12.8350   36.6620 C.3   1001  MYR1001     0.0006
      7  C5        32.1110   13.7800   37.8590 C.3   1001  MYR1001     0.0000
      8  C6        33.3710   14.6240   37.8840 C.3   1001  MYR1001     0.0000
      9  C7        33.2560   15.8120   36.9430 C.3   1001  MYR1001     0.0000
     10  C8        34.6280   16.3180   36.5440 C.3   1001  MYR1001     0.0000
     11  C9        35.1260   15.6290   35.2770 C.3   1001  MYR1001     0.0000
     12  C10       36.3890   16.2790   34.7390 C.3   1001  MYR1001     0.0000
     13  C11       37.0760   15.3670   33.7520 C.3   1001  MYR1001     0.0000
     14  C12       37.1860   16.0070   32.3880 C.3   1001  MYR1001     0.0000
     15  C13       37.3780   14.9530   31.3060 C.3   1001  MYR1001     0.0000
     16  C14       36.0960   14.7430   30.5260 C.3   1001  MYR1001     0.0000
@<TRIPOS>BOND
     1    16    15    1
     2    15    14    1
     3    14    13    1
     4    13    12    1
     5    12    11    1
     6    11    10    1
     7     4     1    1
     8     4     5    1
     9     2     1   ar
    10     1     3   ar
    11    10     9    1
    12     6     5    1
    13     6     7    1
    14     9     8    1
    15     7     8    1
