@<TRIPOS>MOLECULE
2xsi_9NE_A_1.pdb
 26 27 0 0 0
SMALL
GASTEIGER

@<TRIPOS>ATOM
      1  N         29.8740   15.5270   10.5510 N.3   2001  9NE2001    -0.0677
      2  CA        29.1710   14.6810   11.5280 C.3   2001  9NE2001     0.2007
      3  C         27.6660   14.6060   11.2890 C.2   2001  9NE2001     0.3822
      4  O         27.1030   13.4400   11.3670 O.co2 2001  9NE2001    -0.2440
      5  CB        29.5380   15.1770   12.9420 C.3   2001  9NE2001     0.0427
      6  CG        30.9980   14.8580   13.2960 C.3   2001  9NE2001     0.1161
      7  CD        31.3020   13.4080   13.7400 C.2   2001  9NE2001     0.3649
      8  OE1       32.4580   12.9550   13.5750 O.co2 2001  9NE2001    -0.2457
      9  OE2       30.3750   12.7440   14.2560 O.co2 2001  9NE2001    -0.2457
     10  OXT       26.9950   15.5930   11.0300 O.co2 2001  9NE2001    -0.2440
     11  S1        30.4970   14.6940    9.3090 S.O2  2001  9NE2001     0.0773
     12  O2        30.7460   13.3470    9.7710 O.2   2001  9NE2001    -0.1516
     13  O3        29.5600   14.8730    8.2350 O.2   2001  9NE2001    -0.1516
     14  C1        32.0620   15.4710    8.8480 C.ar  2001  9NE2001     0.1236
     15  C2        32.0450   16.4390    7.8730 C.ar  2001  9NE2001     0.0200
     16  C3        33.2270   17.1050    7.4430 C.ar  2001  9NE2001     0.0014
     17  C4        34.4410   16.7980    7.9990 C.ar  2001  9NE2001     0.0013
     18  C5        34.5740   15.7830    9.0470 C.ar  2001  9NE2001     0.0146
     19  C6        33.3600   15.0620    9.5200 C.ar  2001  9NE2001     0.0199
     20  C7        33.5340   14.0660   10.5560 C.ar  2001  9NE2001     0.0014
     21  C8        34.8040   13.8050   11.0830 C.ar  2001  9NE2001     0.0013
     22  C9        35.9830   14.4960   10.6390 C.ar  2001  9NE2001     0.0145
     23  C10       35.8950   15.4840    9.6260 C.ar  2001  9NE2001     0.0479
     24  N1        37.0500   16.2260    9.1320 N.pl3 2001  9NE2001    -0.3041
     25  C11       37.3990   17.3370   10.0500 C.3   2001  9NE2001     0.1122
     26  C12       38.2980   15.3990    8.9860 C.3   2001  9NE2001     0.1122
@<TRIPOS>BOND
     1    16    15   ar
     2    16    17   ar
     3    15    14   ar
     4    17    18   ar
     5    13    11    2
     6    14    11    1
     7    14    19   ar
     8    26    24    1
     9    18    19   ar
    10    18    23   ar
    11    24    23    1
    12    24    25    1
    13    11    12    2
    14    11     1    1
    15    19    20   ar
    16    23    22   ar
    17     1     2    1
    18    20    21   ar
    19    22    21   ar
    20    10     3   ar
    21     3     4   ar
    22     3     2    1
    23     2     5    1
    24     5     6    1
    25     6     7    1
    26     8     7   ar
    27     7     9   ar
