@<TRIPOS>MOLECULE
2xsp_XYS_A_1.pdb
 10 10 0 0 0
SMALL
GASTEIGER

@<TRIPOS>ATOM
      1  C1        19.9950  -31.0600    8.3410 C.3   1444  XYS1444     0.3024
      2  C2        19.2540  -29.7270    8.4290 C.3   1444  XYS1444     0.2434
      3  C3        18.9040  -29.3240    9.8650 C.3   1444  XYS1444     0.2199
      4  C4        18.3510  -30.5200   10.6240 C.3   1444  XYS1444     0.2143
      5  C5        19.4580  -31.5720   10.6570 C.3   1444  XYS1444     0.1804
      6  O1        21.3890  -30.8970    8.1530 O.3   1444  XYS1444    -0.1869
      7  O2        19.9440  -28.6520    7.7910 O.3   1444  XYS1444    -0.2148
      8  O3        17.9790  -28.2570    9.8320 O.3   1444  XYS1444    -0.2174
      9  O4        17.9100  -30.1690   11.9240 O.3   1444  XYS1444    -0.2176
     10  O5        19.7410  -32.0020    9.3310 O.3   1444  XYS1444    -0.3237
@<TRIPOS>BOND
     1     7     2    1
     2     6     1    1
     3     1     2    1
     4     1    10    1
     5     2     3    1
     6    10     5    1
     7     8     3    1
     8     3     4    1
     9     4     5    1
    10     4     9    1
