@<TRIPOS>MOLECULE
2xsq_IMP_A_1.pdb
 23 25 0 0 0
SMALL
GASTEIGER

@<TRIPOS>ATOM
      1  P         71.4300   32.8090   16.4800 P.3   1183  IMP1183     0.5327
      2  O1P       70.7770   33.7870   15.5220 O.2   1183  IMP1183    -0.2224
      3  O2P       72.0900   33.5950   17.5940 O.3   1183  IMP1183    -0.1145
      4  O3P       72.4060   31.8910   15.7780 O.3   1183  IMP1183    -0.1145
      5  O5'       70.3140   31.8320   17.0870 O.3   1183  IMP1183    -0.2675
      6  C5'       69.6960   32.1160   18.3210 C.3   1183  IMP1183     0.1860
      7  C4'       68.4430   31.2650   18.4600 C.3   1183  IMP1183     0.1823
      8  O4'       67.4790   31.7290   17.5260 O.3   1183  IMP1183    -0.3135
      9  C3'       68.6540   29.7870   18.1580 C.3   1183  IMP1183     0.2184
     10  O3'       67.8280   29.0180   19.0160 O.3   1183  IMP1183    -0.2174
     11  C2'       68.2310   29.6680   16.7000 C.3   1183  IMP1183     0.2570
     12  O2'       67.7730   28.3970   16.3000 O.3   1183  IMP1183    -0.2130
     13  C1'       67.0990   30.6790   16.6570 C.3   1183  IMP1183     0.3186
     14  N9        66.8420   31.3170   15.3570 N.pl3 1183  IMP1183    -0.1435
     15  C8        67.6650   32.1600   14.6520 C.3   1183  IMP1183     0.3382
     16  N7        67.0140   32.5600   13.5420 N.2   1183  IMP1183    -0.2054
     17  C5        65.7770   32.0140   13.5510 C.2   1183  IMP1183     0.2446
     18  C6        64.6940   32.1000   12.6860 C.1   1183  IMP1183     0.1792
     19  O6        64.7000   32.8700   11.6980 O.2   1183  IMP1183    -0.2203
     20  N1        63.5590   31.3860   13.0080 N.2   1183  IMP1183    -0.1458
     21  C2        63.4650   30.6150   14.1520 C.3   1183  IMP1183     0.4017
     22  N3        64.5350   30.5360   15.0130 N.2   1183  IMP1183    -0.0334
     23  C4        65.6630   31.2310   14.7030 C.2   1183  IMP1183     0.3528
@<TRIPOS>BOND
     1    19    18    2
     2    18    20    2
     3    18    17    1
     4    20    21    1
     5    16    17    2
     6    16    15    1
     7    17    23    1
     8    21    22    1
     9    15    14    1
    10    23    22    2
    11    23    14    1
    12    14    13    1
    13     2     1    2
    14     4     1    1
    15    12    11    1
    16     1     5    1
    17     1     3    1
    18    13    11    1
    19    13     8    1
    20    11     9    1
    21     5     6    1
    22     8     7    1
    23     9     7    1
    24     9    10    1
    25     6     7    1
