@<TRIPOS>MOLECULE
2xsy_GDP_Y_1.pdb
 28 30 0 0 0
SMALL
GASTEIGER

@<TRIPOS>ATOM
      1  PB       -13.4400   45.0000  -61.8600 P.3   1691  GDP1691     0.5373
      2  O1B      -13.2600   45.6900  -60.5800 O.3   1691  GDP1691    -0.1143
      3  O2B      -14.0100   45.8200  -62.9300 O.2   1691  GDP1691    -0.2221
      4  O3B      -13.9800   43.6600  -61.8500 O.3   1691  GDP1691    -0.1143
      5  O3A      -11.9600   44.6800  -62.3700 O.3   1691  GDP1691    -0.2261
      6  PA       -10.9000   45.8500  -62.3700 P.3   1691  GDP1691     0.2231
      7  O1A      -10.5900   46.0800  -60.9600 O.3   1691  GDP1691    -0.4370
      8  O2A      -11.3300   46.9500  -63.2100 O.2   1691  GDP1691    -0.5169
      9  O5'       -9.6200   45.1900  -63.0300 O.3   1691  GDP1691    -0.3111
     10  C5'       -9.3600   43.8100  -62.7700 C.3   1691  GDP1691     0.1813
     11  C4'       -8.2900   43.3700  -63.7800 C.3   1691  GDP1691     0.1799
     12  O4'       -8.6500   43.8100  -65.0900 O.3   1691  GDP1691    -0.3326
     13  C3'       -6.8900   43.8100  -63.4300 C.3   1691  GDP1691     0.2158
     14  O3'       -6.0600   42.6600  -63.6200 O.3   1691  GDP1691    -0.2175
     15  C2'       -6.5600   44.7500  -64.5900 C.3   1691  GDP1691     0.2310
     16  O2'       -5.1500   44.5500  -64.8500 O.3   1691  GDP1691    -0.2158
     17  C1'       -7.4000   44.1500  -65.7100 C.3   1691  GDP1691     0.2293
     18  N9        -7.6100   45.1100  -66.7600 N.pl3 1691  GDP1691    -0.2354
     19  C8        -8.6400   45.9100  -66.8500 C.3   1691  GDP1691     0.2246
     20  N7        -8.6300   46.5600  -68.0200 N.2   1691  GDP1691    -0.2322
     21  C5        -7.5100   46.1700  -68.6800 C.2   1691  GDP1691     0.2182
     22  C6        -6.9600   46.4500  -69.9200 C.1   1691  GDP1691     0.2372
     23  O6        -7.4500   47.2200  -70.7000 O.2   1691  GDP1691    -0.2069
     24  N1        -5.7900   45.7800  -70.2900 N.2   1691  GDP1691    -0.2485
     25  C2        -5.2400   44.8700  -69.4000 C.1   1691  GDP1691     0.2531
     26  N2        -4.1500   44.2000  -69.7000 N.pl3 1691  GDP1691    -0.0226
     27  N3        -5.8100   44.6300  -68.2100 N.2   1691  GDP1691    -0.3074
     28  C4        -6.9200   45.2700  -67.8500 C.2   1691  GDP1691     0.2300
@<TRIPOS>BOND
     1    23    22    2
     2    24    22    2
     3    24    25    2
     4    22    21    1
     5    26    25    1
     6    25    27    2
     7    21    20    2
     8    21    28    1
     9    27    28    2
    10    20    19    1
    11    28    18    1
    12    19    18    1
    13    18    17    1
    14    17    12    1
    15    17    15    1
    16    12    11    1
    17    16    15    1
    18    15    13    1
    19    11    13    1
    20    11    10    1
    21    14    13    1
    22     8     6    2
    23     9    10    1
    24     9     6    1
    25     3     1    2
    26     6     5    1
    27     6     7    1
    28     5     1    1
    29     1     4    1
    30     1     2    1
