@<TRIPOS>MOLECULE
2xsy_FUA_Y_1.pdb
 37 40 0 0 0
SMALL
GASTEIGER

@<TRIPOS>ATOM
      1  C1       -18.8400   44.5300  -47.8700 C.3   1690  FUA1690     0.0027
      2  C2       -19.4600   44.4700  -46.4500 C.3   1690  FUA1690     0.0329
      3  C3       -19.2500   45.8100  -45.7500 C.3   1690  FUA1690     0.1519
      4  C4       -19.7700   47.0000  -46.5900 C.3   1690  FUA1690     0.0304
      5  C5       -19.1400   47.0200  -47.9700 C.3   1690  FUA1690     0.0025
      6  C6       -19.6900   48.1000  -48.8800 C.3   1690  FUA1690     0.0001
      7  C7       -18.8700   48.1400  -50.1400 C.3   1690  FUA1690     0.0001
      8  C8       -17.9100   46.9800  -50.2400 C.3   1690  FUA1690     0.0025
      9  C9       -18.7700   45.6900  -50.0900 C.3   1690  FUA1690     0.0304
     10  C10      -19.4200   45.6600  -48.6900 C.3   1690  FUA1690     0.0025
     11  C11      -18.0300   44.4000  -50.4500 C.3   1690  FUA1690     0.1519
     12  C12      -17.3800   44.5100  -51.7700 C.3   1690  FUA1690     0.0333
     13  C13      -16.4700   45.7100  -51.8100 C.3   1690  FUA1690     0.0104
     14  C14      -17.2400   46.9900  -51.6200 C.3   1690  FUA1690     0.0041
     15  C15      -16.1400   47.9200  -51.8700 C.3   1690  FUA1690     0.0440
     16  C16      -15.5800   47.4900  -53.2500 C.3   1690  FUA1690     0.1729
     17  C17      -15.6800   45.9800  -53.0900 C.3   1690  FUA1690     0.0687
     18  C18      -19.4800   48.3200  -45.8700 C.3   1690  FUA1690     0.0026
     19  C19      -20.8800   45.4900  -48.7700 C.3   1690  FUA1690     0.0001
     20  C20      -16.8200   47.0700  -49.1800 C.3   1690  FUA1690     0.0001
     21  C21      -18.2700   47.1900  -52.7400 C.3   1690  FUA1690     0.0001
     22  C22      -15.1300   44.9900  -53.8700 C.2   1690  FUA1690     0.0568
     23  C23      -14.6500   43.9100  -53.1800 C.2   1690  FUA1690    -0.0191
     24  C24      -14.1400   42.7900  -53.8300 C.3   1690  FUA1690     0.0512
     25  C25      -13.4400   41.8300  -53.1200 C.2   1690  FUA1690    -0.0299
     26  C26      -12.4900   41.0600  -53.7200 C.2   1690  FUA1690    -0.0475
     27  C27      -11.8200   39.9200  -52.9200 C.3   1690  FUA1690     0.0260
     28  C28      -12.1400   41.2200  -55.1500 C.3   1690  FUA1690     0.0260
     29  C29      -15.0300   45.1300  -55.3900 C.2   1690  FUA1690     0.3836
     30  C31      -16.2100   49.3400  -54.5300 C.2   1690  FUA1690     0.3174
     31  C32      -14.8400   49.9000  -54.1200 C.3   1690  FUA1690     0.1212
     32  O1       -16.9600   44.1900  -49.5200 O.3   1690  FUA1690    -0.2232
     33  O2       -16.4000   48.0100  -54.2500 O.3   1690  FUA1690    -0.4519
     34  O3       -16.9600   49.9200  -55.2800 O.2   1690  FUA1690    -0.2501
     35  O4       -15.4700   46.1300  -55.9500 O.co2 1690  FUA1690    -0.2409
     36  O5       -14.4000   44.3000  -56.0600 O.co2 1690  FUA1690    -0.2409
     37  O6       -17.8700   45.8500  -45.6300 O.3   1690  FUA1690    -0.2232
@<TRIPOS>BOND
     1    36    29   ar
     2    35    29   ar
     3    29    22    1
     4    34    30    2
     5    28    26    1
     6    30    33    1
     7    30    31    1
     8    33    16    1
     9    22    23    2
    10    22    17    1
    11    24    23    1
    12    24    25    1
    13    26    25    2
    14    26    27    1
    15    16    17    1
    16    16    15    1
    17    17    13    1
    18    21    14    1
    19    15    14    1
    20    13    12    1
    21    13    14    1
    22    12    11    1
    23    14     8    1
    24    11     9    1
    25    11    32    1
    26     8     7    1
    27     8     9    1
    28     8    20    1
    29     7     6    1
    30     9    10    1
    31     6     5    1
    32    19    10    1
    33    10     5    1
    34    10     1    1
    35     5     4    1
    36     1     2    1
    37     4    18    1
    38     4     3    1
    39     2     3    1
    40     3    37    1
