@<TRIPOS>MOLECULE
2xsz_ATP_A_1.pdb
 31 33 0 0 0
SMALL
GASTEIGER

@<TRIPOS>ATOM
      1  PG        61.8810   79.1050   16.6170 P.3   501  ATP501      0.5373
      2  O1G       61.3380   77.6160   16.5330 O.3   501  ATP501     -0.1143
      3  O2G       63.3010   79.1080   15.8790 O.2   501  ATP501     -0.2221
      4  O3G       62.1180   79.4640   18.1460 O.3   501  ATP501     -0.1143
      5  PB        60.4010   81.7130   16.2450 P.3   501  ATP501      0.2277
      6  O1B       59.3220   82.1210   15.2770 O.2   501  ATP501     -0.5168
      7  O2B       59.9240   81.9240   17.6570 O.3   501  ATP501     -0.4368
      8  O3B       60.7480   80.1840   15.9880 O.3   501  ATP501     -0.2258
      9  PA        62.7840   83.3230   16.7480 P.3   501  ATP501      0.2189
     10  O1A       63.7610   82.2620   17.3890 O.2   501  ATP501     -0.5170
     11  O2A       62.2820   84.3620   17.7650 O.3   501  ATP501     -0.4371
     12  O3A       61.5650   82.7000   15.9370 O.3   501  ATP501     -0.2700
     13  O5'       63.6670   84.0550   15.5900 O.3   501  ATP501     -0.3112
     14  C5'       64.8410   83.4510   15.0050 C.3   501  ATP501      0.1813
     15  C4'       66.0490   84.3900   15.1690 C.3   501  ATP501      0.1821
     16  O4'       65.9290   85.6210   14.4140 O.3   501  ATP501     -0.3135
     17  C3'       66.4930   84.8100   16.5850 C.3   501  ATP501      0.2184
     18  O3'       67.8960   85.0840   16.6450 O.3   501  ATP501     -0.2174
     19  C2'       65.6370   86.0820   16.7670 C.3   501  ATP501      0.2570
     20  O2'       66.1550   86.9310   17.8230 O.3   501  ATP501     -0.2130
     21  C1'       65.7630   86.7320   15.3760 C.3   501  ATP501      0.3186
     22  N9        64.6390   87.5150   14.9280 N.pl3 501  ATP501     -0.1439
     23  C8        63.4360   87.0250   14.5480 C.3   501  ATP501      0.3377
     24  N7        62.6120   87.9350   14.1380 N.2   501  ATP501     -0.2095
     25  C5        63.2990   89.1210   14.2450 C.2   501  ATP501      0.2526
     26  C6        62.9510   90.4730   13.9610 C.2   501  ATP501      0.4393
     27  N6        61.7340   90.8620   13.4690 N.pl3 501  ATP501      0.2180
     28  N1        63.8650   91.4330   14.1750 N.2   501  ATP501      0.0021
     29  C2        65.0840   91.0820   14.6720 C.3   501  ATP501      0.5254
     30  N3        65.5400   89.8200   14.9830 N.2   501  ATP501     -0.0055
     31  C4        64.5870   88.8790   14.7460 C.2   501  ATP501      0.3518
@<TRIPOS>BOND
     1    27    26    1
     2    26    28    2
     3    26    25    1
     4    24    25    2
     5    24    23    1
     6    28    29    1
     7    25    31    1
     8    16    15    1
     9    16    21    1
    10    23    22    1
    11    29    30    1
    12    31    22    1
    13    31    30    2
    14    22    21    1
    15    14    15    1
    16    14    13    1
    17    15    17    1
    18     6     5    2
    19    21    19    1
    20    13     9    1
    21     3     1    2
    22    12     5    1
    23    12     9    1
    24     8     5    1
    25     8     1    1
    26     5     7    1
    27     2     1    1
    28    17    18    1
    29    17    19    1
    30     1     4    1
    31     9    10    2
    32     9    11    1
    33    19    20    1
