@<TRIPOS>MOLECULE
2xt3_ADP_A_1.pdb
 27 29 0 0 0
SMALL
GASTEIGER

@<TRIPOS>ATOM
      1  PB       -14.2440   -1.1750    6.7810 P.3   1345  ADP1345     0.5373
      2  O1B      -14.1310   -2.4290    7.5830 O.3   1345  ADP1345    -0.1143
      3  O2B      -12.8990   -0.6200    6.3930 O.2   1345  ADP1345    -0.2221
      4  O3B      -15.2660   -0.1890    7.3030 O.3   1345  ADP1345    -0.1143
      5  PA       -15.8630   -1.0240    4.3520 P.3   1345  ADP1345     0.2231
      6  O1A      -17.2790   -1.0900    4.8210 O.3   1345  ADP1345    -0.4370
      7  O2A      -15.1880    0.2640    3.9870 O.2   1345  ADP1345    -0.5169
      8  O3A      -14.8670   -1.7240    5.4070 O.3   1345  ADP1345    -0.2261
      9  O5'      -15.7660   -2.0390    3.1180 O.3   1345  ADP1345    -0.3111
     10  C5'      -14.5780   -2.1180    2.3140 C.3   1345  ADP1345     0.1813
     11  C4'      -15.0340   -2.3500    0.8710 C.3   1345  ADP1345     0.1821
     12  O4'      -15.7340   -3.5940    0.7590 O.3   1345  ADP1345    -0.3135
     13  C3'      -16.0410   -1.2890    0.4560 C.3   1345  ADP1345     0.2184
     14  O3'      -15.8530   -0.9870   -0.9360 O.3   1345  ADP1345    -0.2174
     15  C2'      -17.3930   -1.9360    0.6370 C.3   1345  ADP1345     0.2570
     16  O2'      -18.3820   -1.4340   -0.2670 O.3   1345  ADP1345    -0.2130
     17  C1'      -17.0940   -3.3900    0.3490 C.3   1345  ADP1345     0.3186
     18  N9       -17.9370   -4.3530    1.1180 N.pl3 1345  ADP1345    -0.1439
     19  C8       -17.8480   -4.5370    2.4490 C.3   1345  ADP1345     0.3377
     20  N7       -18.7090   -5.4930    2.8420 N.2   1345  ADP1345    -0.2095
     21  C5       -19.3820   -5.9360    1.7690 C.2   1345  ADP1345     0.2526
     22  C6       -20.4390   -6.9490    1.5100 C.2   1345  ADP1345     0.4393
     23  N6       -20.9730   -7.7120    2.4900 N.pl3 1345  ADP1345     0.2180
     24  N1       -20.8690   -7.1020    0.2460 N.2   1345  ADP1345     0.0021
     25  C2       -20.3370   -6.3710   -0.7490 C.3   1345  ADP1345     0.5254
     26  N3       -19.3810   -5.4360   -0.5870 N.2   1345  ADP1345    -0.0055
     27  C4       -18.8640   -5.1750    0.6340 C.2   1345  ADP1345     0.3518
@<TRIPOS>BOND
     1    14    13    1
     2    25    26    1
     3    25    24    1
     4    26    27    2
     5    16    15    1
     6    24    22    2
     7    17    15    1
     8    17    12    1
     9    17    18    1
    10    13    15    1
    11    13    11    1
    12    27    18    1
    13    27    21    1
    14    12    11    1
    15    11    10    1
    16    18    19    1
    17    22    21    1
    18    22    23    1
    19    21    20    2
    20    10     9    1
    21    19    20    1
    22     9     5    1
    23     7     5    2
    24     5     6    1
    25     5     8    1
    26     8     1    1
    27     3     1    2
    28     1     4    1
    29     1     2    1
