@<TRIPOS>MOLECULE
2xt6_TPP_A_1.pdb
 26 27 0 0 0
SMALL
GASTEIGER

@<TRIPOS>ATOM
      1  N1'       -1.6100   67.0090   -7.2330 N.2   2001  TPP2001    -0.1861
      2  C2'       -1.3690   67.8550   -8.2250 C.1   2001  TPP2001     0.0663
      3  CM2       -0.0180   68.4760   -8.4510 C.3   2001  TPP2001     0.1291
      4  N3'       -2.3160   68.1950   -9.0590 N.2   2001  TPP2001    -0.3368
      5  C4'       -3.5450   67.7230   -8.9380 C.2   2001  TPP2001     0.2292
      6  N4'       -4.4270   68.1280   -9.9040 N.pl3 2001  TPP2001    -0.0925
      7  C5'       -3.8720   66.8330   -7.8890 C.2   2001  TPP2001     0.0654
      8  C6'       -2.8290   66.4840   -7.0450 C.2   2001  TPP2001     0.1115
      9  C7'       -5.2750   66.2950   -7.6820 C.3   2001  TPP2001     0.1237
     10  N3        -6.2580   67.3710   -7.4010 N.pl3 2001  TPP2001    -0.2970
     11  C2        -7.0650   67.8540   -8.3020 C.3   2001  TPP2001     0.1543
     12  S1        -8.1370   69.0450   -7.6390 S.3   2001  TPP2001    -0.0951
     13  C5        -7.3840   68.8340   -6.0610 C.2   2001  TPP2001     0.0164
     14  C4        -6.4210   67.8980   -6.1930 C.2   2001  TPP2001     0.0279
     15  CM4       -5.6690   67.4900   -4.9600 C.3   2001  TPP2001     0.0473
     16  C6        -7.7610   69.6550   -4.8550 C.3   2001  TPP2001     0.0661
     17  C7        -7.5390   71.1350   -5.2060 C.3   2001  TPP2001     0.1544
     18  O7        -7.6100   71.9930   -4.0610 O.3   2001  TPP2001    -0.3134
     19  PA        -7.5190   73.5890   -4.2380 P.3   2001  TPP2001     0.2230
     20  O1A       -6.1120   73.9620   -4.4900 O.2   2001  TPP2001    -0.5169
     21  O2A       -8.0470   74.3930   -2.9610 O.3   2001  TPP2001    -0.4370
     22  O3A       -8.4140   74.0100   -5.5090 O.3   2001  TPP2001    -0.2261
     23  PB        -9.8910   74.1300   -5.8120 P.3   2001  TPP2001     0.5373
     24  O1B      -10.2790   72.9690   -6.8620 O.2   2001  TPP2001    -0.2221
     25  O2B      -10.6700   74.0040   -4.5670 O.3   2001  TPP2001    -0.1143
     26  O3B      -10.1950   75.5780   -6.4640 O.3   2001  TPP2001    -0.1143
@<TRIPOS>BOND
     1     6     5    1
     2     4     5    2
     3     4     2    2
     4     5     7    1
     5     3     2    1
     6    11    12    1
     7    11    10    1
     8     2     1    2
     9     7     9    1
    10     7     8    2
    11     9    10    1
    12    12    13    1
    13    10    14    1
    14     1     8    1
    15    24    23    2
    16    26    23    1
    17    14    13    2
    18    14    15    1
    19    13    16    1
    20    23    22    1
    21    23    25    1
    22    22    19    1
    23    17    16    1
    24    17    18    1
    25    20    19    2
    26    19    18    1
    27    19    21    1
