@<TRIPOS>MOLECULE
2xt9_TPP_A_1.pdb
 26 27 0 0 0
SMALL
GASTEIGER

@<TRIPOS>ATOM
      1  N1'       34.3730  -11.3530   -0.6350 N.2   2001  TPP2001    -0.1861
      2  C2'       34.4070  -10.9770    0.6410 C.1   2001  TPP2001     0.0663
      3  CM2       34.5390   -9.5130    0.9940 C.3   2001  TPP2001     0.1291
      4  N3'       34.2460  -11.8740    1.6160 N.2   2001  TPP2001    -0.3368
      5  C4'       34.0950  -13.1860    1.3390 C.2   2001  TPP2001     0.2292
      6  N4'       33.9180  -14.0840    2.3830 N.pl3 2001  TPP2001    -0.0925
      7  C5'       34.1550  -13.6280   -0.0050 C.2   2001  TPP2001     0.0654
      8  C6'       34.2370  -12.6460   -0.9890 C.2   2001  TPP2001     0.1115
      9  C7'       34.0250  -15.0930   -0.3910 C.3   2001  TPP2001     0.1237
     10  N3        35.2220  -15.8900   -0.0410 N.pl3 2001  TPP2001    -0.2970
     11  C2        35.1850  -16.7460    0.9290 C.3   2001  TPP2001     0.1543
     12  S1        36.7010  -17.5440    1.0910 S.3   2001  TPP2001    -0.0951
     13  C5        37.3390  -16.7080   -0.3130 C.2   2001  TPP2001     0.0164
     14  C4        36.3640  -15.8680   -0.7300 C.2   2001  TPP2001     0.0279
     15  CM4       36.6340  -15.0330   -1.9560 C.3   2001  TPP2001     0.0473
     16  C6        38.7750  -16.8770   -0.7850 C.3   2001  TPP2001     0.0661
     17  C7        39.6680  -16.5180    0.4190 C.3   2001  TPP2001     0.1544
     18  O7        41.0570  -16.4480    0.1030 O.3   2001  TPP2001    -0.3134
     19  PA        42.1720  -16.1690    1.2390 P.3   2001  TPP2001     0.2230
     20  O1A       42.0180  -14.7890    1.7290 O.3   2001  TPP2001    -0.4370
     21  O2A       43.6360  -16.4640    0.6450 O.2   2001  TPP2001    -0.5169
     22  O3A       41.8620  -17.1670    2.4670 O.3   2001  TPP2001    -0.2261
     23  PB        41.8390  -18.6600    2.6620 P.3   2001  TPP2001     0.5373
     24  O1B       40.3450  -19.2250    2.5060 O.3   2001  TPP2001    -0.1143
     25  O2B       42.7470  -19.3150    1.6780 O.2   2001  TPP2001    -0.2221
     26  O3B       42.4340  -18.9260    4.1270 O.3   2001  TPP2001    -0.1143
@<TRIPOS>BOND
     1    15    14    1
     2     8     1    1
     3     8     7    2
     4    16    13    1
     5    16    17    1
     6    14    13    2
     7    14    10    1
     8     1     2    2
     9     9    10    1
    10     9     7    1
    11    13    12    1
    12    10    11    1
    13     7     5    1
    14    18    17    1
    15    18    19    1
    16     2     3    1
    17     2     4    2
    18    21    19    2
    19    11    12    1
    20    19    20    1
    21    19    22    1
    22     5     4    2
    23     5     6    1
    24    25    23    2
    25    22    23    1
    26    24    23    1
    27    23    26    1
