@<TRIPOS>MOLECULE
2xta_TPP_A_1.pdb
 26 27 0 0 0
SMALL
GASTEIGER

@<TRIPOS>ATOM
      1  N1'        5.1340   12.1120  -40.6790 N.2   2001  TPP2001    -0.1861
      2  C2'        4.2110   11.6480  -39.8640 C.1   2001  TPP2001     0.0663
      3  CM2        3.9870   10.1570  -39.7380 C.3   2001  TPP2001     0.1291
      4  N3'        3.4850   12.4830  -39.1510 N.2   2001  TPP2001    -0.3368
      5  C4'        3.6860   13.8140  -39.2180 C.2   2001  TPP2001     0.2292
      6  N4'        2.9480   14.6660  -38.4250 N.pl3 2001  TPP2001    -0.0925
      7  C5'        4.6430   14.3400  -40.0930 C.2   2001  TPP2001     0.0654
      8  C6'        5.3430   13.4210  -40.8460 C.2   2001  TPP2001     0.1115
      9  C7'        4.8690   15.8420  -40.2510 C.3   2001  TPP2001     0.1237
     10  N3         3.7500   16.5580  -40.9150 N.pl3 2001  TPP2001    -0.2970
     11  C2         2.9440   17.3030  -40.2280 C.3   2001  TPP2001     0.1543
     12  S1         1.7630   18.0440  -41.2340 S.3   2001  TPP2001    -0.0951
     13  C5         2.4950   17.3220  -42.6540 C.2   2001  TPP2001     0.0164
     14  C4         3.5370   16.5650  -42.2260 C.2   2001  TPP2001     0.0279
     15  CM4        4.3490   15.8090  -43.2530 C.3   2001  TPP2001     0.0473
     16  C6         1.9090   17.5060  -44.0380 C.3   2001  TPP2001     0.0661
     17  C7         0.4750   16.9730  -43.9740 C.3   2001  TPP2001     0.1544
     18  O7        -0.1480   16.8410  -45.2570 O.3   2001  TPP2001    -0.3134
     19  PA        -1.7140   16.4850  -45.3480 P.3   2001  TPP2001     0.2230
     20  O1A       -1.9070   15.0710  -44.9610 O.3   2001  TPP2001    -0.4370
     21  O2A       -2.2800   16.7700  -46.8280 O.2   2001  TPP2001    -0.5169
     22  O3A       -2.4620   17.4280  -44.2730 O.3   2001  TPP2001    -0.2261
     23  PB        -2.7980   18.8970  -44.2030 P.3   2001  TPP2001     0.5373
     24  O1B       -1.7860   19.6560  -43.2290 O.3   2001  TPP2001    -0.1143
     25  O2B       -2.7580   19.4780  -45.5800 O.2   2001  TPP2001    -0.2221
     26  O3B       -4.3340   19.0180  -43.7300 O.3   2001  TPP2001    -0.1143
@<TRIPOS>BOND
     1    21    19    2
     2    25    23    2
     3    19    18    1
     4    19    20    1
     5    19    22    1
     6    18    17    1
     7    22    23    1
     8    23    26    1
     9    23    24    1
    10    16    17    1
    11    16    13    1
    12    15    14    1
    13    13    14    2
    14    13    12    1
    15    14    10    1
    16    12    11    1
    17    10     9    1
    18    10    11    1
    19     8     1    1
    20     8     7    2
    21     1     2    2
    22     9     7    1
    23     7     5    1
    24     2     3    1
    25     2     4    2
    26     5     4    2
    27     5     6    1
