@<TRIPOS>MOLECULE
2xta_ACO_A_1.pdb
 33 35 0 0 0
SMALL
GASTEIGER

@<TRIPOS>ATOM
      1  N1A        1.6040   -4.6770  -11.0500 N.2   2004  ACO2004     0.0021
      2  C2A        0.6660   -4.9970  -10.1290 C.3   2004  ACO2004     0.5254
      3  N3A        1.0460   -5.3710   -8.8910 N.2   2004  ACO2004    -0.0055
      4  C4A        2.3560   -5.3860   -8.5140 C.2   2004  ACO2004     0.3518
      5  C5A        3.3590   -5.0290   -9.4440 C.2   2004  ACO2004     0.2526
      6  C6A        2.9300   -4.6630  -10.7510 C.2   2004  ACO2004     0.4393
      7  N6A        3.8680   -4.3200  -11.6930 N.pl3 2004  ACO2004     0.2180
      8  N7A        4.5680   -5.1360   -8.8210 N.2   2004  ACO2004    -0.2095
      9  C8A        4.3900   -5.5130   -7.5790 C.3   2004  ACO2004     0.3377
     10  N9A        3.0390   -5.6780   -7.3530 N.pl3 2004  ACO2004    -0.1439
     11  C1B        2.4230   -6.1230   -6.1080 C.3   2004  ACO2004     0.3185
     12  C2B        2.8290   -7.6230   -5.9980 C.3   2004  ACO2004     0.2543
     13  O2B        2.0140   -8.5160   -6.7620 O.3   2004  ACO2004    -0.2131
     14  C3B        2.8110   -7.8350   -4.4660 C.3   2004  ACO2004     0.1928
     15  O3B        1.4620   -8.0450   -3.9990 O.3   2004  ACO2004    -0.2673
     16  P3B        1.4820   -8.8340   -2.5490 P.3   2004  ACO2004     0.5327
     17  O7A        0.6050  -10.1980   -2.7150 O.2   2004  ACO2004    -0.2224
     18  O8A        2.9400   -9.3490   -2.1030 O.3   2004  ACO2004    -0.1145
     19  O9A        0.9660   -7.9090   -1.5190 O.3   2004  ACO2004    -0.1145
     20  C4B        3.3080   -6.4620   -3.9460 C.3   2004  ACO2004     0.1795
     21  O4B        3.0240   -5.4650   -4.9480 O.3   2004  ACO2004    -0.3136
     22  C5B        4.8000   -6.5300   -3.6120 C.3   2004  ACO2004     0.1812
     23  O5B        5.5420   -6.6910   -4.8300 O.3   2004  ACO2004    -0.3112
     24  P1A        6.8330   -7.6850   -4.7270 P.3   2004  ACO2004     0.2189
     25  O1A        6.7580   -8.6860   -3.4480 O.3   2004  ACO2004    -0.4371
     26  O2A        6.8330   -8.4730   -5.9930 O.2   2004  ACO2004    -0.5170
     27  O3A        8.2600   -6.8870   -4.7620 O.3   2004  ACO2004    -0.2703
     28  P2A        8.4590   -5.4360   -4.0030 P.3   2004  ACO2004     0.2188
     29  O4A       10.0640   -5.3430   -4.0270 O.2   2004  ACO2004    -0.5170
     30  O5A        7.8530   -5.3900   -2.6210 O.3   2004  ACO2004    -0.4371
     31  O6A        7.8330   -4.1980   -4.9500 O.3   2004  ACO2004    -0.3139
     32  CBP        7.7690   -1.9140   -5.7270 C.3   2004  ACO2004     0.0351
     33  CCP        8.3840   -2.8860   -4.6860 C.3   2004  ACO2004     0.1492
@<TRIPOS>BOND
     1     7     6    1
     2     1     6    2
     3     1     2    1
     4     6     5    1
     5     2     3    1
     6     5     8    2
     7     5     4    1
     8     3     4    2
     9     8     9    1
    10     4    10    1
    11     9    10    1
    12    10    11    1
    13    13    12    1
    14    11    12    1
    15    11    21    1
    16    12    14    1
    17    26    24    2
    18    32    33    1
    19    31    33    1
    20    31    28    1
    21    21    20    1
    22    23    24    1
    23    23    22    1
    24    27    24    1
    25    27    28    1
    26    24    25    1
    27    14    15    1
    28    14    20    1
    29    29    28    2
    30    28    30    1
    31    15    16    1
    32    20    22    1
    33    17    16    2
    34    16    18    1
    35    16    19    1
