@<TRIPOS>MOLECULE
2xtb_KRM_A_1.pdb
 24 27 0 0 0
SMALL
GASTEIGER

@<TRIPOS>ATOM
      1  C24       13.2500  -26.0330    4.7800 C.3   1344  KRM1344     0.2344
      2  C23       11.8670  -26.6100    4.5050 C.3   1344  KRM1344     0.1929
      3  O22       11.9190  -27.3930    3.3130 O.3   1344  KRM1344    -0.3449
      4  C21       12.7040  -28.5710    3.5000 C.3   1344  KRM1344     0.1929
      5  C20       14.1660  -28.2000    3.7530 C.3   1344  KRM1344     0.2344
      6  N19       14.2320  -27.1230    4.7520 N.pl3 1344  KRM1344    -0.1872
      7  C16       15.2620  -27.0810    5.6690 C.2   1344  KRM1344     0.3333
      8  C15       16.4520  -27.7860    5.5660 C.3   1344  KRM1344     0.1691
      9  N17       15.1970  -26.3050    6.7480 N.2   1344  KRM1344     0.0754
     10  N18       16.4150  -26.5220    7.4090 N.2   1344  KRM1344    -0.0384
     11  C14       17.1690  -27.4070    6.7040 C.2   1344  KRM1344     0.1176
     12  C11       18.5320  -27.8610    7.1220 C.ar  1344  KRM1344     0.0181
     13  C10       19.3060  -28.6950    6.3100 C.ar  1344  KRM1344     0.0044
     14  C9        20.5770  -29.1000    6.7300 C.ar  1344  KRM1344     0.0375
     15  C12       19.0420  -27.4350    8.3510 C.ar  1344  KRM1344     0.0044
     16  C13       20.3100  -27.8390    8.7700 C.ar  1344  KRM1344     0.0375
     17  C8        21.0840  -28.6760    7.9650 C.ar  1344  KRM1344     0.1453
     18  O7        22.3340  -29.0500    8.4120 O.3   1344  KRM1344    -0.4535
     19  C6        22.9950  -30.1930    8.0120 C.ar  1344  KRM1344     0.1453
     20  C1        24.0470  -30.1060    7.0940 C.ar  1344  KRM1344     0.0375
     21  C5        22.6350  -31.4410    8.5290 C.ar  1344  KRM1344     0.0375
     22  C4        23.3160  -32.5930    8.1200 C.ar  1344  KRM1344     0.0031
     23  C3        24.3610  -32.5030    7.1980 C.ar  1344  KRM1344     0.0002
     24  C2        24.7280  -31.2570    6.6840 C.ar  1344  KRM1344     0.0031
@<TRIPOS>BOND
     1     3     4    1
     2     3     2    1
     3     4     5    1
     4     5     6    1
     5     2     1    1
     6     6     1    1
     7     6     7    1
     8     8     7    1
     9     8    11    1
    10     7     9    2
    11    13    14   ar
    12    13    12   ar
    13    24    20   ar
    14    24    23   ar
    15    11    12    1
    16    11    10    2
    17    14    17   ar
    18     9    10    1
    19    20    19   ar
    20    12    15   ar
    21    23    22   ar
    22    17    18    1
    23    17    16   ar
    24    19    18    1
    25    19    21   ar
    26    22    21   ar
    27    15    16   ar
