@<TRIPOS>MOLECULE
2xtk_AZM_A_1.pdb
 13 13 0 0 0
SMALL
GASTEIGER

@<TRIPOS>ATOM
      1  C1        14.5950   35.7520   73.2710 C.ar  1339  AZM1339     0.2590
      2  C2        15.0390   37.5800   74.7130 C.ar  1339  AZM1339     0.2093
      3  C3        15.8080   39.7310   74.5300 C.2   1339  AZM1339     0.2478
      4  C4        16.2160   41.0040   75.2620 C.3   1339  AZM1339     0.0969
      5  N1        15.0450   33.3010   72.3630 N.3   1339  AZM1339     0.0413
      6  N2        14.4910   36.5190   75.3190 N.ar  1339  AZM1339    -0.1222
      7  N3        14.2490   35.5580   74.5570 N.ar  1339  AZM1339    -0.1189
      8  N4        15.3880   38.7380   75.3200 N.am  1339  AZM1339    -0.1528
      9  O1        14.9650   35.1210   70.6900 O.2   1339  AZM1339    -0.1483
     10  O2        12.8640   34.3290   71.8050 O.2   1339  AZM1339    -0.1483
     11  O3        15.8510   39.6270   73.3100 O.2   1339  AZM1339    -0.2729
     12  S1        14.3670   34.5830   71.9940 S.O2  1339  AZM1339     0.1178
     13  S2        15.2140   37.2220   73.1180 S.2   1339  AZM1339    -0.0087
@<TRIPOS>BOND
     1     9    12    2
     2    10    12    2
     3    12     5    1
     4    12     1    1
     5    13     1   ar
     6    13     2   ar
     7     1     7   ar
     8    11     3    2
     9     3     4    1
    10     3     8   am
    11     7     6   ar
    12     2     6   ar
    13     2     8    1
