@<TRIPOS>MOLECULE
2xtm_GDP_A_1.pdb
 28 30 0 0 0
SMALL
GASTEIGER

@<TRIPOS>ATOM
      1  PB       -13.2900   -5.9320  -43.1300 P.3   1228  GDP1228     0.5373
      2  O1B      -13.7240   -7.3870  -43.0680 O.3   1228  GDP1228    -0.1143
      3  O2B      -14.4900   -5.0050  -43.3130 O.2   1228  GDP1228    -0.2221
      4  O3B      -12.4650   -5.5550  -41.9350 O.3   1228  GDP1228    -0.1143
      5  O3A      -12.4050   -5.7460  -44.4580 O.3   1228  GDP1228    -0.2261
      6  PA       -10.8140   -5.9230  -44.6600 P.3   1228  GDP1228     0.2231
      7  O1A      -10.3940   -7.2100  -43.9550 O.3   1228  GDP1228    -0.4370
      8  O2A      -10.0430   -4.7190  -44.1930 O.2   1228  GDP1228    -0.5169
      9  O5'      -10.6990   -6.0370  -46.2430 O.3   1228  GDP1228    -0.3111
     10  C5'      -11.2420   -7.1930  -46.9270 C.3   1228  GDP1228     0.1813
     11  C4'      -10.5210   -7.3360  -48.2530 C.3   1228  GDP1228     0.1799
     12  O4'      -10.8490   -6.2080  -49.0790 O.3   1228  GDP1228    -0.3326
     13  C3'       -9.0180   -7.3400  -48.0600 C.3   1228  GDP1228     0.2158
     14  O3'       -8.4720   -8.2260  -49.0480 O.3   1228  GDP1228    -0.2175
     15  C2'       -8.6000   -5.9340  -48.4070 C.3   1228  GDP1228     0.2310
     16  O2'       -7.2910   -5.8660  -48.9660 O.3   1228  GDP1228    -0.2158
     17  C1'       -9.6350   -5.5730  -49.4610 C.3   1228  GDP1228     0.2293
     18  N9        -9.9450   -4.1270  -49.5170 N.pl3 1228  GDP1228    -0.2354
     19  C8       -10.3790   -3.3440  -48.5070 C.3   1228  GDP1228     0.2246
     20  N7       -10.6100   -2.0840  -48.9380 N.2   1228  GDP1228    -0.2322
     21  C5       -10.3260   -2.0820  -50.2590 C.2   1228  GDP1228     0.2182
     22  C6       -10.3430   -1.0700  -51.3290 C.1   1228  GDP1228     0.2372
     23  O6       -10.7000    0.0820  -51.0700 O.2   1228  GDP1228    -0.2069
     24  N1        -9.9840   -1.4480  -52.5620 N.2   1228  GDP1228    -0.2485
     25  C2        -9.6080   -2.7150  -52.8560 C.1   1228  GDP1228     0.2531
     26  N2        -9.2630   -2.9870  -54.1410 N.pl3 1228  GDP1228    -0.0226
     27  N3        -9.5510   -3.7030  -51.9170 N.2   1228  GDP1228    -0.3074
     28  C4        -9.9130   -3.4300  -50.6390 C.2   1228  GDP1228     0.2300
@<TRIPOS>BOND
     1    26    25    1
     2    25    24    2
     3    25    27    2
     4    24    22    2
     5    27    28    2
     6    22    23    2
     7    22    21    1
     8    28    21    1
     9    28    18    1
    10    21    20    2
    11    18    17    1
    12    18    19    1
    13    17    12    1
    14    17    15    1
    15    12    11    1
    16    14    13    1
    17    16    15    1
    18    20    19    1
    19    15    13    1
    20    11    13    1
    21    11    10    1
    22    10     9    1
    23     9     6    1
    24     6     5    1
    25     6     8    2
    26     6     7    1
    27     5     1    1
    28     3     1    2
    29     1     2    1
    30     1     4    1
