@<TRIPOS>MOLECULE
2xtn_GTP_A_1.pdb
 32 34 0 0 0
SMALL
GASTEIGER

@<TRIPOS>ATOM
      1  PG         6.9930   21.8690   19.6320 P.3   1231  GTP1231     0.5373
      2  O1G        7.8650   22.2700   20.7960 O.3   1231  GTP1231    -0.1143
      3  O2G        7.8200   21.5590   18.4240 O.2   1231  GTP1231    -0.2221
      4  O3G        6.0060   22.9600   19.3050 O.3   1231  GTP1231    -0.1143
      5  O3B        6.1980   20.5910   20.1850 O.3   1231  GTP1231    -0.2258
      6  PB         5.3220   19.5220   19.3700 P.3   1231  GTP1231     0.2277
      7  O1B        6.0300   19.1310   18.1060 O.2   1231  GTP1231    -0.5168
      8  O2B        3.8930   19.9600   19.1700 O.3   1231  GTP1231    -0.4368
      9  O3A        5.3240   18.2640   20.3730 O.3   1231  GTP1231    -0.2700
     10  PA         6.5240   17.2000   20.5410 P.3   1231  GTP1231     0.2189
     11  O1A        7.8610   17.8830   20.6730 O.3   1231  GTP1231    -0.4371
     12  O2A        6.4960   16.1950   19.4370 O.2   1231  GTP1231    -0.5170
     13  O5'        6.0840   16.5130   21.9220 O.3   1231  GTP1231    -0.3112
     14  C5'        6.3060   17.1330   23.1780 C.3   1231  GTP1231     0.1813
     15  C4'        6.2320   16.0430   24.2500 C.3   1231  GTP1231     0.1799
     16  O4'        4.8950   15.5680   24.3520 O.3   1231  GTP1231    -0.3326
     17  C3'        7.0940   14.8420   23.8950 C.3   1231  GTP1231     0.2158
     18  O3'        7.7270   14.3690   25.0630 O.3   1231  GTP1231    -0.2175
     19  C2'        6.1110   13.8000   23.4090 C.3   1231  GTP1231     0.2310
     20  O2'        6.5670   12.4910   23.6610 O.3   1231  GTP1231    -0.2158
     21  C1'        4.8630   14.1620   24.2020 C.3   1231  GTP1231     0.2293
     22  N9         3.6360   13.7230   23.5200 N.pl3 1231  GTP1231    -0.2354
     23  C8         3.1620   14.1260   22.2980 C.3   1231  GTP1231     0.2246
     24  N7         2.0050   13.4710   22.0590 N.2   1231  GTP1231    -0.2322
     25  C5         1.7370   12.6530   23.0990 C.2   1231  GTP1231     0.2182
     26  C6         0.6970   11.7680   23.3730 C.1   1231  GTP1231     0.2372
     27  O6        -0.2320   11.5970   22.5740 O.2   1231  GTP1231    -0.2069
     28  N1         0.7160   11.0680   24.5680 N.2   1231  GTP1231    -0.2485
     29  C2         1.7410   11.2410   25.4720 C.1   1231  GTP1231     0.2531
     30  N2         1.7460   10.5570   26.6160 N.pl3 1231  GTP1231    -0.0226
     31  N3         2.7650   12.1190   25.1950 N.2   1231  GTP1231    -0.3074
     32  C4         2.7540   12.8160   24.0320 C.2   1231  GTP1231     0.2300
@<TRIPOS>BOND
     1     7     6    2
     2     3     1    2
     3     8     6    1
     4     4     1    1
     5     6     5    1
     6     6     9    1
     7    12    10    2
     8     1     5    1
     9     1     2    1
    10     9    10    1
    11    10    11    1
    12    10    13    1
    13    13    14    1
    14    24    23    1
    15    24    25    2
    16    23    22    1
    17    27    26    2
    18    25    26    1
    19    25    32    1
    20    14    15    1
    21    26    28    2
    22    19    20    1
    23    19    17    1
    24    19    21    1
    25    22    32    1
    26    22    21    1
    27    17    15    1
    28    17    18    1
    29    32    31    2
    30    21    16    1
    31    15    16    1
    32    28    29    2
    33    31    29    2
    34    29    30    1
