@<TRIPOS>MOLECULE
2xto_GDP_A_1.pdb
 28 30 0 0 0
SMALL
GASTEIGER

@<TRIPOS>ATOM
      1  PB       -16.8600  -24.8410    6.3060 P.3   1256  GDP1256     0.5373
      2  O1B      -16.3780  -25.1020    7.7120 O.3   1256  GDP1256    -0.1143
      3  O2B      -15.9280  -23.8770    5.6120 O.2   1256  GDP1256    -0.2221
      4  O3B      -18.2530  -24.2500    6.3810 O.3   1256  GDP1256    -0.1143
      5  O3A      -16.8920  -26.2050    5.4470 O.3   1256  GDP1256    -0.2261
      6  PA       -16.9950  -27.6620    6.1230 P.3   1256  GDP1256     0.2231
      7  O1A      -18.1960  -27.7820    7.0300 O.3   1256  GDP1256    -0.4370
      8  O2A      -15.7330  -28.0030    6.8760 O.2   1256  GDP1256    -0.5169
      9  O5'      -17.1360  -28.5940    4.8260 O.3   1256  GDP1256    -0.3111
     10  C5'      -18.2770  -28.5040    3.9750 C.3   1256  GDP1256     0.1813
     11  C4'      -18.2840  -29.6960    3.0220 C.3   1256  GDP1256     0.1799
     12  O4'      -17.1720  -29.5920    2.1290 O.3   1256  GDP1256    -0.3326
     13  C3'      -18.1470  -31.0270    3.7550 C.3   1256  GDP1256     0.2158
     14  O3'      -19.1260  -31.9430    3.2470 O.3   1256  GDP1256    -0.2175
     15  C2'      -16.7310  -31.4970    3.4570 C.3   1256  GDP1256     0.2310
     16  O2'      -16.6150  -32.9180    3.3330 O.3   1256  GDP1256    -0.2158
     17  C1'      -16.4170  -30.8050    2.1410 C.3   1256  GDP1256     0.2293
     18  N9       -14.9620  -30.5600    1.9770 N.pl3 1256  GDP1256    -0.2354
     19  C8       -14.1690  -29.7630    2.7190 C.3   1256  GDP1256     0.2246
     20  N7       -12.8870  -29.7990    2.2660 N.2   1256  GDP1256    -0.2322
     21  C5       -12.8510  -30.6390    1.2130 C.2   1256  GDP1256     0.2182
     22  C6       -11.8280  -31.1420    0.2630 C.1   1256  GDP1256     0.2372
     23  O6       -10.6370  -30.7750    0.3420 O.2   1256  GDP1256    -0.2069
     24  N1       -12.2180  -32.0030   -0.6880 N.2   1256  GDP1256    -0.2485
     25  C2       -13.4950  -32.4270   -0.8040 C.1   1256  GDP1256     0.2531
     26  N2       -13.8220  -33.2990   -1.7870 N.pl3 1256  GDP1256    -0.0226
     27  N3       -14.4810  -32.0070    0.0270 N.2   1256  GDP1256    -0.3074
     28  C4       -14.2220  -31.1340    1.0310 C.2   1256  GDP1256     0.2300
@<TRIPOS>BOND
     1    26    25    1
     2    25    24    2
     3    25    27    2
     4    24    22    2
     5    27    28    2
     6    22    23    2
     7    22    21    1
     8    28    21    1
     9    28    18    1
    10    21    20    2
    11    18    17    1
    12    18    19    1
    13    12    17    1
    14    12    11    1
    15    17    15    1
    16    20    19    1
    17    11    13    1
    18    11    10    1
    19    14    13    1
    20    16    15    1
    21    15    13    1
    22    10     9    1
    23     9     6    1
    24     5     6    1
    25     5     1    1
    26     3     1    2
    27     6     8    2
    28     6     7    1
    29     1     4    1
    30     1     2    1
