@<TRIPOS>MOLECULE
2xts_HEC_B_1.pdb
 43 50 0 0 0
SMALL
GASTEIGER

@<TRIPOS>ATOM
      1 FE         93.9490   83.1610    7.4300 Fe    500  HEC500      0.0000
      2  CHA       92.7160   80.3180    8.8190 C.2   500  HEC500      0.0000
      3  CHB       96.4310   81.3480    5.9580 C.2   500  HEC500      0.0000
      4  CHC       94.9460   85.9130    5.7910 C.2   500  HEC500      0.0000
      5  CHD       91.9210   85.0340    9.3650 C.2   500  HEC500      0.0000
      6  NA        94.4730   81.2170    7.3940 N.ar  500  HEC500      0.0000
      7  C1A       93.8570   80.2050    8.0920 C.ar  500  HEC500      0.0000
      8  C2A       94.5930   78.9750    7.9070 C.ar  500  HEC500      0.0000
      9  C3A       95.6280   79.2710    7.1080 C.ar  500  HEC500      0.0000
     10  C4A       95.5600   80.6770    6.7780 C.ar  500  HEC500      0.0000
     11  CMA       96.7310   78.3300    6.5760 C.3   500  HEC500      0.0000
     12  CAA       94.2160   77.6100    8.5400 C.3   500  HEC500      0.0000
     13  CBA       94.7100   77.5120    9.9830 C.3   500  HEC500      0.0000
     14  CGA       94.4480   76.1690   10.6000 C.2   500  HEC500      0.0000
     15  O1A       93.4440   75.5290   10.2810 O.co2 500  HEC500      0.0000
     16  O2A       95.3330   75.7700   11.3920 O.co2 500  HEC500      0.0000
     17  NB        95.3580   83.5520    6.1040 N.2   500  HEC500      0.0000
     18  C1B       96.2980   82.6690    5.5830 C.2   500  HEC500      0.0000
     19  C2B       97.0020   83.3200    4.4990 C.2   500  HEC500      0.0000
     20  C3B       96.6140   84.6030    4.4710 C.2   500  HEC500      0.0000
     21  C4B       95.5650   84.7550    5.4490 C.2   500  HEC500      0.0000
     22  CMB       98.1700   82.6530    3.7460 C.3   500  HEC500      0.0000
     23  CAB       97.0540   85.6990    3.5120 C.3   500  HEC500      0.0000
     24  CBB       96.9060   85.2080    2.0440 C.3   500  HEC500      0.0000
     25  NC        93.4990   85.1270    7.5720 N.ar  500  HEC500      0.0000
     26  C1C       94.0620   86.1130    6.8210 C.ar  500  HEC500      0.0000
     27  C2C       93.5240   87.3820    7.2420 C.ar  500  HEC500      0.0000
     28  C3C       92.6680   87.1350    8.2420 C.ar  500  HEC500      0.0000
     29  C4C       92.6900   85.7180    8.4870 C.ar  500  HEC500      0.0000
     30  CMC       93.8800   88.7420    6.6040 C.3   500  HEC500      0.0000
     31  CAC       91.8470   88.0650    9.1350 C.3   500  HEC500      0.0000
     32  CBC       91.0770   89.1920    8.5470 C.3   500  HEC500      0.0000
     33  ND        92.5650   82.7400    8.8240 N.2   500  HEC500      0.0000
     34  C1D       91.7430   83.6770    9.4200 C.2   500  HEC500      0.0000
     35  C2D       90.7130   83.0280   10.1880 C.2   500  HEC500      0.0000
     36  C3D       90.9420   81.5830    9.9930 C.2   500  HEC500      0.0000
     37  C4D       92.1040   81.4760    9.1660 C.2   500  HEC500      0.0000
     38  CMD       89.5460   83.6260   10.9620 C.3   500  HEC500      0.0000
     39  CAD       90.0860   80.4750   10.5810 C.3   500  HEC500      0.0000
     40  CBD       88.9630   80.1430    9.6020 C.3   500  HEC500      0.0000
     41  CGD       88.0940   79.0080   10.0640 C.2   500  HEC500      0.0000
     42  O1D       88.4480   78.3060   11.0460 O.co2 500  HEC500      0.0000
     43  O2D       87.0890   78.7450    9.3750 O.co2 500  HEC500      0.0000
@<TRIPOS>BOND
     1    24    23    1
     2    23    20    1
     3    22    19    1
     4    20    19    2
     5    20    21    1
     6    19    18    1
     7    21     4    2
     8    21    17    1
     9    18     3    1
    10    18    17    2
    11     4    26    1
    12     3    10    2
    13    17     1    1
    14    11     9    1
    15    30    27    1
    16    10     9   ar
    17    10     6   ar
    18    26    27   ar
    19    26    25   ar
    20     9     8   ar
    21    27    28   ar
    22     6     1    1
    23     6     7   ar
    24     1    25    1
    25     1    33    1
    26    25    29   ar
    27     8     7   ar
    28     8    12    1
    29     7     2    2
    30    28    29   ar
    31    28    31    1
    32    29     5    1
    33    12    13    1
    34    32    31    1
    35     2    37    1
    36    33    37    2
    37    33    34    1
    38    37    36    1
    39     5    34    2
    40    43    41   ar
    41    34    35    1
    42    40    41    1
    43    40    39    1
    44    13    14    1
    45    36    35    2
    46    36    39    1
    47    41    42   ar
    48    35    38    1
    49    15    14   ar
    50    14    16   ar
