@<TRIPOS>MOLECULE
2xtz_GSP_A_1.pdb
 32 34 0 0 0
SMALL
GASTEIGER

@<TRIPOS>ATOM
      1  PG       -12.4100  -25.1280   13.6540 P.3   1382  GSP1382     0.4340
      2  O3B      -12.5010  -26.4420   14.6020 O.3   1382  GSP1382    -0.2405
      3  S1G      -10.7150  -24.5810   13.6690 S.3   1382  GSP1382     0.0416
      4  O2G      -13.3680  -24.0330   14.1350 O.3   1382  GSP1382    -0.1305
      5  O3G      -12.8630  -25.4830   12.2320 O.2   1382  GSP1382    -0.2423
      6  PB       -13.7810  -27.4490   14.7840 P.3   1382  GSP1382     0.2262
      7  O1B      -14.7550  -26.8160   15.7030 O.3   1382  GSP1382    -0.4369
      8  O2B      -14.3780  -27.8120   13.4790 O.2   1382  GSP1382    -0.5168
      9  PA       -12.9050  -30.0940   14.7540 P.3   1382  GSP1382     0.2189
     10  O1A      -14.1820  -30.7810   14.4400 O.3   1382  GSP1382    -0.4371
     11  O2A      -12.0600  -29.9150   13.5520 O.2   1382  GSP1382    -0.5170
     12  O3A      -13.1990  -28.7260   15.5150 O.3   1382  GSP1382    -0.2701
     13  O5'      -12.1340  -30.8980   15.8870 O.3   1382  GSP1382    -0.3112
     14  C5'      -10.8190  -30.5890   16.2540 C.3   1382  GSP1382     0.1813
     15  C4'      -10.1510  -31.8790   16.7080 C.3   1382  GSP1382     0.1799
     16  O4'      -10.7890  -32.3610   17.8750 O.3   1382  GSP1382    -0.3326
     17  C3'      -10.2500  -32.9900   15.6570 C.3   1382  GSP1382     0.2158
     18  O3'       -9.0150  -33.6680   15.6540 O.3   1382  GSP1382    -0.2175
     19  C2'      -11.3550  -33.9110   16.1700 C.3   1382  GSP1382     0.2310
     20  O2'      -11.2080  -35.2530   15.7990 O.3   1382  GSP1382    -0.2158
     21  C1'      -11.2370  -33.7020   17.6740 C.3   1382  GSP1382     0.2293
     22  N9       -12.5130  -33.8780   18.3870 N.pl3 1382  GSP1382    -0.2354
     23  C8       -13.7050  -33.2320   18.1350 C.3   1382  GSP1382     0.2246
     24  N7       -14.6050  -33.6550   19.0390 N.2   1382  GSP1382    -0.2322
     25  C5       -14.0100  -34.5520   19.8680 C.2   1382  GSP1382     0.2182
     26  C6       -14.4660  -35.2910   20.9610 C.1   1382  GSP1382     0.2372
     27  O6       -15.6180  -35.1930   21.3370 O.2   1382  GSP1382    -0.2069
     28  N1       -13.6190  -36.1350   21.6410 N.2   1382  GSP1382    -0.2485
     29  C2       -12.3100  -36.2570   21.2330 C.1   1382  GSP1382     0.2531
     30  N2       -11.5020  -37.0840   21.8810 N.pl3 1382  GSP1382    -0.0226
     31  N3       -11.8550  -35.5300   20.1500 N.2   1382  GSP1382    -0.3074
     32  C4       -12.6890  -34.7020   19.4710 C.2   1382  GSP1382     0.2300
@<TRIPOS>BOND
     1     5     1    2
     2     8     6    2
     3    11     9    2
     4     1     3    1
     5     1     4    1
     6     1     2    1
     7    10     9    1
     8     2     6    1
     9     9    12    1
    10     9    13    1
    11     6    12    1
    12     6     7    1
    13    18    17    1
    14    17    19    1
    15    17    15    1
    16    20    19    1
    17    13    14    1
    18    19    21    1
    19    14    15    1
    20    15    16    1
    21    21    16    1
    22    21    22    1
    23    23    22    1
    24    23    24    1
    25    22    32    1
    26    24    25    2
    27    32    25    1
    28    32    31    2
    29    25    26    1
    30    31    29    2
    31    26    27    2
    32    26    28    2
    33    29    28    2
    34    29    30    1
