@<TRIPOS>MOLECULE
2xu1_424_A_1.pdb
 35 39 0 0 0
SMALL
GASTEIGER

@<TRIPOS>ATOM
      1  S1        31.3410  -25.0310  -14.6360 S.O2  1221  4241221     0.0095
      2  N2        32.3380  -28.2580  -13.9940 N.am  1221  4241221    -0.2709
      3 CL2        28.9640  -23.6620  -13.0040 Cl    1221  4241221    -0.0809
      4  C3        31.2490  -30.2080  -15.0170 C.3   1221  4241221     0.0878
      5 CL3        28.4300  -32.1840  -10.0030 Cl    1221  4241221    -0.0822
      6  C4        31.3850  -26.1550  -13.2350 C.3   1221  4241221     0.1557
      7  C5        32.4830  -29.4010  -14.6910 C.2   1221  4241221     0.2289
      8  C6        33.4270  -27.3640  -13.6270 C.3   1221  4241221     0.1553
      9  C7        29.6800  -25.0260  -15.2110 C.ar  1221  4241221     0.1162
     10  C8        31.0490  -27.6250  -13.5810 C.3   1221  4241221     0.1178
     11  C9        32.8370  -26.2710  -12.7200 C.3   1221  4241221     0.0550
     12  C10       34.4860  -28.0590  -12.8280 C.2   1221  4241221     0.2597
     13  C11       30.4590  -29.7860  -16.2660 C.3   1221  4241221     0.0135
     14  C12       31.3220  -31.0510  -16.2770 C.3   1221  4241221     0.0135
     15  C13       36.8870  -28.5840  -12.6260 C.3   1221  4241221     0.1166
     16  N14       35.7380  -28.0130  -13.3110 N.am  1221  4241221    -0.2016
     17  C15       37.4830  -27.6920  -11.6050 C.2   1221  4241221     0.1150
     18  N16       38.6940  -27.8820  -11.1640 N.2   1221  4241221    -0.1496
     19  C17       30.5070  -30.7020  -13.7870 C.ar  1221  4241221    -0.0146
     20  O18       31.6590  -23.7300  -14.1790 O.2   1221  4241221    -0.1686
     21  O19       32.0910  -25.6170  -15.7130 O.2   1221  4241221    -0.1686
     22  C20       36.9600  -30.0880  -12.4110 C.3   1221  4241221     0.0279
     23  C21       37.8120  -29.4270  -13.5060 C.3   1221  4241221     0.0279
     24  O22       33.6010  -29.7760  -14.9990 O.2   1221  4241221    -0.2745
     25  C23       28.6640  -24.4290  -14.4990 C.ar  1221  4241221     0.0747
     26  O24       34.1840  -28.6020  -11.7940 O.2   1221  4241221    -0.2715
     27  C25       29.1980  -30.3380  -13.5190 C.ar  1221  4241221    -0.0030
     28  C26       31.1510  -31.5250  -12.8700 C.ar  1221  4241221    -0.0030
     29  C27       29.1940  -31.5930  -11.4540 C.ar  1221  4241221     0.0577
     30  C29       29.3950  -25.6230  -16.4230 C.ar  1221  4241221     0.0192
     31  C30       28.5540  -30.7700  -12.3630 C.ar  1221  4241221     0.0111
     32  C31       30.4970  -31.9760  -11.7270 C.ar  1221  4241221     0.0111
     33  C33       27.3730  -24.4220  -14.9940 C.ar  1221  4241221     0.0127
     34  C34       28.1100  -25.6140  -16.9170 C.ar  1221  4241221     0.0014
     35  C35       27.0970  -25.0090  -16.2060 C.ar  1221  4241221     0.0009
@<TRIPOS>BOND
     1    34    30   ar
     2    34    35   ar
     3    30     9   ar
     4    14    13    1
     5    14     4    1
     6    13     4    1
     7    35    33   ar
     8    21     1    2
     9     9     1    1
    10     9    25   ar
    11     4     7    1
    12     4    19    1
    13    24     7    2
    14    33    25   ar
    15     7     2   am
    16     1    20    2
    17     1     6    1
    18    25     3    1
    19     2     8    1
    20     2    10    1
    21    19    27   ar
    22    19    28   ar
    23     8    12    1
    24     8    11    1
    25    10     6    1
    26    27    31   ar
    27    23    15    1
    28    23    22    1
    29    16    12   am
    30    16    15    1
    31     6    11    1
    32    28    32   ar
    33    12    26    2
    34    15    22    1
    35    15    17    1
    36    31    29   ar
    37    32    29   ar
    38    17    18    2
    39    29     5    1
