@<TRIPOS>MOLECULE
2xu5_XU5_A_1.pdb
 35 39 0 0 0
SMALL
GASTEIGER

@<TRIPOS>ATOM
      1 CL         17.5160   10.3740   22.2700 Cl    1221  XU51221    -0.0809
      2  C1        23.1640   11.3010   22.6180 C.3   1221  XU51221     0.1553
      3  C2        24.2120   11.8790   23.5490 C.2   1221  XU51221     0.2597
      4  N3        25.2370   12.5430   22.9660 N.am  1221  XU51221    -0.2016
      5  C4        26.2950   13.2800   23.6530 C.3   1221  XU51221     0.1166
      6  C5        25.9000   14.6860   23.9020 C.2   1221  XU51221     0.1150
      7  O6        24.1070   11.7470   24.7590 O.2   1221  XU51221    -0.2715
      8  C7        27.2370   12.5900   24.6510 C.3   1221  XU51221     0.0279
      9  C8        27.7410   12.9720   23.2580 C.3   1221  XU51221     0.0279
     10  N9        26.7720   15.5410   24.2520 N.2   1221  XU51221    -0.1496
     11  N10       23.1690    9.8430   22.6850 N.am  1221  XU51221    -0.2709
     12  C11       21.8490    9.3590   23.0990 C.3   1221  XU51221     0.1178
     13  C12       20.9030   10.5780   22.8370 C.3   1221  XU51221     0.1557
     14  C13       21.8290   11.7630   23.2470 C.3   1221  XU51221     0.0550
     15  S14       20.4130   10.8210   21.1110 S.O2  1221  XU51221     0.0095
     16  C15       19.4770    9.3470   20.7560 C.ar  1221  XU51221     0.1162
     17  C16       18.2130    9.1530   21.2860 C.ar  1221  XU51221     0.0747
     18  C17       17.4520    8.0110   21.0540 C.ar  1221  XU51221     0.0127
     19  C18       17.9840    7.0370   20.2410 C.ar  1221  XU51221     0.0009
     20  C19       19.2410    7.2170   19.7120 C.ar  1221  XU51221     0.0014
     21  C20       19.9990    8.3520   19.9580 C.ar  1221  XU51221     0.0192
     22  O22       19.5650   11.9890   21.0640 O.2   1221  XU51221    -0.1686
     23  O23       21.5480   10.7460   20.2590 O.2   1221  XU51221    -0.1686
     24  C24       24.2190    9.0690   22.3540 C.2   1221  XU51221     0.2289
     25  O25       25.2220    9.6230   21.9740 O.2   1221  XU51221    -0.2745
     26  C26       23.5700    6.7790   21.2670 C.3   1221  XU51221     0.0135
     27  C27       24.1200    7.5660   22.4550 C.3   1221  XU51221     0.0878
     28  C28       25.0700    6.7770   21.5720 C.3   1221  XU51221     0.0135
     29  C29       22.3540    5.8560   25.3910 C.ar  1221  XU51221    -0.0046
     30  C30       23.2160    6.1980   26.4310 C.ar  1221  XU51221    -0.0219
     31  C31       24.3290    6.9720   26.1590 C.ar  1221  XU51221    -0.0046
     32  C32       24.6170    7.3920   24.8750 C.ar  1221  XU51221    -0.0042
     33  C33       23.7800    7.0590   23.8360 C.ar  1221  XU51221    -0.0146
     34  C34       22.6320    6.2890   24.0900 C.ar  1221  XU51221    -0.0042
     35  C35       22.9550    5.7450   27.8540 C.3   1221  XU51221     0.0310
@<TRIPOS>BOND
     1    20    21   ar
     2    20    19   ar
     3    21    16   ar
     4    19    18   ar
     5    23    15    2
     6    16    15    1
     7    16    17   ar
     8    18    17   ar
     9    22    15    2
    10    15    13    1
    11    26    28    1
    12    26    27    1
    13    17     1    1
    14    28    27    1
    15    25    24    2
    16    24    27    1
    17    24    11   am
    18    27    33    1
    19     2    11    1
    20     2    14    1
    21     2     3    1
    22    11    12    1
    23    13    12    1
    24    13    14    1
    25     4     3   am
    26     4     5    1
    27     9     5    1
    28     9     8    1
    29     3     7    2
    30     5     6    1
    31     5     8    1
    32    33    34   ar
    33    33    32   ar
    34     6    10    2
    35    34    29   ar
    36    32    31   ar
    37    29    30   ar
    38    31    30   ar
    39    30    35    1
