@<TRIPOS>MOLECULE
2xud_DME_A_1.pdb
 18 17 0 0 0
SMALL
GASTEIGER

@<TRIPOS>ATOM
      1  N1        35.6550   24.2100    8.4760 N.4   1544  DME1544     0.3857
      2  C2        34.9310   22.8960    8.5610 C.3   1544  DME1544    -0.0733
      3  C3        33.5250   22.9460    9.2000 C.3   1544  DME1544    -0.0223
      4  C4        32.7500   21.6180    9.1370 C.3   1544  DME1544    -0.0021
      5  C5        31.2240   21.7700    9.0130 C.3   1544  DME1544    -0.0001
      6  C6        30.4550   21.6260   10.3400 C.3   1544  DME1544    -0.0000
      7  C7        29.0300   21.0540   10.2580 C.3   1544  DME1544    -0.0000
      8  C8        27.9600   22.1310   10.4310 C.3   1544  DME1544    -0.0001
      9  C9        26.5570   21.6250   10.7820 C.3   1544  DME1544    -0.0021
     10  C10       25.9610   22.3960   11.9710 C.3   1544  DME1544    -0.0223
     11  C11       24.9900   21.6410   12.9000 C.3   1544  DME1544    -0.0733
     12  N12       25.4980   20.4050   13.5550 N.4   1544  DME1544     0.3857
     13  C13       35.0440   25.1180    7.4790 C.3   1544  DME1544    -0.0960
     14  C14       37.0600   24.0390    8.0450 C.3   1544  DME1544    -0.0960
     15  C15       35.6720   24.8720    9.7930 C.3   1544  DME1544    -0.0960
     16  C16       26.9680   20.1900   13.4230 C.3   1544  DME1544    -0.0960
     17  C17       25.1880   20.3230   14.9780 C.3   1544  DME1544    -0.0960
     18  C18       24.7460   19.2930   13.0080 C.3   1544  DME1544    -0.0960
@<TRIPOS>BOND
     1    13     1    1
     2    14     1    1
     3     1     2    1
     4     1    15    1
     5     2     3    1
     6     5     4    1
     7     5     6    1
     8     4     3    1
     9     7     6    1
    10     7     8    1
    11     8     9    1
    12     9    10    1
    13    10    11    1
    14    11    12    1
    15    18    12    1
    16    16    12    1
    17    12    17    1
