@<TRIPOS>MOLECULE
2xue_AKG_A_1.pdb
 10 9 0 0 0
SMALL
GASTEIGER

@<TRIPOS>ATOM
      1  C1        51.8090   20.8420  -18.5360 C.2   4000  AKG4000     0.4219
      2  O1        52.4570   20.8360  -17.4690 O.co2 4000  AKG4000    -0.2373
      3  O2        52.3240   21.3560  -19.6300 O.co2 4000  AKG4000    -0.2373
      4  C2        50.4250   20.2600  -18.6050 C.2   4000  AKG4000     0.2526
      5  O5        50.0490   19.6220  -17.6620 O.2   4000  AKG4000    -0.2843
      6  C3        49.4720   20.4500  -19.7950 C.3   4000  AKG4000     0.0881
      7  C4        49.4970   19.3240  -20.7860 C.3   4000  AKG4000     0.1224
      8  C5        48.5290   19.6570  -21.9030 C.2   4000  AKG4000     0.3653
      9  O3        47.3660   18.9980  -21.8890 O.co2 4000  AKG4000    -0.2456
     10  O4        48.7750   20.4880  -22.7970 O.co2 4000  AKG4000    -0.2456
@<TRIPOS>BOND
     1    10     8   ar
     2     8     9   ar
     3     8     7    1
     4     7     6    1
     5     6     4    1
     6     3     1   ar
     7     4     1    1
     8     4     5    2
     9     1     2   ar
