@<TRIPOS>MOLECULE
2xuf_TZ4_A_1.pdb
 50 57 0 0 0
SMALL
GASTEIGER

@<TRIPOS>ATOM
      1  N3        40.3520   29.9790    7.1050 N.pl3 1545  TZ41545    -0.1281
      2  C19       40.1810   28.8520    7.8840 C.ar  1545  TZ41545     0.0891
      3  C18       41.2360   28.3930    8.7520 C.ar  1545  TZ41545     0.0180
      4  C17       41.0520   27.2600    9.5310 C.ar  1545  TZ41545     0.0012
      5  C16       39.8210   26.4990    9.5120 C.ar  1545  TZ41545    -0.0008
      6  C14       38.7650   26.9610    8.6390 C.ar  1545  TZ41545     0.0144
      7  C15       38.9820   28.1460    7.8270 C.ar  1545  TZ41545     0.0193
      8  C7        37.5850   26.1660    8.4510 C.2   1545  TZ41545     0.0482
      9  C8        36.5150   26.7210    7.5420 C.ar  1545  TZ41545     0.0133
     10  C9        35.6660   27.7100    8.0930 C.ar  1545  TZ41545     0.0012
     11  C10       34.6660   28.2960    7.3130 C.ar  1545  TZ41545     0.0000
     12  C11       34.5180   27.8820    5.9860 C.ar  1545  TZ41545     0.0000
     13  C12       35.3590   26.8960    5.4320 C.ar  1545  TZ41545     0.0000
     14  C13       36.3650   26.3110    6.2060 C.ar  1545  TZ41545     0.0012
     15  C4        39.6620   25.2160   10.1890 C.2   1545  TZ41545    -0.0000
     16  C3        40.6680   24.6430   11.0600 C.2   1545  TZ41545    -0.0010
     17  C2        40.5000   23.4150   11.6690 C.2   1545  TZ41545     0.0175
     18  C1        39.3020   22.6650   11.4600 C.2   1545  TZ41545     0.0868
     19  N1        39.1150   21.4340   12.0450 N.pl3 1545  TZ41545    -0.1283
     20  C6        38.4520   24.4450    9.9780 C.3   1545  TZ41545     0.1192
     21  C5        38.3070   23.1830   10.6360 C.2   1545  TZ41545     0.0158
     22  N2        37.4640   24.9760    9.1100 N.pl3 1545  TZ41545    -0.3018
     23  C20       36.2510   24.1310    8.8930 C.3   1545  TZ41545     0.0913
     24  C21       35.0330   24.2700    9.8040 C.3   1545  TZ41545     0.0214
     25  C22       33.8580   23.6680    9.0270 C.3   1545  TZ41545     0.0018
     26  C23       33.3770   22.2960    9.4880 C.3   1545  TZ41545     0.0004
     27  C24       31.8650   22.0570    9.3390 C.3   1545  TZ41545     0.0060
     28  C25       30.9490   22.8370   10.3050 C.3   1545  TZ41545     0.0445
     29  C26       29.6390   22.0960   10.4890 C.2   1545  TZ41545     0.0749
     30  N4        29.6010   20.9660   11.1990 N.2   1545  TZ41545    -0.1540
     31  N5        28.3460   20.5680   11.1880 N.pl3 1545  TZ41545    -0.0631
     32  N6        27.5830   21.3980   10.4930 N.3   1545  TZ41545    -0.1616
     33  C27       28.3600   22.4080   10.0090 C.3   1545  TZ41545     0.1381
     34  C28       26.1250   21.2980   10.2430 C.3   1545  TZ41545     0.1191
     35  C29       25.1940   22.1270   11.1740 C.3   1545  TZ41545     0.1310
     36  N7        25.2580   21.8440   12.6340 N.pl3 1545  TZ41545    -0.2395
     37  C30       26.4500   21.8340   13.3760 C.2   1545  TZ41545     0.0559
     38  C31       26.6590   20.6940   14.2360 C.3   1545  TZ41545     0.1115
     39  C32       25.7730   19.5370   14.3060 C.2   1545  TZ41545    -0.0137
     40  C33       27.8940   20.5880   14.9800 C.2   1545  TZ41545     0.1180
     41  C34       28.2310   19.3700   15.7140 C.2   1545  TZ41545     0.0282
     42  C35       27.3550   18.2940   15.7460 C.2   1545  TZ41545     0.0020
     43  C36       26.1190   18.3910   15.0230 C.2   1545  TZ41545    -0.0037
     44  N8        28.8420   21.5430   14.9330 N.2   1545  TZ41545    -0.4055
     45  C37       28.6760   22.6210   14.1210 C.ar  1545  TZ41545     0.1319
     46  C38       29.7250   23.6280   14.1580 C.ar  1545  TZ41545     0.0321
     47  C39       27.4700   22.8370   13.3500 C.ar  1545  TZ41545     0.0410
     48  C40       27.3330   24.1280   12.7050 C.ar  1545  TZ41545     0.0035
     49  C41       28.3300   25.0820   12.7730 C.ar  1545  TZ41545     0.0002
     50  C42       29.5950   24.7770   13.4060 C.ar  1545  TZ41545     0.0026
@<TRIPOS>BOND
     1    13    12   ar
     2    13    14   ar
     3    12    11   ar
     4    14     9   ar
     5     1     2    1
     6    11    10   ar
     7     9    10   ar
     8     9     8    1
     9     7     2   ar
    10     7     6   ar
    11     2     3   ar
    12     8     6    2
    13     8    22    1
    14     6     5   ar
    15     3     4   ar
    16    23    22    1
    17    23    24    1
    18    25    26    1
    19    25    24    1
    20    22    20    1
    21    27    26    1
    22    27    28    1
    23     5     4   ar
    24     5    15    2
    25    20    15    1
    26    20    21    1
    27    33    29    1
    28    33    32    1
    29    15    16    1
    30    34    32    1
    31    34    35    1
    32    28    29    1
    33    29    30    2
    34    32    31    1
    35    21    18    2
    36    16    17    2
    37    35    36    1
    38    31    30    1
    39    18    17    1
    40    18    19    1
    41    36    37    1
    42    48    49   ar
    43    48    47   ar
    44    49    50   ar
    45    47    37    2
    46    47    45   ar
    47    37    38    1
    48    50    46   ar
    49    45    46   ar
    50    45    44    2
    51    38    39    1
    52    38    40    1
    53    39    43    2
    54    44    40    2
    55    40    41    1
    56    43    42    1
    57    41    42    2
