@<TRIPOS>MOLECULE
2xug_TZ4_A_1.pdb
 50 57 0 0 0
SMALL
GASTEIGER

@<TRIPOS>ATOM
      1  N3        40.3550   29.6030    7.7010 N.pl3 1545  TZ41545    -0.1281
      2  C19       40.1570   28.4320    8.4110 C.ar  1545  TZ41545     0.0891
      3  C18       41.1670   27.8820    9.2730 C.ar  1545  TZ41545     0.0180
      4  C17       40.9150   26.7090    9.9590 C.ar  1545  TZ41545     0.0012
      5  C16       39.6670   25.9750    9.8700 C.ar  1545  TZ41545    -0.0008
      6  C14       38.6600   26.5280    9.0050 C.ar  1545  TZ41545     0.0144
      7  C15       38.9500   27.7530    8.2900 C.ar  1545  TZ41545     0.0193
      8  C7        37.4940   25.7690    8.6680 C.2   1545  TZ41545     0.0482
      9  C8        36.4910   26.4360    7.7480 C.ar  1545  TZ41545     0.0133
     10  C9        35.7180   27.4950    8.2800 C.ar  1545  TZ41545     0.0012
     11  C10       34.8060   28.1750    7.4610 C.ar  1545  TZ41545     0.0000
     12  C11       34.6580   27.7910    6.1200 C.ar  1545  TZ41545     0.0000
     13  C12       35.4270   26.7430    5.5850 C.ar  1545  TZ41545     0.0000
     14  C13       36.3460   26.0650    6.3920 C.ar  1545  TZ41545     0.0012
     15  C4        39.4770   24.6200   10.3990 C.2   1545  TZ41545    -0.0000
     16  C3        40.4400   23.9590   11.2530 C.2   1545  TZ41545    -0.0010
     17  C2        40.2750   22.6640   11.6940 C.2   1545  TZ41545     0.0175
     18  C1        39.1170   21.9220   11.3200 C.2   1545  TZ41545     0.0868
     19  N1        38.9390   20.6320   11.7560 N.pl3 1545  TZ41545    -0.1283
     20  C6        38.2910   23.8610   10.0270 C.3   1545  TZ41545     0.1192
     21  C5        38.1560   22.5120   10.5060 C.2   1545  TZ41545     0.0158
     22  N2        37.3460   24.5040    9.1750 N.pl3 1545  TZ41545    -0.3018
     23  C20       36.1320   23.7640    8.7200 C.3   1545  TZ41545     0.0913
     24  C21       35.1730   23.0220    9.6290 C.3   1545  TZ41545     0.0214
     25  C22       33.7990   23.4120    9.1110 C.3   1545  TZ41545     0.0018
     26  C23       32.8780   22.2340    8.8430 C.3   1545  TZ41545     0.0004
     27  C24       31.9510   21.9310   10.0140 C.3   1545  TZ41545     0.0060
     28  C25       30.7510   22.8460   10.1690 C.3   1545  TZ41545     0.0445
     29  C26       29.5120   22.0310   10.4240 C.2   1545  TZ41545     0.0749
     30  N4        29.5360   20.9010   11.1470 N.2   1545  TZ41545    -0.1540
     31  N5        28.2970   20.4610   11.1790 N.pl3 1545  TZ41545    -0.0631
     32  N6        27.4880   21.2840   10.5070 N.3   1545  TZ41545    -0.1616
     33  C27       28.2190   22.3090    9.9930 C.3   1545  TZ41545     0.1381
     34  C28       26.0230   21.1780   10.2840 C.3   1545  TZ41545     0.1191
     35  C29       25.1640   22.0670   11.2080 C.3   1545  TZ41545     0.1310
     36  N7        25.2510   21.7650   12.6610 N.pl3 1545  TZ41545    -0.2396
     37  C30       26.4440   21.7650   13.3850 C.2   1545  TZ41545     0.0555
     38  C31       26.6340   20.6300   14.2520 C.3   1545  TZ41545     0.1115
     39  C32       25.7310   19.4860   14.3120 C.2   1545  TZ41545    -0.0137
     40  C33       27.8730   20.5100   14.9910 C.2   1545  TZ41545     0.1176
     41  C34       28.1950   19.2760   15.6940 C.2   1545  TZ41545     0.0282
     42  C35       27.3170   18.2090   15.7070 C.2   1545  TZ41545     0.0020
     43  C36       26.0710   18.3280   15.0020 C.2   1545  TZ41545    -0.0037
     44  N8        28.8410   21.4530   14.9360 N.2   1545  TZ41545    -0.4098
     45  C37       28.6790   22.5310   14.1270 C.2   1545  TZ41545     0.1098
     46  C38       29.7100   23.5620   14.1890 C.3   1545  TZ41545     0.0637
     47  C39       27.4810   22.7440   13.3430 C.2   1545  TZ41545     0.0365
     48  C40       27.3740   24.0290   12.6930 C.2   1545  TZ41545    -0.0014
     49  C41       28.3730   24.9810   12.7840 C.2   1545  TZ41545    -0.0256
     50  C42       29.6500   24.6640   13.3560 C.3   1545  TZ41545     0.0335
@<TRIPOS>BOND
     1    13    12   ar
     2    13    14   ar
     3    12    11   ar
     4    14     9   ar
     5    11    10   ar
     6     1     2    1
     7     9    10   ar
     8     9     8    1
     9     7     2   ar
    10     7     6   ar
    11     2     3   ar
    12     8     6    2
    13     8    22    1
    14    23    22    1
    15    23    24    1
    16    26    25    1
    17    26    27    1
    18     6     5   ar
    19    25    24    1
    20    22    20    1
    21     3     4   ar
    22     5     4   ar
    23     5    15    2
    24    33    29    1
    25    33    32    1
    26    27    28    1
    27    20    15    1
    28    20    21    1
    29    28    29    1
    30    34    32    1
    31    34    35    1
    32    15    16    1
    33    29    30    2
    34    21    18    2
    35    32    31    1
    36    30    31    1
    37    35    36    1
    38    16    17    2
    39    18    17    1
    40    18    19    1
    41    36    37    1
    42    48    49    2
    43    48    47    1
    44    49    50    1
    45    47    37    2
    46    47    45    1
    47    50    46    1
    48    37    38    1
    49    45    46    1
    50    45    44    2
    51    38    39    1
    52    38    40    1
    53    39    43    2
    54    44    40    2
    55    40    41    1
    56    43    42    1
    57    41    42    2
