@<TRIPOS>MOLECULE
2xuh_TZ4_A_1.pdb
 50 57 0 0 0
SMALL
GASTEIGER

@<TRIPOS>ATOM
      1  N3        39.8260   29.6500    7.4260 N.pl3 1543  TZ41543    -0.1281
      2  C19       39.6080   28.4900    8.1400 C.ar  1543  TZ41543     0.0891
      3  C18       40.6350   28.0190    9.0250 C.ar  1543  TZ41543     0.0180
      4  C17       40.4310   26.8600    9.7570 C.ar  1543  TZ41543     0.0012
      5  C16       39.2190   26.0720    9.6690 C.ar  1543  TZ41543    -0.0008
      6  C14       38.1860   26.5510    8.7920 C.ar  1543  TZ41543     0.0144
      7  C15       38.4190   27.7680    8.0140 C.ar  1543  TZ41543     0.0193
      8  C7        36.9950   25.7580    8.6400 C.2   1543  TZ41543     0.0482
      9  C8        35.9300   26.3050    7.7360 C.ar  1543  TZ41543     0.0133
     10  C9        35.0910   27.2970    8.2840 C.ar  1543  TZ41543     0.0012
     11  C10       34.0980   27.8690    7.4940 C.ar  1543  TZ41543     0.0000
     12  C11       33.9410   27.4400    6.1750 C.ar  1543  TZ41543     0.0000
     13  C12       34.7820   26.4480    5.6280 C.ar  1543  TZ41543     0.0000
     14  C13       35.7940   25.8750    6.4010 C.ar  1543  TZ41543     0.0012
     15  C4        39.0450   24.7840   10.3260 C.2   1543  TZ41543    -0.0000
     16  C3        40.0440   24.2580   11.2100 C.2   1543  TZ41543    -0.0010
     17  C2        39.8970   23.0830   11.9090 C.2   1543  TZ41543     0.0175
     18  C1        38.7170   22.3250   11.7640 C.2   1543  TZ41543     0.0868
     19  N1        38.6220   21.1560   12.4810 N.pl3 1543  TZ41543    -0.1283
     20  C6        37.8400   24.0080   10.1580 C.3   1543  TZ41543     0.1192
     21  C5        37.7090   22.7820   10.9010 C.2   1543  TZ41543     0.0158
     22  N2        36.8460   24.5640    9.2990 N.pl3 1543  TZ41543    -0.3018
     23  C20       35.5990   23.7770    9.0140 C.3   1543  TZ41543     0.0913
     24  C21       34.5100   23.5420   10.0450 C.3   1543  TZ41543     0.0214
     25  C22       33.1630   23.4550    9.3340 C.3   1543  TZ41543     0.0018
     26  C23       32.6790   22.0480    9.0210 C.3   1543  TZ41543     0.0004
     27  C24       31.5690   21.5370    9.9430 C.3   1543  TZ41543     0.0060
     28  C25       30.3280   22.4200   10.0340 C.3   1543  TZ41543     0.0445
     29  C26       29.0590   21.6810   10.3850 C.2   1543  TZ41543     0.0749
     30  N4        29.0610   20.6500   11.2280 N.2   1543  TZ41543    -0.1540
     31  N5        27.8060   20.2540   11.3210 N.pl3 1543  TZ41543    -0.0631
     32  N6        27.0110   21.0140   10.5840 N.3   1543  TZ41543    -0.1616
     33  C27       27.7670   21.9510    9.9400 C.3   1543  TZ41543     0.1381
     34  C28       25.5350   20.9250   10.4020 C.3   1543  TZ41543     0.1191
     35  C29       24.6540   21.7490   11.3910 C.3   1543  TZ41543     0.1310
     36  N7        24.6660   21.2880   12.8010 N.pl3 1543  TZ41543    -0.2395
     37  C30       25.8620   21.2970   13.5010 C.2   1543  TZ41543     0.0559
     38  C31       26.1050   20.1710   14.3260 C.ar  1543  TZ41543     0.0410
     39  C32       25.1280   19.1450   14.5760 C.ar  1543  TZ41543     0.0035
     40  C33       27.3750   20.0490   15.0040 C.ar  1543  TZ41543     0.1319
     41  C34       27.6790   18.8640   15.7970 C.ar  1543  TZ41543     0.0321
     42  C35       26.7350   17.8710   15.9790 C.ar  1543  TZ41543     0.0026
     43  C36       25.4500   18.0360   15.3650 C.ar  1543  TZ41543     0.0002
     44  N8        28.3020   21.0450   14.9720 N.2   1543  TZ41543    -0.4055
     45  C37       28.0700   22.1310   14.1750 C.2   1543  TZ41543     0.1180
     46  C38       29.1110   23.1350   14.0820 C.2   1543  TZ41543     0.0282
     47  C39       26.8360   22.3270   13.4800 C.3   1543  TZ41543     0.1115
     48  C40       26.6440   23.6030   12.8390 C.2   1543  TZ41543    -0.0137
     49  C41       27.6450   24.5640   12.7970 C.2   1543  TZ41543    -0.0037
     50  C42       28.9370   24.3160   13.3760 C.2   1543  TZ41543     0.0020
@<TRIPOS>BOND
     1    13    12   ar
     2    13    14   ar
     3    12    11   ar
     4    14     9   ar
     5     1     2    1
     6    11    10   ar
     7     9    10   ar
     8     9     8    1
     9     7     2   ar
    10     7     6   ar
    11     2     3   ar
    12     8     6    2
    13     8    22    1
    14     6     5   ar
    15    23    22    1
    16    23    24    1
    17    26    25    1
    18    26    27    1
    19     3     4   ar
    20    22    20    1
    21    25    24    1
    22     5     4   ar
    23     5    15    2
    24    33    29    1
    25    33    32    1
    26    27    28    1
    27    28    29    1
    28    20    15    1
    29    20    21    1
    30    15    16    1
    31    29    30    2
    32    34    32    1
    33    34    35    1
    34    32    31    1
    35    21    18    2
    36    16    17    2
    37    30    31    1
    38    35    36    1
    39    18    17    1
    40    18    19    1
    41    49    48    2
    42    49    50    1
    43    36    37    1
    44    48    47    1
    45    50    46    2
    46    47    37    1
    47    47    45    1
    48    37    38    2
    49    46    45    1
    50    45    44    2
    51    38    39   ar
    52    38    40   ar
    53    39    43   ar
    54    44    40    2
    55    40    41   ar
    56    43    42   ar
    57    41    42   ar
