@<TRIPOS>MOLECULE
2xui_TZ5_A_1.pdb
 50 57 0 0 0
SMALL
GASTEIGER

@<TRIPOS>ATOM
      1  N2        35.7840   19.9500    4.7030 N.pl3 1545  TZ51545    -0.1283
      2  C8        35.6130   21.2780    5.0650 C.2   1545  TZ51545     0.0864
      3  C7        35.4760   22.3420    4.1020 C.2   1545  TZ51545    -0.0033
      4  C6        35.2920   23.6620    4.5030 C.3   1545  TZ51545     0.0550
      5  C5        35.2620   24.0430    5.9110 C.2   1545  TZ51545    -0.0040
      6  C19       35.5690   21.6260    6.4200 C.2   1545  TZ51545     0.0322
      7  C18       35.3610   22.9730    6.8740 C.2   1545  TZ51545     0.0492
      8  N3        35.5260   23.3320    8.2310 N.pl3 1545  TZ51545    -0.2871
      9  C11       35.6750   24.5840    8.7130 C.2   1545  TZ51545     0.0515
     10  C12       35.8680   24.8270   10.1740 C.ar  1545  TZ51545     0.0136
     11  C13       37.1700   24.7180   10.7010 C.ar  1545  TZ51545     0.0012
     12  C14       37.3390   24.9660   12.0810 C.ar  1545  TZ51545     0.0000
     13  C15       36.2430   25.3040   12.9010 C.ar  1545  TZ51545     0.0000
     14  C16       34.9380   25.4140   12.3600 C.ar  1545  TZ51545     0.0000
     15  C17       34.7560   25.1650   10.9960 C.ar  1545  TZ51545     0.0012
     16  C10       35.6180   25.6820    7.8070 C.ar  1545  TZ51545     0.0147
     17  C9        35.3190   26.9890    8.3280 C.ar  1545  TZ51545     0.0193
     18  C4        35.4200   25.4320    6.3850 C.ar  1545  TZ51545    -0.0012
     19  C3        34.9500   26.5470    5.6080 C.ar  1545  TZ51545     0.0012
     20  C2        34.6710   27.7850    6.1390 C.ar  1545  TZ51545     0.0180
     21  C1        34.8520   28.0180    7.5290 C.ar  1545  TZ51545     0.0891
     22  N1        34.5960   29.2650    8.0790 N.pl3 1545  TZ51545    -0.1281
     23  C20       35.5590   22.2210    9.2150 C.3   1545  TZ51545     0.0955
     24  C21       34.2340   21.4630    9.3920 C.3   1545  TZ51545     0.0218
     25  C22       32.9860   22.3460    9.2560 C.3   1545  TZ51545     0.0018
     26  C23       31.7360   21.4940    9.3480 C.3   1545  TZ51545     0.0005
     27  C24       30.6430   22.3660    9.9360 C.3   1545  TZ51545     0.0063
     28  C25       29.4370   21.5750   10.4140 C.3   1545  TZ51545     0.0472
     29  C26       29.7720   20.6110   11.5010 C.ar  1545  TZ51545     0.0781
     30  N4        30.4070   20.6800   12.6990 N.ar  1545  TZ51545    -0.2339
     31  N5        30.4190   19.4950   13.2630 N.ar  1545  TZ51545    -0.0641
     32  N6        29.8250   18.6020   12.5330 N.ar  1545  TZ51545    -0.1275
     33  C27       29.4380   19.2730   11.4620 C.ar  1545  TZ51545     0.1381
     34  C28       30.9820   21.8940   13.2950 C.3   1545  TZ51545     0.1520
     35  C29       29.9320   22.8600   13.8490 C.3   1545  TZ51545     0.1382
     36  N7        29.0100   22.2310   14.8210 N.pl3 1545  TZ51545    -0.2390
     37  C30       27.7460   21.7750   14.4180 C.2   1545  TZ51545     0.0556
     38  C31       26.8790   22.4390   13.4940 C.3   1545  TZ51545     0.1115
     39  C32       27.0690   23.8210   13.0670 C.2   1545  TZ51545    -0.0137
     40  C33       25.6200   21.8180   13.1580 C.2   1545  TZ51545     0.1176
     41  C34       24.6140   22.5240   12.3980 C.2   1545  TZ51545     0.0282
     42  C35       24.8490   23.8290   12.0090 C.2   1545  TZ51545     0.0020
     43  C36       26.0970   24.4790   12.3450 C.2   1545  TZ51545    -0.0037
     44  N8        25.2370   20.6490   13.6950 N.2   1545  TZ51545    -0.4098
     45  C37       26.0430   19.9970   14.5760 C.2   1545  TZ51545     0.1098
     46  C38       25.6250   18.6680   15.0000 C.3   1545  TZ51545     0.0637
     47  C39       27.3190   20.5310   14.9880 C.2   1545  TZ51545     0.0366
     48  C40       28.1300   19.6980   15.8640 C.2   1545  TZ51545    -0.0014
     49  C41       27.6720   18.4400   16.2450 C.2   1545  TZ51545    -0.0256
     50  C42       26.5720   17.8310   15.5500 C.3   1545  TZ51545     0.0335
@<TRIPOS>BOND
     1     3     4    1
     2     3     2    2
     3     4     5    1
     4     1     2    1
     5     2     6    1
     6    19    20   ar
     7    19    18   ar
     8     5    18    2
     9     5     7    1
    10    20    21   ar
    11    18    16   ar
    12     6     7    2
    13     7     8    1
    14    21    22    1
    15    21    17   ar
    16    16    17   ar
    17    16     9    2
    18     8     9    1
    19     8    23    1
    20     9    10    1
    21    23    24    1
    22    25    26    1
    23    25    24    1
    24    26    27    1
    25    27    28    1
    26    10    11   ar
    27    10    15   ar
    28    28    29    1
    29    11    12   ar
    30    15    14   ar
    31    33    29   ar
    32    33    32   ar
    33    29    30   ar
    34    42    43    1
    35    42    41    2
    36    12    13   ar
    37    43    39    2
    38    14    13   ar
    39    41    40    1
    40    32    31   ar
    41    30    31   ar
    42    30    34    1
    43    39    38    1
    44    40    38    1
    45    40    44    2
    46    34    35    1
    47    38    37    1
    48    44    45    2
    49    35    36    1
    50    37    36    1
    51    37    47    2
    52    45    47    1
    53    45    46    1
    54    47    48    1
    55    46    50    1
    56    50    49    1
    57    48    49    2
