@<TRIPOS>MOLECULE
2xuj_TZ5_A_1.pdb
 50 57 0 0 0
SMALL
GASTEIGER

@<TRIPOS>ATOM
      1  N2        39.0000   20.5310   10.7300 N.pl3 1544  TZ51544    -0.1283
      2  C8        39.0650   21.8980   10.5770 C.2   1544  TZ51544     0.0868
      3  C7        40.1820   22.6550   11.0320 C.2   1544  TZ51544     0.0175
      4  C6        40.1920   24.0170   10.8310 C.2   1544  TZ51544    -0.0010
      5  C5        39.1220   24.7370   10.1500 C.2   1544  TZ51544     0.0003
      6  C19       38.0040   22.5640    9.9440 C.2   1544  TZ51544     0.0161
      7  C18       37.9440   23.9850    9.7320 C.3   1544  TZ51544     0.1232
      8  N3        36.9930   24.6130    8.8520 N.pl3 1544  TZ51544    -0.2799
      9  C11       37.1790   25.8660    8.3300 C.2   1544  TZ51544     0.0520
     10  C12       36.2410   26.5920    7.3830 C.ar  1544  TZ51544     0.0136
     11  C13       35.4170   27.6090    7.9130 C.ar  1544  TZ51544     0.0012
     12  C14       34.5830   28.3270    7.0550 C.ar  1544  TZ51544     0.0000
     13  C15       34.5850   28.0350    5.6830 C.ar  1544  TZ51544     0.0000
     14  C16       35.4090   27.0390    5.1380 C.ar  1544  TZ51544     0.0000
     15  C17       36.2460   26.3230    5.9910 C.ar  1544  TZ51544     0.0012
     16  C10       38.3620   26.6170    8.6700 C.ar  1544  TZ51544     0.0147
     17  C9        38.6280   27.8920    8.0240 C.ar  1544  TZ51544     0.0193
     18  C4        39.3410   26.0810    9.5810 C.ar  1544  TZ51544    -0.0008
     19  C3        40.5140   26.9070    9.8010 C.ar  1544  TZ51544     0.0012
     20  C2        40.7360   28.1320    9.1830 C.ar  1544  TZ51544     0.0180
     21  C1        39.7610   28.6540    8.2600 C.ar  1544  TZ51544     0.0891
     22  N1        39.9220   29.8750    7.6130 N.pl3 1544  TZ51544    -0.1281
     23  C20       35.7430   23.9190    8.4010 C.2   1544  TZ51544     0.0612
     24  C21       35.1520   22.6920    9.1150 C.2   1544  TZ51544    -0.0101
     25  C22       33.7140   22.3090    8.6980 C.3   1544  TZ51544     0.0274
     26  C23       32.6210   22.8810    9.6100 C.3   1544  TZ51544     0.0051
     27  C24       31.2470   22.3150    9.2300 C.3   1544  TZ51544     0.0067
     28  C25       30.1950   22.3110   10.3520 C.3   1544  TZ51544     0.0472
     29  C26       30.3510   21.1580   11.3160 C.ar  1544  TZ51544     0.0781
     30  N4        30.8630   21.0730   12.5670 N.ar  1544  TZ51544    -0.2339
     31  N5        30.8170   19.8210   13.0350 N.ar  1544  TZ51544    -0.0641
     32  N6        30.2770   19.0290   12.1420 N.ar  1544  TZ51544    -0.1275
     33  C27       29.9830   19.8240   11.1050 C.ar  1544  TZ51544     0.1381
     34  C28       31.4060   22.2520   13.2310 C.3   1544  TZ51544     0.1520
     35  C29       30.3310   23.1880   13.7640 C.3   1544  TZ51544     0.1382
     36  N7        29.4490   22.5520   14.7520 N.pl3 1544  TZ51544    -0.2390
     37  C30       28.2040   22.1030   14.3090 C.2   1544  TZ51544     0.0556
     38  C31       27.2930   22.8180   13.4410 C.3   1544  TZ51544     0.1115
     39  C32       27.4610   24.1890   12.9810 C.2   1544  TZ51544    -0.0137
     40  C33       26.0910   22.1700   13.0430 C.2   1544  TZ51544     0.1176
     41  C34       25.1590   22.8480   12.1940 C.2   1544  TZ51544     0.0282
     42  C35       25.3770   24.1420   11.7890 C.2   1544  TZ51544     0.0020
     43  C36       26.5550   24.8280   12.1780 C.2   1544  TZ51544    -0.0037
     44  N8        25.7690   20.9390   13.4930 N.2   1544  TZ51544    -0.4098
     45  C37       26.6180   20.2360   14.3030 C.2   1544  TZ51544     0.1098
     46  C38       26.2190   18.9010   14.7510 C.3   1544  TZ51544     0.0637
     47  C39       27.8430   20.8020   14.7840 C.2   1544  TZ51544     0.0366
     48  C40       28.5780   20.0370   15.8000 C.2   1544  TZ51544    -0.0014
     49  C41       28.1320   18.7790   16.2130 C.2   1544  TZ51544    -0.0256
     50  C42       27.1130   18.1260   15.4430 C.3   1544  TZ51544     0.0335
@<TRIPOS>BOND
     1    14    13   ar
     2    14    15   ar
     3    13    12   ar
     4    15    10   ar
     5    12    11   ar
     6    10    11   ar
     7    10     9    1
     8    22    21    1
     9    17    21   ar
    10    17    16   ar
    11    21    20   ar
    12     9    16    2
    13     9     8    1
    14    23     8    1
    15    23    24    2
    16    16    18   ar
    17    25    24    1
    18    25    26    1
    19     8     7    1
    20    20    19   ar
    21    27    26    1
    22    27    28    1
    23    18    19   ar
    24    18     5    2
    25     7     6    1
    26     7     5    1
    27     6     2    2
    28     5     4    1
    29    28    29    1
    30     2     1    1
    31     2     3    1
    32     4     3    2
    33    33    29   ar
    34    33    32   ar
    35    29    30   ar
    36    42    43    1
    37    42    41    2
    38    32    31   ar
    39    43    39    2
    40    41    40    1
    41    30    31   ar
    42    30    34    1
    43    39    38    1
    44    40    38    1
    45    40    44    2
    46    34    35    1
    47    38    37    1
    48    44    45    2
    49    35    36    1
    50    45    46    1
    51    45    47    1
    52    37    36    1
    53    37    47    2
    54    46    50    1
    55    47    48    1
    56    50    49    1
    57    48    49    2
