@<TRIPOS>MOLECULE
2xuk_TZ5_A_1.pdb
 50 57 0 0 0
SMALL
GASTEIGER

@<TRIPOS>ATOM
      1  N2        38.5080   20.7290   12.0010 N.pl3 1543  TZ51543    -0.1283
      2  C8        38.5150   21.9940   11.4690 C.2   1543  TZ51543     0.0868
      3  C7        39.5940   22.8630   11.7820 C.2   1543  TZ51543     0.0175
      4  C6        39.6170   24.1350   11.2580 C.2   1543  TZ51543    -0.0010
      5  C5        38.5800   24.6280   10.3870 C.2   1543  TZ51543    -0.0000
      6  C19       37.4810   22.4320   10.6240 C.2   1543  TZ51543     0.0158
      7  C18       37.4820   23.7450   10.0560 C.3   1543  TZ51543     0.1192
      8  N3        36.4920   24.2280    9.1470 N.pl3 1543  TZ51543    -0.3018
      9  C11       36.5510   25.4770    8.5700 C.2   1543  TZ51543     0.0482
     10  C12       35.5090   26.0010    7.6120 C.ar  1543  TZ51543     0.0133
     11  C13       34.5870   26.9560    8.0930 C.ar  1543  TZ51543     0.0012
     12  C14       33.6270   27.4740    7.2200 C.ar  1543  TZ51543     0.0000
     13  C15       33.5910   27.0410    5.8870 C.ar  1543  TZ51543     0.0000
     14  C16       34.5000   26.0870    5.4000 C.ar  1543  TZ51543     0.0000
     15  C17       35.4710   25.5700    6.2670 C.ar  1543  TZ51543     0.0012
     16  C10       37.6440   26.3670    8.8830 C.ar  1543  TZ51543     0.0144
     17  C9        37.8200   27.6460    8.1990 C.ar  1543  TZ51543     0.0193
     18  C4        38.6640   25.9590    9.8170 C.ar  1543  TZ51543    -0.0008
     19  C3        39.7720   26.8640   10.0510 C.ar  1543  TZ51543     0.0012
     20  C2        39.9050   28.0830    9.3970 C.ar  1543  TZ51543     0.0180
     21  C1        38.9040   28.4870    8.4450 C.ar  1543  TZ51543     0.0891
     22  N1        39.0070   29.6950    7.7810 N.pl3 1543  TZ51543    -0.1281
     23  C20       35.3690   23.2980    8.7760 C.3   1543  TZ51543     0.0913
     24  C21       33.9990   23.3350    9.4370 C.3   1543  TZ51543     0.0214
     25  C22       33.0030   22.3380    8.8100 C.3   1543  TZ51543     0.0018
     26  C23       31.8810   22.0100    9.8040 C.3   1543  TZ51543     0.0005
     27  C24       30.6420   21.3350    9.2040 C.3   1543  TZ51543     0.0063
     28  C25       29.4230   21.3060   10.1540 C.3   1543  TZ51543     0.0472
     29  C26       29.5610   20.3530   11.3040 C.ar  1543  TZ51543     0.0781
     30  N4        30.0220   20.4510   12.5800 N.ar  1543  TZ51543    -0.2339
     31  N5        29.9480   19.2790   13.1900 N.ar  1543  TZ51543    -0.0641
     32  N6        29.4570   18.3550   12.3960 N.ar  1543  TZ51543    -0.1275
     33  C27       29.2250   19.0040   11.2560 C.ar  1543  TZ51543     0.1381
     34  C28       30.5180   21.7030   13.1840 C.3   1543  TZ51543     0.1520
     35  C29       29.4170   22.5650   13.8270 C.3   1543  TZ51543     0.1382
     36  N7        28.5760   21.7910   14.7830 N.pl3 1543  TZ51543    -0.2390
     37  C30       27.3110   21.3500   14.3850 C.2   1543  TZ51543     0.0556
     38  C31       26.4180   22.0060   13.4890 C.3   1543  TZ51543     0.1115
     39  C32       26.6150   23.3590   13.0170 C.2   1543  TZ51543    -0.0137
     40  C33       25.1620   21.3840   13.1700 C.2   1543  TZ51543     0.1176
     41  C34       24.1680   22.0870   12.4120 C.2   1543  TZ51543     0.0282
     42  C35       24.4130   23.3660   11.9740 C.2   1543  TZ51543     0.0020
     43  C36       25.6570   24.0150   12.2760 C.2   1543  TZ51543    -0.0037
     44  N8        24.7800   20.2040   13.6900 N.2   1543  TZ51543    -0.4098
     45  C37       25.6100   19.5730   14.5540 C.2   1543  TZ51543     0.1098
     46  C38       25.2120   18.2730   15.0330 C.3   1543  TZ51543     0.0637
     47  C39       26.8930   20.1040   14.9410 C.2   1543  TZ51543     0.0366
     48  C40       27.7140   19.2860   15.8260 C.2   1543  TZ51543    -0.0014
     49  C41       27.2740   18.0500   16.2520 C.2   1543  TZ51543    -0.0256
     50  C42       26.1700   17.4500   15.5690 C.3   1543  TZ51543     0.0335
@<TRIPOS>BOND
     1    14    13   ar
     2    14    15   ar
     3    13    12   ar
     4    15    10   ar
     5    12    11   ar
     6    10    11   ar
     7    10     9    1
     8    22    21    1
     9    17    21   ar
    10    17    16   ar
    11    21    20   ar
    12     9    16    2
    13     9     8    1
    14    23     8    1
    15    23    24    1
    16    25    24    1
    17    25    26    1
    18    16    18   ar
    19     8     7    1
    20    27    26    1
    21    27    28    1
    22    20    19   ar
    23    18    19   ar
    24    18     5    2
    25     7     5    1
    26     7     6    1
    27    28    29    1
    28     5     4    1
    29     6     2    2
    30    33    29   ar
    31    33    32   ar
    32     4     3    2
    33    29    30   ar
    34     2     3    1
    35     2     1    1
    36    42    43    1
    37    42    41    2
    38    43    39    2
    39    32    31   ar
    40    41    40    1
    41    30    34    1
    42    30    31   ar
    43    39    38    1
    44    40    38    1
    45    40    44    2
    46    34    35    1
    47    38    37    1
    48    44    45    2
    49    35    36    1
    50    37    36    1
    51    37    47    2
    52    45    47    1
    53    45    46    1
    54    47    48    1
    55    46    50    1
    56    50    49    1
    57    48    49    2
