@<TRIPOS>MOLECULE
2xul_ATP_A_1.pdb
 31 33 0 0 0
SMALL
GASTEIGER

@<TRIPOS>ATOM
      1  PG         9.4520  -28.9040   29.3850 P.3   200  ATP200      0.5373
      2  O1G       10.5760  -29.5600   30.1370 O.3   200  ATP200     -0.1143
      3  O2G        8.7020  -27.9350   30.2130 O.3   200  ATP200     -0.1143
      4  O3G        8.5370  -29.8700   28.6400 O.2   200  ATP200     -0.2221
      5  PB        10.7860  -28.6160   26.9190 P.3   200  ATP200      0.2277
      6  O1B       10.6170  -30.0850   26.7890 O.3   200  ATP200     -0.4368
      7  O2B       12.1830  -28.0860   26.6250 O.2   200  ATP200     -0.5168
      8  O3B       10.2120  -28.0150   28.2850 O.3   200  ATP200     -0.2258
      9  PA         8.2610  -28.1680   25.6910 P.3   200  ATP200      0.2189
     10  O1A        7.4230  -27.2430   26.5090 O.3   200  ATP200     -0.4371
     11  O2A        7.9210  -29.5670   25.7210 O.2   200  ATP200     -0.5170
     12  O3A        9.8140  -27.8970   25.8450 O.3   200  ATP200     -0.2700
     13  O5'        8.0990  -27.8110   24.1360 O.3   200  ATP200     -0.3112
     14  C5'        6.8580  -27.3990   23.5690 C.3   200  ATP200      0.1813
     15  C4'        6.8200  -27.5030   22.0560 C.3   200  ATP200      0.1821
     16  O4'        7.7370  -26.5760   21.5020 O.3   200  ATP200     -0.3135
     17  C3'        7.2510  -28.8290   21.4590 C.3   200  ATP200      0.2184
     18  O3'        6.2230  -29.8140   21.4030 O.3   200  ATP200     -0.2174
     19  C2'        7.7280  -28.4690   20.0830 C.3   200  ATP200      0.2570
     20  O2'        6.6460  -28.0850   19.2430 O.3   200  ATP200     -0.2130
     21  C1'        8.4160  -27.1550   20.3690 C.3   200  ATP200      0.3186
     22  N9         9.8790  -27.2330   20.6420 N.pl3 200  ATP200     -0.1439
     23  C8        10.5040  -27.5340   21.8220 C.3   200  ATP200      0.3377
     24  N7        11.8420  -27.4060   21.6570 N.2   200  ATP200     -0.2095
     25  C5        12.0830  -27.0190   20.3920 C.2   200  ATP200      0.2526
     26  C6        13.2700  -26.7350   19.5700 C.2   200  ATP200      0.4393
     27  N6        14.5220  -26.8000   20.1000 N.pl3 200  ATP200      0.2180
     28  N1        13.0780  -26.3890   18.2860 N.2   200  ATP200      0.0021
     29  C2        11.8450  -26.2790   17.7390 C.3   200  ATP200      0.5254
     30  N3        10.7430  -26.5700   18.4090 N.2   200  ATP200     -0.0055
     31  C4        10.7970  -26.9160   19.7170 C.2   200  ATP200      0.3518
@<TRIPOS>BOND
     1    29    28    1
     2    29    30    1
     3    28    26    2
     4    30    31    2
     5    20    19    1
     6    26    27    1
     7    26    25    1
     8    31    25    1
     9    31    22    1
    10    19    21    1
    11    19    17    1
    12    21    22    1
    13    21    16    1
    14    25    24    2
    15    22    23    1
    16    18    17    1
    17    17    15    1
    18    16    15    1
    19    24    23    1
    20    15    14    1
    21    14    13    1
    22    13     9    1
    23     9    11    2
    24     9    12    1
    25     9    10    1
    26    12     5    1
    27     7     5    2
    28     6     5    1
    29     5     8    1
    30     8     1    1
    31     4     1    2
    32     1     2    1
    33     1     3    1
