@<TRIPOS>MOLECULE
2xul_AKG_A_1.pdb
 10 9 0 0 0
SMALL
GASTEIGER

@<TRIPOS>ATOM
      1  C1         7.9580  -33.0130   25.3980 C.2   201  AKG201      0.4219
      2  O1         7.8360  -33.8300   24.4750 O.co2 201  AKG201     -0.2373
      3  O2         8.9470  -32.2300   25.4770 O.co2 201  AKG201     -0.2373
      4  C2         6.9350  -32.9520   26.4420 C.2   201  AKG201      0.2526
      5  O5         7.1130  -32.0760   27.2860 O.2   201  AKG201     -0.2843
      6  C3         5.7230  -33.9000   26.4890 C.3   201  AKG201      0.0881
      7  C4         4.5220  -33.3060   27.2720 C.3   201  AKG201      0.1224
      8  C5         3.6530  -32.3900   26.4060 C.2   201  AKG201      0.3653
      9  O3         2.5700  -32.0010   26.8920 O.co2 201  AKG201     -0.2456
     10  O4         4.0190  -32.0320   25.2460 O.co2 201  AKG201     -0.2456
@<TRIPOS>BOND
     1     2     1   ar
     2    10     8   ar
     3     1     3   ar
     4     1     4    1
     5     8     9   ar
     6     8     7    1
     7     4     6    1
     8     4     5    2
     9     6     7    1
