@<TRIPOS>MOLECULE
2xum_OGA_A_1.pdb
 10 9 0 0 0
SMALL
GASTEIGER

@<TRIPOS>ATOM
      1  C1        22.2600   24.9080   27.7140 C.2   601  OGA601      0.4419
      2  C2        21.1590   25.6660   28.4350 C.2   601  OGA601      0.3455
      3  C4        18.8060   25.7550   29.1450 C.3   601  OGA601      0.2290
      4  C5        17.4500   25.1980   28.6870 C.2   601  OGA601      0.3866
      5  O1        23.3940   25.4240   27.6820 O.co2 601  OGA601     -0.2354
      6  O2        21.9790   23.8080   27.1960 O.co2 601  OGA601     -0.2354
      7  O2'       21.4580   26.7600   28.9420 O.2   601  OGA601     -0.2611
      8  O3        16.4460   25.6320   29.2970 O.co2 601  OGA601     -0.2437
      9  N1        19.9380   25.1140   28.4720 N.am  601  OGA601     -0.1838
     10  O4        17.4300   24.3680   27.7400 O.co2 601  OGA601     -0.2437
@<TRIPOS>BOND
     1     6     1   ar
     2     5     1   ar
     3     1     2    1
     4    10     4   ar
     5     2     9   am
     6     2     7    2
     7     9     3    1
     8     4     3    1
     9     4     8   ar
