@<TRIPOS>MOLECULE
2xuo_TZ4_A_1.pdb
 50 57 0 0 0
SMALL
GASTEIGER

@<TRIPOS>ATOM
      1  N3        40.3520   29.5340    7.8880 N.pl3 1543  TZ41543    -0.1281
      2  C19       40.2260   28.2890    8.4920 C.ar  1543  TZ41543     0.0891
      3  C18       41.1860   27.7380    9.4090 C.ar  1543  TZ41543     0.0180
      4  C17       40.9730   26.4880    9.9690 C.ar  1543  TZ41543     0.0012
      5  C16       39.8200   25.6620    9.6860 C.ar  1543  TZ41543    -0.0008
      6  C14       38.8550   26.2290    8.7820 C.ar  1543  TZ41543     0.0144
      7  C15       39.1120   27.5250    8.2000 C.ar  1543  TZ41543     0.0193
      8  C7        37.5450   25.6660    8.6480 C.2   1543  TZ41543     0.0482
      9  C8        36.6150   26.3700    7.6800 C.ar  1543  TZ41543     0.0133
     10  C9        35.7990   27.4230    8.1640 C.ar  1543  TZ41543     0.0012
     11  C10       34.9500   28.1100    7.2840 C.ar  1543  TZ41543     0.0000
     12  C11       34.9210   27.7470    5.9250 C.ar  1543  TZ41543     0.0000
     13  C12       35.7390   26.7130    5.4310 C.ar  1543  TZ41543     0.0000
     14  C13       36.5890   26.0260    6.3050 C.ar  1543  TZ41543     0.0012
     15  C4        39.4490   24.4700   10.4590 C.2   1543  TZ41543    -0.0000
     16  C3        40.4540   23.6380   11.0740 C.2   1543  TZ41543    -0.0010
     17  C2        40.2560   22.3230   11.4080 C.2   1543  TZ41543     0.0175
     18  C1        38.9940   21.7280   11.1800 C.2   1543  TZ41543     0.0868
     19  N1        38.7890   20.4010   11.5050 N.pl3 1543  TZ41543    -0.1283
     20  C6        38.1330   23.8860   10.2590 C.3   1543  TZ41543     0.1192
     21  C5        37.9740   22.5000   10.6140 C.2   1543  TZ41543     0.0158
     22  N2        37.2310   24.5470    9.3670 N.pl3 1543  TZ41543    -0.3018
     23  C20       35.8580   23.9670    9.2420 C.3   1543  TZ41543     0.0913
     24  C21       35.4910   22.9900    8.1130 C.3   1543  TZ41543     0.0214
     25  C22       34.4770   21.9280    8.5750 C.3   1543  TZ41543     0.0018
     26  C23       33.3170   22.5520    9.3420 C.3   1543  TZ41543     0.0004
     27  C24       32.0320   21.7280    9.3870 C.3   1543  TZ41543     0.0060
     28  C25       30.9770   22.5080   10.1740 C.3   1543  TZ41543     0.0445
     29  C26       29.7140   21.7430   10.4040 C.2   1543  TZ41543     0.0749
     30  N4        29.6870   20.6240   11.1130 N.2   1543  TZ41543    -0.1540
     31  N5        28.4380   20.2430   11.1220 N.pl3 1543  TZ41543    -0.0631
     32  N6        27.6780   21.0860   10.4470 N.3   1543  TZ41543    -0.1616
     33  C27       28.4470   22.0750    9.9540 C.3   1543  TZ41543     0.1381
     34  C28       26.2220   21.0670   10.2110 C.3   1543  TZ41543     0.1191
     35  C29       25.4160   22.0240   11.1320 C.3   1543  TZ41543     0.1310
     36  N7        25.3810   21.6060   12.5540 N.pl3 1543  TZ41543    -0.2396
     37  C30       26.5540   21.5710   13.3020 C.2   1543  TZ41543     0.0555
     38  C31       26.7710   20.4410   14.1490 C.ar  1543  TZ41543     0.0410
     39  C32       25.8750   19.3050   14.2300 C.ar  1543  TZ41543     0.0035
     40  C33       27.9940   20.3760   14.9180 C.ar  1543  TZ41543     0.1315
     41  C34       28.2890   19.2070   15.7440 C.ar  1543  TZ41543     0.0320
     42  C35       27.4060   18.1520   15.7830 C.ar  1543  TZ41543     0.0026
     43  C36       26.1860   18.2040   15.0180 C.ar  1543  TZ41543     0.0002
     44  N8        28.9550   21.3400   14.8470 N.2   1543  TZ41543    -0.4098
     45  C37       28.7640   22.3910   14.0210 C.2   1543  TZ41543     0.0960
     46  C38       29.7590   23.4300   14.0450 C.3   1543  TZ41543     0.0598
     47  C39       27.5540   22.5780   13.2710 C.3   1543  TZ41543     0.1070
     48  C40       27.3490   23.8720   12.6550 C.2   1543  TZ41543    -0.0186
     49  C41       28.3180   24.8340   12.7200 C.2   1543  TZ41543    -0.0295
     50  C42       29.6300   24.5190   13.2110 C.3   1543  TZ41543     0.0328
@<TRIPOS>BOND
     1    13    12   ar
     2    13    14   ar
     3    12    11   ar
     4    14     9   ar
     5    11    10   ar
     6     9    10   ar
     7     9     8    1
     8     1     2    1
     9    24    25    1
    10    24    23    1
    11     7     2   ar
    12     7     6   ar
    13     2     3   ar
    14    25    26    1
    15     8     6    2
    16     8    22    1
    17     6     5   ar
    18    23    22    1
    19    26    27    1
    20    22    20    1
    21    27    28    1
    22     3     4   ar
    23     5     4   ar
    24     5    15    2
    25    33    29    1
    26    33    32    1
    27    28    29    1
    28    34    32    1
    29    34    35    1
    30    20    15    1
    31    20    21    1
    32    29    30    2
    33    32    31    1
    34    15    16    1
    35    21    18    2
    36    16    17    2
    37    30    31    1
    38    35    36    1
    39    18    17    1
    40    18    19    1
    41    36    37    1
    42    48    49    2
    43    48    47    1
    44    49    50    1
    45    50    46    1
    46    47    37    1
    47    47    45    1
    48    37    38    2
    49    45    46    1
    50    45    44    2
    51    38    39   ar
    52    38    40   ar
    53    39    43   ar
    54    44    40    2
    55    40    41   ar
    56    43    42   ar
    57    41    42   ar
