@<TRIPOS>MOLECULE
2xup_TZ5_A_1.pdb
 50 57 0 0 0
SMALL
GASTEIGER

@<TRIPOS>ATOM
      1  N2        36.4270   20.1980    4.5330 N.pl3 1548  TZ51548    -0.1283
      2  C8        36.2540   21.5140    4.8970 C.2   1548  TZ51548     0.0864
      3  C7        36.1870   22.5530    3.9230 C.2   1548  TZ51548    -0.0033
      4  C6        36.0060   23.8580    4.3050 C.3   1548  TZ51548     0.0550
      5  C5        35.8880   24.2150    5.6890 C.2   1548  TZ51548    -0.0040
      6  C19       36.1340   21.8320    6.2430 C.2   1548  TZ51548     0.0322
      7  C18       35.9580   23.1690    6.6570 C.2   1548  TZ51548     0.0492
      8  N3        35.9270   23.5410    8.0060 N.pl3 1548  TZ51548    -0.2871
      9  C11       35.8350   24.8060    8.4620 C.2   1548  TZ51548     0.0515
     10  C12       35.8130   24.9890    9.9480 C.ar  1548  TZ51548     0.0136
     11  C13       34.6010   25.1710   10.6110 C.ar  1548  TZ51548     0.0012
     12  C14       34.5840   25.3160   11.9940 C.ar  1548  TZ51548     0.0000
     13  C15       35.7840   25.2640   12.7020 C.ar  1548  TZ51548     0.0000
     14  C16       37.0000   25.0660   12.0460 C.ar  1548  TZ51548     0.0000
     15  C17       37.0120   24.9230   10.6640 C.ar  1548  TZ51548     0.0012
     16  C10       35.7610   25.8810    7.5350 C.ar  1548  TZ51548     0.0147
     17  C9        35.6920   27.2530    7.9650 C.ar  1548  TZ51548     0.0193
     18  C4        35.7880   25.5930    6.1290 C.ar  1548  TZ51548    -0.0012
     19  C3        35.7460   26.7000    5.2270 C.ar  1548  TZ51548     0.0012
     20  C2        35.6800   28.0110    5.6590 C.ar  1548  TZ51548     0.0180
     21  C1        35.6500   28.3050    7.0530 C.ar  1548  TZ51548     0.0891
     22  N1        35.5880   29.6210    7.4850 N.pl3 1548  TZ51548    -0.1281
     23  C20       35.9950   22.4830    9.0560 C.3   1548  TZ51548     0.0955
     24  C21       34.8290   21.4920    9.1750 C.3   1548  TZ51548     0.0218
     25  C22       33.4430   22.1600    9.2530 C.3   1548  TZ51548     0.0018
     26  C23       32.2710   21.1860    9.4820 C.3   1548  TZ51548     0.0005
     27  C24       30.9400   21.9340    9.6840 C.3   1548  TZ51548     0.0063
     28  C25       29.8160   21.0990   10.3350 C.3   1548  TZ51548     0.0472
     29  C26       30.2550   20.1500   11.4140 C.ar  1548  TZ51548     0.0781
     30  N4        30.9030   20.3040   12.5970 N.ar  1548  TZ51548    -0.2339
     31  N5        31.0740   19.1360   13.2020 N.ar  1548  TZ51548    -0.0641
     32  N6        30.5700   18.1640   12.4860 N.ar  1548  TZ51548    -0.1275
     33  C27       30.0810   18.7700   11.4050 C.ar  1548  TZ51548     0.1381
     34  C28       31.3280   21.6280   13.0850 C.3   1548  TZ51548     0.1520
     35  C29       30.1590   22.4790   13.6160 C.3   1548  TZ51548     0.1385
     36  N7        29.3480   21.7220   14.5980 N.pl3 1548  TZ51548    -0.2353
     37  C30       28.0910   21.3170   14.1750 C.2   1548  TZ51548     0.0696
     38  C31       27.1710   22.0840   13.4090 C.ar  1548  TZ51548     0.0445
     39  C32       27.4110   23.4370   12.9580 C.ar  1548  TZ51548     0.0038
     40  C33       25.9290   21.4920   13.0340 C.ar  1548  TZ51548     0.1322
     41  C34       24.9830   22.2250   12.2310 C.ar  1548  TZ51548     0.0321
     42  C35       25.2610   23.5060   11.8270 C.ar  1548  TZ51548     0.0026
     43  C36       26.4990   24.1220   12.1980 C.ar  1548  TZ51548     0.0002
     44  N8        25.5980   20.2380   13.3870 N.2   1548  TZ51548    -0.4062
     45  C37       26.4650   19.4910   14.1010 C.2   1548  TZ51548     0.1098
     46  C38       26.0170   18.2070   14.5790 C.3   1548  TZ51548     0.0594
     47  C39       27.7230   19.9980   14.5400 C.2   1548  TZ51548     0.0361
     48  C40       28.4570   19.1970   15.5040 C.2   1548  TZ51548    -0.0226
     49  C41       27.9600   17.9880   15.9210 C.3   1548  TZ51548     0.0266
     50  C42       26.9300   17.3780   15.1520 C.3   1548  TZ51548     0.0121
@<TRIPOS>BOND
     1     3     4    1
     2     3     2    2
     3     4     5    1
     4     1     2    1
     5     2     6    1
     6    19    20   ar
     7    19    18   ar
     8    20    21   ar
     9     5    18    2
    10     5     7    1
    11    18    16   ar
    12     6     7    2
    13     7     8    1
    14    21    22    1
    15    21    17   ar
    16    16    17   ar
    17    16     9    2
    18     8     9    1
    19     8    23    1
    20     9    10    1
    21    23    24    1
    22    24    25    1
    23    25    26    1
    24    26    27    1
    25    27    28    1
    26    10    11   ar
    27    10    15   ar
    28    28    29    1
    29    11    12   ar
    30    15    14   ar
    31    33    29   ar
    32    33    32   ar
    33    29    30   ar
    34    42    43   ar
    35    42    41   ar
    36    12    13   ar
    37    14    13   ar
    38    43    39   ar
    39    41    40   ar
    40    32    31   ar
    41    30    34    1
    42    30    31   ar
    43    39    38   ar
    44    40    44    2
    45    40    38   ar
    46    34    35    1
    47    44    45    2
    48    38    37    2
    49    35    36    1
    50    45    47    1
    51    45    46    1
    52    37    47    1
    53    37    36    1
    54    47    48    2
    55    46    50    1
    56    50    49    1
    57    48    49    1
