@<TRIPOS>MOLECULE
2xuq_TZ4_A_1.pdb
 50 57 0 0 0
SMALL
GASTEIGER

@<TRIPOS>ATOM
      1  N3        39.9250   29.2690    7.7190 N.pl3 1543  TZ41543    -0.1281
      2  C19       39.8450   28.0290    8.3310 C.ar  1543  TZ41543     0.0891
      3  C18       40.8400   27.5350    9.2390 C.ar  1543  TZ41543     0.0180
      4  C17       40.6920   26.2810    9.8220 C.ar  1543  TZ41543     0.0012
      5  C16       39.5710   25.3960    9.5670 C.ar  1543  TZ41543    -0.0008
      6  C14       38.5670   25.9090    8.6690 C.ar  1543  TZ41543     0.0144
      7  C15       38.7610   27.2120    8.0630 C.ar  1543  TZ41543     0.0193
      8  C7        37.2710   25.2910    8.6000 C.2   1543  TZ41543     0.0482
      9  C8        36.2790   25.9200    7.6500 C.ar  1543  TZ41543     0.0133
     10  C9        35.4840   26.9880    8.1290 C.ar  1543  TZ41543     0.0012
     11  C10       34.5860   27.6260    7.2770 C.ar  1543  TZ41543     0.0000
     12  C11       34.4880   27.1870    5.9530 C.ar  1543  TZ41543     0.0000
     13  C12       35.2800   26.1290    5.4640 C.ar  1543  TZ41543     0.0000
     14  C13       36.1860   25.4900    6.3080 C.ar  1543  TZ41543     0.0012
     15  C4        39.2580   24.2140   10.3800 C.2   1543  TZ41543    -0.0000
     16  C3        40.3060   23.4280   10.9800 C.2   1543  TZ41543    -0.0010
     17  C2        40.1630   22.1120   11.3460 C.2   1543  TZ41543     0.0175
     18  C1        38.9140   21.4750   11.1690 C.2   1543  TZ41543     0.0868
     19  N1        38.7570   20.1540   11.5330 N.pl3 1543  TZ41543    -0.1283
     20  C6        37.9580   23.5810   10.2380 C.3   1543  TZ41543     0.1192
     21  C5        37.8590   22.1970   10.6170 C.2   1543  TZ41543     0.0158
     22  N2        37.0080   24.1920    9.3640 N.pl3 1543  TZ41543    -0.3018
     23  C20       35.6510   23.5780    9.2630 C.3   1543  TZ41543     0.0913
     24  C21       35.4810   22.4370    8.2690 C.3   1543  TZ41543     0.0214
     25  C22       34.0040   22.1270    8.0920 C.3   1543  TZ41543     0.0018
     26  C23       33.4800   21.1390    9.1230 C.3   1543  TZ41543     0.0004
     27  C24       32.4460   21.7440   10.0690 C.3   1543  TZ41543     0.0060
     28  C25       31.0630   21.9680    9.4720 C.3   1543  TZ41543     0.0445
     29  C26       29.9540   21.2110   10.1570 C.2   1543  TZ41543     0.0749
     30  N4        30.0970   20.2420   11.1000 N.2   1543  TZ41543    -0.1540
     31  N5        28.8630   19.8760   11.3820 N.pl3 1543  TZ41543    -0.0631
     32  N6        27.9490   20.5970   10.6770 N.3   1543  TZ41543    -0.1616
     33  C27       28.6130   21.4450    9.8700 C.3   1543  TZ41543     0.1381
     34  C28       26.4350   20.5570   10.6010 C.3   1543  TZ41543     0.1191
     35  C29       25.4700   21.5930   11.2940 C.3   1543  TZ41543     0.1310
     36  N7        25.1900   21.2430   12.7090 N.pl3 1543  TZ41543    -0.2395
     37  C30       26.3260   21.1250   13.4880 C.2   1543  TZ41543     0.0559
     38  C31       26.5120   19.9700   14.3010 C.3   1543  TZ41543     0.1115
     39  C32       25.7010   18.7790   14.2250 C.2   1543  TZ41543    -0.0137
     40  C33       27.7170   19.8730   15.0860 C.2   1543  TZ41543     0.1180
     41  C34       28.0690   18.6570   15.7930 C.2   1543  TZ41543     0.0282
     42  C35       27.2640   17.5620   15.6750 C.2   1543  TZ41543     0.0020
     43  C36       26.0660   17.6270   14.8860 C.2   1543  TZ41543    -0.0037
     44  N8        28.6860   20.8160   15.0240 N.2   1543  TZ41543    -0.4055
     45  C37       28.5370   21.8740   14.2120 C.ar  1543  TZ41543     0.1319
     46  C38       29.6110   22.8300   14.2080 C.ar  1543  TZ41543     0.0321
     47  C39       27.3400   22.1070   13.4640 C.ar  1543  TZ41543     0.0410
     48  C40       27.1670   23.3920   12.8050 C.ar  1543  TZ41543     0.0035
     49  C41       28.1830   24.3040   12.8410 C.ar  1543  TZ41543     0.0002
     50  C42       29.4710   23.9460   13.4020 C.ar  1543  TZ41543     0.0026
@<TRIPOS>BOND
     1    13    12   ar
     2    13    14   ar
     3    12    11   ar
     4    14     9   ar
     5    11    10   ar
     6     9    10   ar
     7     9     8    1
     8     1     2    1
     9     7     2   ar
    10     7     6   ar
    11    25    24    1
    12    25    26    1
    13    24    23    1
    14     2     3   ar
    15     8     6    2
    16     8    22    1
    17     6     5   ar
    18    26    27    1
    19     3     4   ar
    20    23    22    1
    21    22    20    1
    22    28    27    1
    23    28    29    1
    24     5     4   ar
    25     5    15    2
    26    33    29    1
    27    33    32    1
    28    29    30    2
    29    20    15    1
    30    20    21    1
    31    15    16    1
    32    34    32    1
    33    34    35    1
    34    21    18    2
    35    32    31    1
    36    16    17    2
    37    30    31    1
    38    18    17    1
    39    18    19    1
    40    35    36    1
    41    36    37    1
    42    48    49   ar
    43    48    47   ar
    44    49    50   ar
    45    50    46   ar
    46    47    37    2
    47    47    45   ar
    48    37    38    1
    49    46    45   ar
    50    45    44    2
    51    39    38    1
    52    39    43    2
    53    38    40    1
    54    43    42    1
    55    44    40    2
    56    40    41    1
    57    42    41    2
