@<TRIPOS>MOLECULE
2xuu_ADP_A_1.pdb
 27 29 0 0 0
SMALL
GASTEIGER

@<TRIPOS>ATOM
      1  PB        14.5020   -9.7550  -17.2250 P.3   1303  ADP1303     0.5373
      2  O1B       14.5780   -8.2940  -17.6250 O.3   1303  ADP1303    -0.1143
      3  O2B       13.9700  -10.6070  -18.3560 O.2   1303  ADP1303    -0.2221
      4  O3B       13.7700   -9.8690  -15.8390 O.3   1303  ADP1303    -0.1143
      5  PA        16.6020  -11.6180  -16.6530 P.3   1303  ADP1303     0.2231
      6  O1A       15.9230  -12.5970  -17.5840 O.2   1303  ADP1303    -0.5169
      7  O2A       16.5580  -11.7790  -15.1410 O.3   1303  ADP1303    -0.4370
      8  O3A       16.0780  -10.1280  -16.9050 O.3   1303  ADP1303    -0.2261
      9  O5'       18.1930  -11.5420  -17.0600 O.3   1303  ADP1303    -0.3111
     10  C5'       18.5720  -11.5060  -18.4690 C.3   1303  ADP1303     0.1813
     11  C4'       19.3260  -12.7860  -18.8520 C.3   1303  ADP1303     0.1821
     12  O4'       20.5570  -12.7980  -18.0730 O.3   1303  ADP1303    -0.3135
     13  C3'       18.6080  -14.1140  -18.6200 C.3   1303  ADP1303     0.2184
     14  O3'       17.7600  -14.4550  -19.7400 O.3   1303  ADP1303    -0.2174
     15  C2'       19.8590  -15.0170  -18.4540 C.3   1303  ADP1303     0.2570
     16  O2'       20.4370  -15.2050  -19.7960 O.3   1303  ADP1303    -0.2130
     17  C1'       20.8990  -14.1310  -17.7510 C.3   1303  ADP1303     0.3186
     18  N9        20.7890  -14.2990  -16.2650 N.pl3 1303  ADP1303    -0.1439
     19  C8        19.8460  -13.7580  -15.4400 C.3   1303  ADP1303     0.3377
     20  N7        20.0530  -14.1770  -14.1650 N.2   1303  ADP1303    -0.2095
     21  C5        21.1120  -15.0650  -14.2470 C.2   1303  ADP1303     0.2526
     22  C6        21.8480  -15.8630  -13.2600 C.2   1303  ADP1303     0.4393
     23  N6        21.4610  -15.8000  -11.9240 N.pl3 1303  ADP1303     0.2180
     24  N1        22.8670  -16.5940  -13.7380 N.2   1303  ADP1303     0.0021
     25  C2        23.2870  -16.6410  -15.0050 C.3   1303  ADP1303     0.5254
     26  N3        22.6580  -15.9340  -15.9660 N.2   1303  ADP1303    -0.0055
     27  C4        21.5800  -15.1400  -15.6050 C.2   1303  ADP1303     0.3518
@<TRIPOS>BOND
     1    16    15    1
     2    14    13    1
     3    11    13    1
     4    11    10    1
     5    11    12    1
     6    13    15    1
     7    10     9    1
     8    15    17    1
     9     3     1    2
    10    12    17    1
    11    17    18    1
    12     2     1    1
    13     6     5    2
    14     1     8    1
    15     1     4    1
    16     9     5    1
    17     8     5    1
    18     5     7    1
    19    18    27    1
    20    18    19    1
    21    26    27    2
    22    26    25    1
    23    27    21    1
    24    19    20    1
    25    25    24    1
    26    21    20    2
    27    21    22    1
    28    24    22    2
    29    22    23    1
