@<TRIPOS>MOLECULE
2xuy_GDP_Y_1.pdb
 28 30 0 0 0
SMALL
GASTEIGER

@<TRIPOS>ATOM
      1  PB       -12.1200   46.0700  -61.2500 P.3   1691  GDP1691     0.5373
      2  O1B      -11.9500   46.8200  -60.0400 O.3   1691  GDP1691    -0.1143
      3  O2B      -12.6600   46.8300  -62.4200 O.2   1691  GDP1691    -0.2221
      4  O3B      -12.7100   44.7300  -61.0800 O.3   1691  GDP1691    -0.1143
      5  O3A      -10.6600   45.7200  -61.7100 O.3   1691  GDP1691    -0.2261
      6  PA        -9.5900   46.8800  -61.7900 P.3   1691  GDP1691     0.2231
      7  O1A       -9.2300   47.3500  -60.4200 O.3   1691  GDP1691    -0.4370
      8  O2A      -10.1000   47.8700  -62.6500 O.2   1691  GDP1691    -0.5169
      9  O5'       -8.2900   46.2500  -62.4600 O.3   1691  GDP1691    -0.3111
     10  C5'       -8.0500   44.9000  -62.4000 C.3   1691  GDP1691     0.1813
     11  C4'       -6.9300   44.4500  -63.3700 C.3   1691  GDP1691     0.1799
     12  O4'       -7.2200   44.9600  -64.6600 O.3   1691  GDP1691    -0.3326
     13  C3'       -5.5000   44.8200  -63.0200 C.3   1691  GDP1691     0.2158
     14  O3'       -4.6400   43.7600  -63.2300 O.3   1691  GDP1691    -0.2175
     15  C2'       -5.2600   45.9400  -63.9800 C.3   1691  GDP1691     0.2310
     16  O2'       -3.8500   46.0500  -64.1600 O.3   1691  GDP1691    -0.2158
     17  C1'       -5.9200   45.2800  -65.1700 C.3   1691  GDP1691     0.2293
     18  N9        -6.1200   46.1500  -66.3800 N.pl3 1691  GDP1691    -0.2354
     19  C8        -6.9800   47.1400  -66.5500 C.3   1691  GDP1691     0.2246
     20  N7        -6.8300   47.6700  -67.7200 N.2   1691  GDP1691    -0.2322
     21  C5        -5.8600   47.0900  -68.3100 C.2   1691  GDP1691     0.2182
     22  C6        -5.3400   47.3200  -69.5300 C.1   1691  GDP1691     0.2372
     23  O6        -5.8300   48.1500  -70.2800 O.2   1691  GDP1691    -0.2069
     24  N1        -4.1700   46.6800  -69.8900 N.2   1691  GDP1691    -0.2485
     25  C2        -3.6500   45.7300  -68.9900 C.1   1691  GDP1691     0.2531
     26  N2        -2.6000   45.0300  -69.2700 N.pl3 1691  GDP1691    -0.0226
     27  N3        -4.2600   45.5000  -67.8200 N.2   1691  GDP1691    -0.3074
     28  C4        -5.3200   46.1800  -67.4600 C.2   1691  GDP1691     0.2300
@<TRIPOS>BOND
     1    23    22    2
     2    24    22    2
     3    24    25    2
     4    22    21    1
     5    26    25    1
     6    25    27    2
     7    21    20    2
     8    21    28    1
     9    27    28    2
    10    20    19    1
    11    28    18    1
    12    19    18    1
    13    18    17    1
    14    17    12    1
    15    17    15    1
    16    12    11    1
    17    16    15    1
    18    15    13    1
    19    11    13    1
    20    11    10    1
    21    14    13    1
    22     8     6    2
    23     9    10    1
    24     9     6    1
    25     3     1    2
    26     6     5    1
    27     6     7    1
    28     5     1    1
    29     1     4    1
    30     1     2    1
