@<TRIPOS>MOLECULE
2xuy_FUA_Y_1.pdb
 37 40 0 0 0
SMALL
GASTEIGER

@<TRIPOS>ATOM
      1  C1       -17.3000   45.3400  -47.0400 C.3   1690  FUA1690     0.0027
      2  C2       -18.1600   45.2200  -45.7800 C.3   1690  FUA1690     0.0329
      3  C3       -18.0500   46.5200  -45.0000 C.3   1690  FUA1690     0.1519
      4  C4       -18.5400   47.6600  -45.8300 C.3   1690  FUA1690     0.0304
      5  C5       -17.6600   47.7400  -47.0500 C.3   1690  FUA1690     0.0025
      6  C6       -17.8700   49.0300  -47.7800 C.3   1690  FUA1690     0.0001
      7  C7       -17.0100   49.1800  -49.0300 C.3   1690  FUA1690     0.0001
      8  C8       -16.1600   47.9000  -49.2700 C.3   1690  FUA1690     0.0025
      9  C9       -17.0000   46.6200  -49.1700 C.3   1690  FUA1690     0.0304
     10  C10      -17.7800   46.4900  -47.8600 C.3   1690  FUA1690     0.0025
     11  C11      -16.1700   45.3700  -49.4800 C.3   1690  FUA1690     0.1519
     12  C12      -15.5800   45.4000  -50.8800 C.3   1690  FUA1690     0.0330
     13  C13      -14.8100   46.7300  -50.9900 C.3   1690  FUA1690     0.0070
     14  C14      -15.6500   47.9100  -50.6800 C.3   1690  FUA1690     0.0038
     15  C15      -14.6100   48.9700  -50.9800 C.3   1690  FUA1690     0.0436
     16  C16      -14.2300   48.5700  -52.4000 C.3   1690  FUA1690     0.1696
     17  C17      -14.3500   47.0700  -52.4000 C.3   1690  FUA1690     0.0550
     18  C18      -18.3600   48.9200  -45.0200 C.3   1690  FUA1690     0.0026
     19  C19      -19.2200   46.2800  -48.2300 C.3   1690  FUA1690     0.0001
     20  C20      -14.9700   47.8300  -48.3900 C.3   1690  FUA1690     0.0001
     21  C21      -16.8600   48.0200  -51.6500 C.3   1690  FUA1690     0.0001
     22  C22      -13.9900   46.1100  -53.3800 C.3   1690  FUA1690     0.1288
     23  C23      -13.3500   44.9700  -52.9200 C.2   1690  FUA1690    -0.0152
     24  C24      -12.7000   44.1000  -53.7700 C.2   1690  FUA1690    -0.0047
     25  C25      -12.1400   42.9600  -53.2300 C.2   1690  FUA1690    -0.0088
     26  C26      -11.5600   41.9800  -53.9700 C.2   1690  FUA1690    -0.0436
     27  C27      -10.9200   40.7600  -53.2800 C.3   1690  FUA1690     0.0264
     28  C28      -11.6400   41.9500  -55.5000 C.3   1690  FUA1690     0.0264
     29  C29      -14.1900   46.4100  -54.8800 C.2   1690  FUA1690     0.3684
     30  C31      -15.0600   50.4700  -53.4600 C.2   1690  FUA1690     0.3174
     31  C32      -13.9300   51.1000  -52.6100 C.3   1690  FUA1690     0.1212
     32  O1       -15.2200   45.2400  -48.5200 O.3   1690  FUA1690    -0.2232
     33  O2       -15.2800   49.1800  -53.2300 O.3   1690  FUA1690    -0.4522
     34  O3       -15.9100   51.1400  -53.9200 O.2   1690  FUA1690    -0.2501
     35  O4       -14.5200   47.5800  -55.2600 O.co2 1690  FUA1690    -0.2453
     36  O5       -13.9600   45.5400  -55.7300 O.co2 1690  FUA1690    -0.2453
     37  O6       -16.6700   46.6600  -44.7000 O.3   1690  FUA1690    -0.2232
@<TRIPOS>BOND
     1    36    29   ar
     2    28    26    1
     3    35    29   ar
     4    29    22    1
     5    26    27    1
     6    26    25    2
     7    34    30    2
     8    24    25    1
     9    24    23    2
    10    30    33    1
    11    30    31    1
    12    22    23    1
    13    22    17    1
    14    33    16    1
    15    16    17    1
    16    16    15    1
    17    17    13    1
    18    21    14    1
    19    13    12    1
    20    13    14    1
    21    15    14    1
    22    12    11    1
    23    14     8    1
    24    11     9    1
    25    11    32    1
    26     8     9    1
    27     8     7    1
    28     8    20    1
    29     9    10    1
    30     7     6    1
    31    19    10    1
    32    10     5    1
    33    10     1    1
    34     6     5    1
    35     5     4    1
    36     1     2    1
    37     4    18    1
    38     4     3    1
    39     2     3    1
    40     3    37    1
