@<TRIPOS>MOLECULE
2xuz_EB4_A_1.pdb
 48 51 0 0 0
SMALL
GASTEIGER

@<TRIPOS>ATOM
      1  O6        -6.2640  -15.8570   10.7310 O.3   1300  EB41300    -0.2831
      2  O4        -5.3840  -16.7480   13.3240 O.3   1300  EB41300    -0.2831
      3  O5        -8.1890  -16.5500   12.7760 O.3   1300  EB41300    -0.2831
      4  N1        -4.0910  -21.3350   11.8160 N.am  1300  EB41300    -0.1879
      5  C5        -9.2690  -17.3290   13.0480 C.ar  1300  EB41300     0.2344
      6  C4        -4.2840  -17.5070   13.5710 C.ar  1300  EB41300     0.2344
      7  C1        -4.2290  -18.7610   12.9770 C.ar  1300  EB41300     0.2386
      8  C2        -9.1230  -18.6930   12.8010 C.ar  1300  EB41300     0.2386
      9  C6        -6.3860  -16.1120    9.3920 C.ar  1300  EB41300     0.2344
     10  C8       -10.4740  -16.8250   13.5370 C.ar  1300  EB41300     0.0454
     11  N2        -8.9270  -21.4460   12.1840 N.am  1300  EB41300    -0.1879
     12  C9        -6.2370  -15.1160    8.4390 C.ar  1300  EB41300     0.0454
     13  C10       -2.1690  -17.9190   14.5930 C.ar  1300  EB41300     0.0036
     14  O3        -6.8290  -18.3630    9.9370 O.3   1300  EB41300    -0.2830
     15  N3        -6.8650  -20.1170    8.0650 N.am  1300  EB41300    -0.1879
     16  C16       -3.1470  -19.6260   13.1580 C.ar  1300  EB41300     0.0971
     17  C7        -3.2540  -17.0810   14.3870 C.ar  1300  EB41300     0.0454
     18  C3        -6.6750  -17.4180    8.9890 C.ar  1300  EB41300     0.2386
     19  C11      -11.5220  -17.7130   13.7800 C.ar  1300  EB41300     0.0036
     20  O1        -5.2730  -19.1240   12.1770 O.3   1300  EB41300    -0.2830
     21  O2        -7.9270  -19.1390   12.3340 O.3   1300  EB41300    -0.2830
     22  C12       -6.3700  -15.4510    7.0980 C.ar  1300  EB41300     0.0036
     23  C15       -6.6500  -16.7630    6.7080 C.ar  1300  EB41300     0.0080
     24  C14      -11.3590  -19.0800   13.5370 C.ar  1300  EB41300     0.0080
     25  C13       -2.1220  -19.1820   13.9920 C.ar  1300  EB41300     0.0080
     26  O7        -2.1550  -21.6940   12.9310 O.2   1300  EB41300    -0.2682
     27  C19       -3.0660  -20.9260   12.6000 C.2   1300  EB41300     0.2686
     28  C22       -4.1190  -22.7020   11.2620 C.3   1300  EB41300     0.2370
     29  C25       -4.2570  -22.6300    9.8770 C.2   1300  EB41300     0.3409
     30  O10       -3.2970  -22.8640    9.1410 O.2   1300  EB41300    -0.2481
     31  O15       -5.4680  -22.2240    9.4390 O.3   1300  EB41300    -0.4447
     32  C30       -5.5640  -22.1270    8.0170 C.3   1300  EB41300     0.2414
     33  C24       -6.9370  -21.5510    7.6830 C.3   1300  EB41300     0.2370
     34  C21       -7.0720  -19.0910    7.1900 C.2   1300  EB41300     0.2686
     35  C18       -6.8190  -17.7830    7.6480 C.ar  1300  EB41300     0.0971
     36  O9        -7.3560  -19.2660    6.0020 O.2   1300  EB41300    -0.2682
     37  C27       -7.9020  -22.3470    8.3420 C.2   1300  EB41300     0.3409
     38  O12       -8.0490  -23.5170    7.9830 O.2   1300  EB41300    -0.2481
     39  C28       -5.2470  -23.5150   11.9260 C.3   1300  EB41300     0.2414
     40  O13       -6.4940  -22.7430   11.9820 O.3   1300  EB41300    -0.4447
     41  C26       -7.6000  -23.4640   11.6160 C.2   1300  EB41300     0.3409
     42  O11       -7.5410  -24.6390   11.2590 O.2   1300  EB41300    -0.2481
     43  C23       -8.8630  -22.8300   11.6490 C.3   1300  EB41300     0.2370
     44  C29       -9.4130  -22.7340   10.1960 C.3   1300  EB41300     0.2414
     45  O14       -8.5950  -21.7940    9.3830 O.3   1300  EB41300    -0.4447
     46  C20      -10.0560  -20.9750   12.7770 C.2   1300  EB41300     0.2686
     47  O8       -11.0670  -21.6680   12.9200 O.2   1300  EB41300    -0.2682
     48  C17      -10.1450  -19.6060   13.0610 C.ar  1300  EB41300     0.0971
@<TRIPOS>BOND
     1    36    34    2
     2    23    22   ar
     3    23    35   ar
     4    22    12   ar
     5    34    35    1
     6    34    15   am
     7    35    18   ar
     8    33    32    1
     9    33    15    1
    10    33    37    1
    11    38    37    2
    12    32    31    1
    13    37    45    1
    14    12     9   ar
    15    18     9   ar
    16    18    14    1
    17    30    29    2
    18    45    44    1
    19     9     1    1
    20    31    29    1
    21    29    28    1
    22    44    43    1
    23    42    41    2
    24    28     4    1
    25    28    39    1
    26    41    43    1
    27    41    40    1
    28    43    11    1
    29     4    27   am
    30    39    40    1
    31    20     7    1
    32    11    46   am
    33    21     8    1
    34    27    26    2
    35    27    16    1
    36     3     5    1
    37    46    47    2
    38    46    48    1
    39     8     5   ar
    40     8    48   ar
    41     7    16   ar
    42     7     6   ar
    43     5    10   ar
    44    48    24   ar
    45    16    25   ar
    46     2     6    1
    47    24    19   ar
    48    10    19   ar
    49     6    17   ar
    50    25    13   ar
    51    17    13   ar
