@<TRIPOS>MOLECULE
2xv1_ECA_A_1.pdb
 42 45 0 0 0
SMALL
GASTEIGER

@<TRIPOS>ATOM
      1  O20       16.0540   16.1350   11.7830 O.3   1301  ECA1301    -0.2831
      2  C17       17.0790   16.8550   12.3020 C.ar  1301  ECA1301     0.2344
      3  C18       17.0530   18.2410   12.1670 C.ar  1301  ECA1301     0.2386
      4  O19       15.9930   18.7640   11.5070 O.3   1301  ECA1301    -0.2830
      5  C16       18.1270   16.2270   12.9780 C.ar  1301  ECA1301     0.0454
      6  C15       19.1510   17.0050   13.5060 C.ar  1301  ECA1301     0.0036
      7  C14       19.1290   18.3920   13.3560 C.ar  1301  ECA1301     0.0080
      8  C13       18.0750   19.0360   12.7040 C.ar  1301  ECA1301     0.0971
      9  C11       18.1430   20.5900   12.5540 C.2   1301  ECA1301     0.2683
     10  O12       19.0450   21.2150   13.1040 O.2   1301  ECA1301    -0.2682
     11  N10       17.2360   21.1480   11.7470 N.am  1301  ECA1301    -0.1967
     12  C9        17.1150   22.5780   11.3210 C.3   1301  ECA1301     0.1418
     13  C2        16.2010   22.3560   10.1230 C.ar  1301  ECA1301    -0.0011
     14  C1        14.8290   22.5370   10.2420 C.ar  1301  ECA1301    -0.0051
     15  C3        16.7440   21.8520    8.9380 C.ar  1301  ECA1301    -0.0051
     16  C4        15.9120   21.5900    7.8510 C.ar  1301  ECA1301    -0.0011
     17  C8        16.5100   20.9980    6.5720 C.3   1301  ECA1301     0.1418
     18  N21       16.1920   19.5660    6.8180 N.am  1301  ECA1301    -0.1967
     19  C22       16.2070   18.5660    5.9300 C.2   1301  ECA1301     0.2683
     20  O23       16.5420   18.6910    4.7500 O.2   1301  ECA1301    -0.2682
     21  C24       15.7290   17.1870    6.4710 C.ar  1301  ECA1301     0.0971
     22  C25       15.7580   16.0870    5.6120 C.ar  1301  ECA1301     0.0080
     23  C26       15.3370   14.8310    6.0430 C.ar  1301  ECA1301     0.0036
     24  C27       14.8580   14.6560    7.3400 C.ar  1301  ECA1301     0.0454
     25  C28       14.8100   15.7390    8.2100 C.ar  1301  ECA1301     0.2344
     26  O31       14.3490   15.5820    9.4930 O.3   1301  ECA1301    -0.2831
     27  C29       15.2440   16.9870    7.7790 C.ar  1301  ECA1301     0.2386
     28  O30       15.1830   18.0020    8.6720 O.3   1301  ECA1301    -0.2830
     29  C5        14.5300   21.7680    7.9620 C.ar  1301  ECA1301    -0.0051
     30  C6        13.9970   22.2770    9.1520 C.ar  1301  ECA1301    -0.0011
     31  C7        12.4860   22.4320    9.3290 C.3   1301  ECA1301     0.1418
     32  N32       12.1900   21.1290   10.0200 N.am  1301  ECA1301    -0.1967
     33  C33       11.1180   20.8500   10.7790 C.2   1301  ECA1301     0.2683
     34  O34       10.1940   21.6450   10.9770 O.2   1301  ECA1301    -0.2682
     35  C35       11.0850   19.4460   11.4560 C.ar  1301  ECA1301     0.0971
     36  C36        9.9180   19.0730   12.1350 C.ar  1301  ECA1301     0.0080
     37  C37        9.8200   17.8330   12.7760 C.ar  1301  ECA1301     0.0036
     38  C38       10.9000   16.9490   12.7650 C.ar  1301  ECA1301     0.0454
     39  C39       12.0710   17.3130   12.1040 C.ar  1301  ECA1301     0.2344
     40  O42       13.1520   16.4850   12.0820 O.3   1301  ECA1301    -0.2831
     41  C40       12.1690   18.5450   11.4630 C.ar  1301  ECA1301     0.2386
     42  O41       13.3500   18.8030   10.8460 O.3   1301  ECA1301    -0.2830
@<TRIPOS>BOND
     1    20    19    2
     2    22    23   ar
     3    22    21   ar
     4    19    21    1
     5    19    18   am
     6    23    24   ar
     7    21    27   ar
     8    17    18    1
     9    17    16    1
    10    24    25   ar
    11    27    25   ar
    12    27    28    1
    13    16    29   ar
    14    16    15   ar
    15    29    30   ar
    16    25    26    1
    17    15    13   ar
    18    30    31    1
    19    30    14   ar
    20    31    32    1
    21    32    33   am
    22    13    14   ar
    23    13    12    1
    24    33    34    2
    25    33    35    1
    26    42    41    1
    27    12    11    1
    28    35    41   ar
    29    35    36   ar
    30    41    39   ar
    31     4     3    1
    32    11     9   am
    33     1     2    1
    34    40    39    1
    35    39    38   ar
    36    36    37   ar
    37     3     2   ar
    38     3     8   ar
    39     2     5   ar
    40     9     8    1
    41     9    10    2
    42     8     7   ar
    43    38    37   ar
    44     5     6   ar
    45     7     6   ar
