@<TRIPOS>MOLECULE
2xv7_MAN_A_1.pdb
 11 11 0 0 0
SMALL
GASTEIGER

@<TRIPOS>ATOM
      1  C1       -33.0460  -10.6330   -4.5520 C.3   404  MAN404      0.1777
      2  C2       -32.6260  -11.8640   -5.3480 C.3   404  MAN404      0.2141
      3  C3       -31.1330  -11.8390   -5.6680 C.3   404  MAN404      0.2173
      4  C4       -30.7370  -10.5000   -6.2520 C.3   404  MAN404      0.2142
      5  C5       -31.2420   -9.3690   -5.3710 C.3   404  MAN404      0.1810
      6  C6       -31.0070   -8.0560   -6.0820 C.3   404  MAN404      0.2141
      7  O2       -33.3830  -11.9280   -6.5370 O.3   404  MAN404     -0.2176
      8  O3       -30.8320  -12.8100   -6.6340 O.3   404  MAN404     -0.2175
      9  O4       -29.3340  -10.4540   -6.3790 O.3   404  MAN404     -0.2176
     10  O5       -32.6390   -9.4620   -5.2140 O.3   404  MAN404     -0.3481
     11  O6       -32.1390   -7.8320   -6.8890 O.3   404  MAN404     -0.2176
@<TRIPOS>BOND
     1    11     6    1
     2     8     3    1
     3     7     2    1
     4     9     4    1
     5     4     3    1
     6     4     5    1
     7     6     5    1
     8     3     2    1
     9     5    10    1
    10     2     1    1
    11    10     1    1
