@<TRIPOS>MOLECULE
2xva_SFG_A_1.pdb
 27 29 0 0 0
SMALL
GASTEIGER

@<TRIPOS>ATOM
      1  N        -14.9850  -14.2280  -20.4920 N.3   1198  SFG1198    -0.1208
      2  CA       -16.1730  -14.7660  -19.8470 C.3   1198  SFG1198     0.1944
      3  C        -15.9720  -14.7810  -18.3400 C.2   1198  SFG1198     0.3819
      4  O        -16.9910  -14.8910  -17.5910 O.co2 1198  SFG1198    -0.2441
      5  OXT      -14.7850  -14.6930  -17.8660 O.co2 1198  SFG1198    -0.2441
      6  CB       -16.3720  -16.1880  -20.3850 C.3   1198  SFG1198     0.0321
      7  CG       -17.8380  -16.5930  -20.5070 C.3   1198  SFG1198     0.0212
      8  CD       -18.1040  -18.0580  -20.9660 C.3   1198  SFG1198     0.0944
      9  NE       -17.4730  -19.0160  -20.1210 N.3   1198  SFG1198    -0.1328
     10  C5'      -17.5400  -18.3780  -22.3540 C.3   1198  SFG1198     0.0514
     11  C4'      -18.0890  -17.4090  -23.3910 C.3   1198  SFG1198     0.1537
     12  O4'      -17.4990  -17.6600  -24.6720 O.3   1198  SFG1198    -0.3161
     13  C3'      -19.5880  -17.5820  -23.5780 C.3   1198  SFG1198     0.2159
     14  O3'      -20.2090  -16.3310  -23.2590 O.3   1198  SFG1198    -0.2175
     15  C2'      -19.7510  -17.9020  -25.0630 C.3   1198  SFG1198     0.2569
     16  O2'      -20.8820  -17.2610  -25.6660 O.3   1198  SFG1198    -0.2130
     17  C1'      -18.4720  -17.3590  -25.6620 C.3   1198  SFG1198     0.3185
     18  N9       -18.2300  -17.9690  -26.9850 N.pl3 1198  SFG1198    -0.1439
     19  C8       -18.2050  -19.2830  -27.2800 C.3   1198  SFG1198     0.3377
     20  N7       -17.9880  -19.4330  -28.6130 N.2   1198  SFG1198    -0.2095
     21  C5       -17.8870  -18.1980  -29.1510 C.2   1198  SFG1198     0.2526
     22  C6       -17.6670  -17.7470  -30.4380 C.2   1198  SFG1198     0.4393
     23  N6       -17.5190  -18.6210  -31.4780 N.pl3 1198  SFG1198     0.2180
     24  N1       -17.6130  -16.4250  -30.6500 N.2   1198  SFG1198     0.0021
     25  C2       -17.7810  -15.5300  -29.6440 C.3   1198  SFG1198     0.5254
     26  N3       -18.0080  -15.9340  -28.3870 N.2   1198  SFG1198    -0.0055
     27  C4       -18.0400  -17.2700  -28.1190 C.2   1198  SFG1198     0.3518
@<TRIPOS>BOND
     1    23    22    1
     2    24    22    2
     3    24    25    1
     4    22    21    1
     5    25    26    1
     6    21    20    2
     7    21    27    1
     8    20    19    1
     9    26    27    2
    10    27    18    1
    11    19    18    1
    12    18    17    1
    13    16    15    1
    14    17    15    1
    15    17    12    1
    16    15    13    1
    17    12    11    1
    18    13    11    1
    19    13    14    1
    20    11    10    1
    21    10     8    1
    22     8     7    1
    23     8     9    1
    24     7     6    1
    25     1     2    1
    26     6     2    1
    27     2     3    1
    28     3     5   ar
    29     3     4   ar
