@<TRIPOS>MOLECULE
2xvd_AS6_A_1.pdb
 36 39 0 0 0
SMALL
GASTEIGER

@<TRIPOS>ATOM
      1  C1         9.4220    5.6620   10.0960 C.3   1889  AS61889     0.0219
      2  C2         9.3460    5.6460   11.6120 C.3   1889  AS61889     0.0796
      3  C3         7.8960    5.6550   12.0780 C.3   1889  AS61889     0.0219
      4  N1        10.1490    4.5810   12.2350 N.pl3 1889  AS61889    -0.2639
      5  C4        11.5570    4.7790   12.2250 C.2   1889  AS61889     0.2014
      6  C5        12.3610    3.6850   12.5100 C.2   1889  AS61889     0.0705
      7  C6        13.7070    3.8980   12.5000 C.2   1889  AS61889     0.1158
      8  N2        14.2340    5.1050   12.2260 N.2   1889  AS61889    -0.1683
      9  C7        13.3990    6.1120   11.9600 C.1   1889  AS61889     0.1709
     10  N3        14.0050    7.3550   11.6870 N.pl3 1889  AS61889    -0.1356
     11  C8        13.3490    8.5200   11.2320 C.ar  1889  AS61889     0.0851
     12  C9        14.0770    9.6960   11.2580 C.ar  1889  AS61889     0.0319
     13  C10       13.5360   10.8980   10.8320 C.ar  1889  AS61889     0.0506
     14  C11       12.2370   10.9080   10.3720 C.ar  1889  AS61889     0.0329
     15  C12       11.5080    9.7430   10.3410 C.ar  1889  AS61889     0.1083
     16  C13       12.0410    8.5380   10.7630 C.ar  1889  AS61889     0.0358
     17  S1         9.8340    9.8680    9.7150 S.O2  1889  AS61889     0.0105
     18  O1         9.5170   11.2920    9.6360 O.2   1889  AS61889    -0.1686
     19  O2         9.8070    9.0460    8.5010 O.2   1889  AS61889    -0.1686
     20  C14        8.8000    9.1190   10.9360 C.3   1889  AS61889     0.1816
     21  N4        14.2400   12.1100   10.8490 N.pl3 1889  AS61889    -0.3027
     22  C15       15.6390   11.9890   11.1620 C.3   1889  AS61889     0.1231
     23  C16       16.1790   13.3930   11.3150 C.3   1889  AS61889     0.1636
     24  O3        15.8920   14.1100   10.1080 O.3   1889  AS61889    -0.3501
     25  C17       14.4760   14.2820    9.9660 C.3   1889  AS61889     0.1636
     26  C18       13.9010   12.9190    9.6850 C.3   1889  AS61889     0.1231
     27  N5        12.0610    5.9950   11.9470 N.2   1889  AS61889    -0.3204
     28  C19        9.5240    3.3320   12.4340 C.ar  1889  AS61889     0.0493
     29  C20        9.1100    2.5870   11.3410 C.ar  1889  AS61889     0.0128
     30  C21        8.4860    1.3680   11.5030 C.ar  1889  AS61889     0.0118
     31  C22        8.0420    0.6170   10.2800 C.3   1889  AS61889     0.2086
     32  O4         8.6610   -0.6650   10.2410 O.3   1889  AS61889    -0.2152
     33  C23        8.2720    0.8710   12.7730 C.ar  1889  AS61889    -0.0020
     34  C24        8.6910    1.5920   13.8680 C.ar  1889  AS61889    -0.0033
     35  C25        9.3110    2.8190   13.7070 C.ar  1889  AS61889    -0.0082
     36  C26        9.7380    3.5730   14.9230 C.3   1889  AS61889     0.0323
@<TRIPOS>BOND
     1    19    17    2
     2    18    17    2
     3    26    25    1
     4    26    21    1
     5    17    15    1
     6    17    20    1
     7    25    24    1
     8     1     2    1
     9    24    23    1
    10    32    31    1
    11    31    30    1
    12    15    14   ar
    13    15    16   ar
    14    14    13   ar
    15    16    11   ar
    16    13    21    1
    17    13    12   ar
    18    21    22    1
    19    22    23    1
    20    11    12   ar
    21    11    10    1
    22    29    30   ar
    23    29    28   ar
    24    30    33   ar
    25     2     3    1
    26     2     4    1
    27    10     9    1
    28    27     9    2
    29    27     5    2
    30     9     8    2
    31     5     4    1
    32     5     6    1
    33     8     7    1
    34     4    28    1
    35    28    35   ar
    36     7     6    2
    37    33    34   ar
    38    35    34   ar
    39    35    36    1
