@<TRIPOS>MOLECULE
2xvh_NAP_A_1.pdb
 48 52 0 0 0
SMALL
GASTEIGER

@<TRIPOS>ATOM
      1  PA        33.2390   36.4030  -34.3320 P.3   1449  NAP1449     0.2189
      2  O1A       34.6690   36.0240  -34.4820 O.2   1449  NAP1449    -0.5170
      3  O2A       32.5230   35.4470  -33.4450 O.3   1449  NAP1449    -0.4371
      4  O5B       33.1430   37.9090  -33.7690 O.3   1449  NAP1449    -0.3112
      5  C5B       31.9110   38.5000  -33.4470 C.3   1449  NAP1449     0.1813
      6  C4B       32.1260   39.9480  -33.0140 C.3   1449  NAP1449     0.1820
      7  O4B       30.8770   40.5560  -32.7350 O.3   1449  NAP1449    -0.3136
      8  C3B       32.9750   40.0670  -31.7530 C.3   1449  NAP1449     0.2157
      9  O3B       33.9910   41.0210  -31.9760 O.3   1449  NAP1449    -0.2175
     10  C2B       32.0260   40.5770  -30.6900 C.3   1449  NAP1449     0.2314
     11  O2B       32.6590   41.5020  -29.8340 O.3   1449  NAP1449    -0.2630
     12  C1B       30.9680   41.2780  -31.5210 C.3   1449  NAP1449     0.3158
     13  N9A       29.6900   41.4400  -30.7910 N.pl3 1449  NAP1449    -0.1439
     14  C8A       28.8600   40.4590  -30.3140 C.3   1449  NAP1449     0.3377
     15  N7A       27.8050   41.0560  -29.7120 N.2   1449  NAP1449    -0.2095
     16  C5A       27.9520   42.4000  -29.7950 C.2   1449  NAP1449     0.2526
     17  C6A       27.1790   43.4740  -29.3480 C.2   1449  NAP1449     0.4393
     18  N6A       26.0370   43.2670  -28.6890 N.pl3 1449  NAP1449     0.2180
     19  N1A       27.6080   44.7660  -29.6000 N.2   1449  NAP1449     0.0021
     20  C2A       28.7930   44.9980  -30.2730 C.3   1449  NAP1449     0.5254
     21  N3A       29.5470   43.9270  -30.7080 N.2   1449  NAP1449    -0.0055
     22  C4A       29.1340   42.6540  -30.4730 C.2   1449  NAP1449     0.3518
     23  O3        32.5610   36.4790  -35.7940 O.3   1449  NAP1449    -0.2703
     24  PN        33.0980   37.0490  -37.2060 P.3   1449  NAP1449     0.2189
     25  O1N       33.9330   38.2500  -36.9440 O.3   1449  NAP1449    -0.4371
     26  O2N       31.9370   37.1470  -38.1300 O.2   1449  NAP1449    -0.5170
     27  O5D       34.0430   35.8510  -37.7310 O.3   1449  NAP1449    -0.3112
     28  C5D       33.5610   34.5230  -37.7850 C.3   1449  NAP1449     0.1813
     29  C4D       34.3050   33.6800  -38.8230 C.3   1449  NAP1449     0.1799
     30  O4D       34.0950   34.2290  -40.1100 O.3   1449  NAP1449    -0.3327
     31  C3D       35.8130   33.6160  -38.5860 C.3   1449  NAP1449     0.2158
     32  O3D       36.2860   32.3010  -38.7650 O.3   1449  NAP1449    -0.2175
     33  C2D       36.3920   34.5020  -39.6660 C.3   1449  NAP1449     0.2309
     34  O2D       37.6390   34.0320  -40.1120 O.3   1449  NAP1449    -0.2158
     35  C1D       35.3400   34.4270  -40.7570 C.3   1449  NAP1449     0.2263
     36  N1N       35.3600   35.6200  -41.6330 N.pl3 1449  NAP1449    -0.2787
     37  C2N       36.3370   35.6660  -42.6010 C.3   1449  NAP1449     0.1244
     38  C3N       36.4410   36.7220  -43.4930 C.2   1449  NAP1449     0.0544
     39  C7N       37.4480   36.6450  -44.6210 C.2   1449  NAP1449     0.2818
     40  O7N       38.0180   37.8230  -45.1360 O.2   1449  NAP1449    -0.2670
     41  N7N       37.8100   35.4630  -45.1230 N.am  1449  NAP1449    -0.0839
     42  C4N       35.5220   37.7660  -43.3750 C.2   1449  NAP1449     0.0033
     43  C5N       34.5230   37.7260  -42.3940 C.2   1449  NAP1449     0.0157
     44  C6N       34.4430   36.6420  -41.5180 C.2   1449  NAP1449     0.0633
     45  P2B       33.2680   41.0640  -28.4060 P.3   1449  NAP1449     0.5328
     46  O1X       34.7770   41.1710  -28.4650 O.2   1449  NAP1449    -0.2224
     47  O2X       32.6600   41.9850  -27.3780 O.3   1449  NAP1449    -0.1145
     48  O3X       32.9270   39.6320  -28.0680 O.3   1449  NAP1449    -0.1145
@<TRIPOS>BOND
     1    40    39    2
     2    41    39   am
     3    39    38    1
     4    38    42    2
     5    38    37    1
     6    42    43    1
     7    37    36    1
     8    43    44    2
     9    36    44    1
    10    36    35    1
    11    35    30    1
    12    35    33    1
    13    34    33    1
    14    30    29    1
    15    33    31    1
    16    29    31    1
    17    29    28    1
    18    32    31    1
    19    26    24    2
    20    28    27    1
    21    27    24    1
    22    24    25    1
    23    24    23    1
    24    23     1    1
    25     2     1    2
    26     1     4    1
    27     1     3    1
    28     4     5    1
    29     5     6    1
    30     6     7    1
    31     6     8    1
    32     7    12    1
    33     9     8    1
    34     8    10    1
    35    12    13    1
    36    12    10    1
    37    13    22    1
    38    13    14    1
    39    21    22    2
    40    21    20    1
    41    10    11    1
    42    22    16    1
    43    14    15    1
    44    20    19    1
    45    11    45    1
    46    16    15    2
    47    16    17    1
    48    19    17    2
    49    17    18    1
    50    46    45    2
    51    45    48    1
    52    45    47    1
