@<TRIPOS>MOLECULE
2xvk_FFX_A_1.pdb
 10 10 0 0 0
SMALL
GASTEIGER

@<TRIPOS>ATOM
      1  C5        30.7530   95.8240   43.7230 C.3   1994  FFX1994     0.3118
      2  C4        30.2400   95.9020   42.2780 C.3   1994  FFX1994     0.2458
      3  C3        31.2570   96.5540   41.3540 C.3   1994  FFX1994     0.2201
      4  C2        32.5120   95.6820   41.3080 C.3   1994  FFX1994     0.2143
      5  C1        32.8230   95.0880   42.6920 C.3   1994  FFX1994     0.1806
      6  O4        29.0310   96.6540   42.1880 O.3   1994  FFX1994    -0.2145
      7  O3        30.6460   96.6910   40.0670 O.3   1994  FFX1994    -0.2174
      8  O2        33.6390   96.4260   40.8210 O.3   1994  FFX1994    -0.2176
      9  O5        32.1950   95.8290   43.7560 O.3   1994  FFX1994    -0.3220
     10  F5        30.2740   94.6690   44.3060 F     1994  FFX1994    -0.2011
@<TRIPOS>BOND
     1     7     3    1
     2     8     4    1
     3     4     3    1
     4     4     5    1
     5     3     2    1
     6     6     2    1
     7     2     1    1
     8     5     9    1
     9     1     9    1
    10     1    10    1
