@<TRIPOS>MOLECULE
2xvl_PXN_A_1.pdb
 25 24 0 0 0
SMALL
GASTEIGER

@<TRIPOS>ATOM
      1  CAA       29.3560  106.7090   50.0100 C.3   2001  PXN2001     0.0382
      2  CAB       31.2980   98.2000   46.6760 C.3   2001  PXN2001     0.0382
      3  CAC       31.8960  103.4610   47.5200 C.3   2001  PXN2001     0.1494
      4  OAD       31.9610  104.3050   48.6640 O.3   2001  PXN2001    -0.3508
      5  CAE       30.6890  104.9550   48.7870 C.3   2001  PXN2001     0.1748
      6  CAF       30.6780  105.9390   49.9570 C.3   2001  PXN2001     0.1815
      7  OAG       30.9320  105.2430   51.1800 O.3   2001  PXN2001    -0.2205
      8  OAH       30.7550   98.0520   44.2600 O.3   2001  PXN2001    -0.2205
      9  CAI       30.7970   98.9250   45.4110 C.3   2001  PXN2001     0.1815
     10  CAJ       31.6920  100.1140   45.0670 C.3   2001  PXN2001     0.1748
     11  OAK       31.8030  100.9910   46.1810 O.3   2001  PXN2001    -0.3508
     12  CAL       32.8110  101.9490   45.8270 C.3   2001  PXN2001     0.1494
     13  CAM       33.1660  102.7100   47.0880 C.3   2001  PXN2001     0.1092
     14  CAN       34.3570  103.5970   46.8810 C.3   2001  PXN2001     0.1494
     15  OAO       34.7180  104.2260   48.1330 O.3   2001  PXN2001    -0.3508
     16  CAP       35.9470  104.9250   47.8840 C.3   2001  PXN2001     0.1748
     17  CAQ       36.5320  105.6660   49.0790 C.3   2001  PXN2001     0.1815
     18  OAR       36.8030  104.7340   50.1260 O.3   2001  PXN2001    -0.2205
     19  OAS       36.2150   98.8950   45.0180 O.3   2001  PXN2001    -0.2205
     20  CAT       36.3020   99.8930   46.0680 C.3   2001  PXN2001     0.1815
     21  CAU       34.9130  100.2470   46.5780 C.3   2001  PXN2001     0.1748
     22  OAV       35.0100  101.1980   47.6530 O.3   2001  PXN2001    -0.3508
     23  CAW       33.7530  101.7870   48.1520 C.3   2001  PXN2001     0.1494
     24  CAX       35.5780  106.7750   49.5210 C.3   2001  PXN2001     0.0382
     25  CAY       37.2150   99.5190   47.2300 C.3   2001  PXN2001     0.0382
@<TRIPOS>BOND
     1     8     9    1
     2    19    20    1
     3    10     9    1
     4    10    11    1
     5     9     2    1
     6    12    11    1
     7    12    13    1
     8    20    21    1
     9    20    25    1
    10    21    22    1
    11    14    13    1
    12    14    15    1
    13    13     3    1
    14    13    23    1
    15     3     4    1
    16    22    23    1
    17    16    15    1
    18    16    17    1
    19     4     5    1
    20     5     6    1
    21    17    24    1
    22    17    18    1
    23     6     1    1
    24     6     7    1
