@<TRIPOS>MOLECULE
2xvm_SAH_A_1.pdb
 26 28 0 0 0
SMALL
GASTEIGER

@<TRIPOS>ATOM
      1  N        -10.7270  -12.3920  -11.7750 N.3   1198  SAH1198    -0.1208
      2  CA       -11.6410  -12.2570  -10.5950 C.3   1198  SAH1198     0.1952
      3  CB       -11.1660  -11.1330   -9.6440 C.3   1198  SAH1198     0.0422
      4  CG       -11.1690   -9.7240  -10.2250 C.3   1198  SAH1198     0.0597
      5  SD       -10.7790   -8.5630   -8.9000 S.3   1198  SAH1198    -0.1375
      6  C        -13.0550  -11.9820  -11.0850 C.2   1198  SAH1198     0.3819
      7  O        -13.2890  -11.8940  -12.3160 O.co2 1198  SAH1198    -0.2441
      8  OXT      -13.9860  -11.8650  -10.2530 O.co2 1198  SAH1198    -0.2441
      9  C5'       -8.9960   -8.3390   -9.0560 C.3   1198  SAH1198     0.0899
     10  C4'       -8.2180   -9.4860   -8.4230 C.3   1198  SAH1198     0.1630
     11  O4'       -6.8350   -9.2390   -8.7550 O.3   1198  SAH1198    -0.3153
     12  C3'       -8.3260   -9.5440   -6.8520 C.3   1198  SAH1198     0.2168
     13  O3'       -8.6410  -10.8560   -6.4480 O.3   1198  SAH1198    -0.2175
     14  C2'       -6.8720   -9.1510   -6.5210 C.3   1198  SAH1198     0.2569
     15  O2'       -6.4050   -9.5320   -5.2800 O.3   1198  SAH1198    -0.2130
     16  C1'       -6.0470   -9.6840   -7.7110 C.3   1198  SAH1198     0.3185
     17  N9        -4.7150   -9.0940   -7.7610 N.pl3 1198  SAH1198    -0.1439
     18  C8        -4.4380   -7.7570   -7.7960 C.3   1198  SAH1198     0.3377
     19  N7        -3.0870   -7.5630   -7.8290 N.2   1198  SAH1198    -0.2095
     20  C5        -2.5160   -8.7730   -7.8280 C.2   1198  SAH1198     0.2526
     21  C6        -1.1630   -9.2620   -7.7710 C.2   1198  SAH1198     0.4393
     22  N6        -0.1240   -8.4010   -7.7640 N.pl3 1198  SAH1198     0.2180
     23  N1        -1.0470  -10.6310   -7.7980 N.2   1198  SAH1198     0.0021
     24  C2        -2.0800  -11.5170   -7.7670 C.3   1198  SAH1198     0.5254
     25  N3        -3.3780  -11.1330   -7.7670 N.2   1198  SAH1198    -0.0055
     26  C4        -3.5860   -9.7740   -7.7830 C.2   1198  SAH1198     0.3518
@<TRIPOS>BOND
     1     7     6   ar
     2     1     2    1
     3     6     2    1
     4     6     8   ar
     5     2     3    1
     6     4     3    1
     7     4     5    1
     8     9     5    1
     9     9    10    1
    10    11    10    1
    11    11    16    1
    12    10    12    1
    13    19    20    2
    14    19    18    1
    15    20    26    1
    16    20    21    1
    17    23    21    2
    18    23    24    1
    19    18    17    1
    20    26    25    2
    21    26    17    1
    22    21    22    1
    23    24    25    1
    24    17    16    1
    25    16    14    1
    26    12    14    1
    27    12    13    1
    28    14    15    1
