@<TRIPOS>MOLECULE
2xvn_KLS_A_1.pdb
 14 14 0 0 0
SMALL
GASTEIGER

@<TRIPOS>ATOM
      1  CAM       -9.9650    8.9660   -2.4890 C.3   1338  KLS1338     0.1418
      2  NAL      -10.2150   10.0720   -3.4240 N.am  1338  KLS1338    -0.1697
      3  CAK      -11.4230   10.6300   -3.4270 C.2   1338  KLS1338     0.4188
      4  OAJ      -12.3240   10.1990   -2.7360 O.2   1338  KLS1338    -0.2284
      5  NAN      -11.6740   11.5840   -4.3560 N.am  1338  KLS1338     0.0244
      6  CAB      -12.7550   12.3330   -4.6200 C.2   1338  KLS1338     0.4985
      7  NAA      -13.8830   12.2440   -3.9360 N.pl3 1338  KLS1338     0.1302
      8  NAC      -12.6200   13.2490   -5.5940 N.pl3 1338  KLS1338    -0.0650
      9  CAD      -13.6170   14.0750   -6.0020 C.ar  1338  KLS1338     0.1589
     10  CAE      -13.9210   14.1490   -7.3650 C.ar  1338  KLS1338     0.0371
     11  CAF      -14.9490   14.9780   -7.8010 C.ar  1338  KLS1338     0.0030
     12  CAG      -15.6630   15.7430   -6.8780 C.ar  1338  KLS1338     0.0002
     13  CAH      -15.3670   15.6780   -5.5260 C.ar  1338  KLS1338     0.0030
     14  CAI      -14.3370   14.8530   -5.0990 C.ar  1338  KLS1338     0.0371
@<TRIPOS>BOND
     1    11    10   ar
     2    11    12   ar
     3    10     9   ar
     4    12    13   ar
     5     9     8    1
     6     9    14   ar
     7     8     6    1
     8    13    14   ar
     9     6     5    1
    10     6     7    2
    11     5     3   am
    12     3     2   am
    13     3     4    2
    14     2     1    1
