@<TRIPOS>MOLECULE
2xvq_9DS_A_1.pdb
 22 23 0 0 0
SMALL
GASTEIGER

@<TRIPOS>ATOM
      1  N          6.4210    2.5740  -17.4710 N.3   2001  9DS2001    -0.1425
      2  CA         6.4710    1.6900  -18.6130 C.3   2001  9DS2001     0.2093
      3  C          5.3660    2.1200  -19.5520 C.2   2001  9DS2001     0.3826
      4  O          4.7220    3.1420  -19.3240 O.co2 2001  9DS2001    -0.2440
      5  OXT        5.1590    1.2890  -20.5580 O.co2 2001  9DS2001    -0.2440
      6  C6         7.0890    3.8990  -17.5630 C.3   2001  9DS2001     0.1156
      7  S8         6.0320    1.9890  -15.9980 S.O2  2001  9DS2001     0.0638
      8  O9         4.7770    2.5610  -15.5840 O.2   2001  9DS2001    -0.1528
      9  O10        6.1240    0.5650  -16.0580 O.2   2001  9DS2001    -0.1528
     10  C11        7.3040    2.5030  -14.8380 C.ar  2001  9DS2001     0.1222
     11  C12        7.0350    3.6370  -14.0840 C.ar  2001  9DS2001     0.0199
     12  C13        7.9790    4.1330  -13.1440 C.ar  2001  9DS2001     0.0014
     13  C14        9.1910    3.5010  -12.9350 C.ar  2001  9DS2001     0.0013
     14  C15        9.5360    2.3080  -13.6920 C.ar  2001  9DS2001     0.0146
     15  C16        8.5570    1.7620  -14.6870 C.ar  2001  9DS2001     0.0198
     16  C17        8.9070    0.5840  -15.4330 C.ar  2001  9DS2001     0.0014
     17  C18       10.1130   -0.0540  -15.2340 C.ar  2001  9DS2001     0.0013
     18  C19       11.0710    0.4500  -14.2740 C.ar  2001  9DS2001     0.0145
     19  C20       10.8060    1.6050  -13.5010 C.ar  2001  9DS2001     0.0479
     20  N21       11.7650    2.1430  -12.5190 N.pl3 2001  9DS2001    -0.3041
     21  C23       12.8010    3.0230  -13.1290 C.3   2001  9DS2001     0.1122
     22  C22       12.4850    1.0810  -11.7720 C.3   2001  9DS2001     0.1122
@<TRIPOS>BOND
     1     5     3   ar
     2     3     4   ar
     3     3     2    1
     4     2     1    1
     5     6     1    1
     6     1     7    1
     7     9     7    2
     8     7     8    2
     9     7    10    1
    10    16    17   ar
    11    16    15   ar
    12    17    18   ar
    13    10    15   ar
    14    10    11   ar
    15    15    14   ar
    16    18    19   ar
    17    11    12   ar
    18    14    19   ar
    19    14    13   ar
    20    19    20    1
    21    12    13   ar
    22    21    20    1
    23    20    22    1
