@<TRIPOS>MOLECULE
2xvu_9DN_A_1.pdb
 25 26 0 0 0
SMALL
GASTEIGER

@<TRIPOS>ATOM
      1  N          5.9060   -9.1770    5.5980 N.3   2001  9DN2001    -0.0672
      2  CA         5.3080   -8.1090    4.7840 C.3   2001  9DN2001     0.2093
      3  C          5.9600   -7.8480    3.4160 C.2   2001  9DN2001     0.3827
      4  O          7.2550   -7.9480    3.3080 O.co2 2001  9DN2001    -0.2440
      5  CB         5.2560   -6.8050    5.6360 C.3   2001  9DN2001     0.1194
      6  CG         4.0470   -6.7470    6.5730 C.2   2001  9DN2001     0.2628
      7  OD1        3.0150   -7.4160    6.3540 O.2   2001  9DN2001    -0.2716
      8  ND2        4.1550   -5.9430    7.6340 N.am  2001  9DN2001    -0.0877
      9  OXT        5.2850   -7.5520    2.4390 O.co2 2001  9DN2001    -0.2440
     10  S1         5.3300  -10.7200    5.4880 S.O2  2001  9DN2001     0.0773
     11  O2         3.9580  -10.6360    5.0850 O.2   2001  9DN2001    -0.1516
     12  O3         6.2280  -11.4060    4.5910 O.2   2001  9DN2001    -0.1516
     13  N1         4.2700  -12.1640   12.0360 N.pl3 2001  9DN2001    -0.3041
     14  C1         5.4590  -11.4910    7.1530 C.ar  2001  9DN2001     0.1236
     15  C2         6.4070  -12.4940    7.3250 C.ar  2001  9DN2001     0.0200
     16  C3         6.5800  -13.1500    8.5800 C.ar  2001  9DN2001     0.0014
     17  C4         5.8060  -12.7960    9.6580 C.ar  2001  9DN2001     0.0013
     18  C5         4.7990  -11.7710    9.5820 C.ar  2001  9DN2001     0.0146
     19  C6         4.5900  -11.0700    8.2890 C.ar  2001  9DN2001     0.0199
     20  C7         3.5890  -10.0620    8.2380 C.ar  2001  9DN2001     0.0014
     21  C8         2.8160   -9.7250    9.3570 C.ar  2001  9DN2001     0.0013
     22  C9         3.0120  -10.4000   10.6300 C.ar  2001  9DN2001     0.0145
     23  C10        4.0070  -11.4380   10.7780 C.ar  2001  9DN2001     0.0479
     24  C11        5.1950  -11.4190   12.9160 C.3   2001  9DN2001     0.1122
     25  C12        3.0470  -12.4310   12.8540 C.3   2001  9DN2001     0.1122
@<TRIPOS>BOND
     1     9     3   ar
     2     4     3   ar
     3     3     2    1
     4    12    10    2
     5     2     1    1
     6     2     5    1
     7    11    10    2
     8    10     1    1
     9    10    14    1
    10     5     6    1
    11     7     6    2
    12     6     8   am
    13    14    15   ar
    14    14    19   ar
    15    15    16   ar
    16    20    19   ar
    17    20    21   ar
    18    19    18   ar
    19    16    17   ar
    20    21    22   ar
    21    18    17   ar
    22    18    23   ar
    23    22    23   ar
    24    23    13    1
    25    13    25    1
    26    13    24    1
