@<TRIPOS>MOLECULE
2xvv_9DN_A_1.pdb
 25 26 0 0 0
SMALL
GASTEIGER

@<TRIPOS>ATOM
      1  N         30.3340   15.1690   10.8270 N.3   2001  9DN2001    -0.0672
      2  CA        29.6780   14.3130   11.7990 C.3   2001  9DN2001     0.2093
      3  C         28.1480   14.2770   11.7810 C.2   2001  9DN2001     0.3827
      4  O         27.4980   15.3930   11.6890 O.co2 2001  9DN2001    -0.2440
      5  CB        30.2040   14.7100   13.1870 C.3   2001  9DN2001     0.1194
      6  CG        31.1850   13.6830   13.6590 C.2   2001  9DN2001     0.2628
      7  OD1       32.3960   13.9290   13.6710 O.2   2001  9DN2001    -0.2716
      8  ND2       30.6890   12.5130   14.0510 N.am  2001  9DN2001    -0.0877
      9  OXT       27.5340   13.2240   11.8600 O.co2 2001  9DN2001    -0.2440
     10  S1        30.6160   14.6730    9.2900 S.O2  2001  9DN2001     0.0773
     11  O2        30.7100   13.2430    9.2790 O.2   2001  9DN2001    -0.1516
     12  O3        29.5660   15.2800    8.5010 O.2   2001  9DN2001    -0.1516
     13  N1        37.2060   16.1350    9.1130 N.pl3 2001  9DN2001    -0.3041
     14  C1        32.1940   15.4300    8.8000 C.ar  2001  9DN2001     0.1236
     15  C2        32.1750   16.3870    7.8050 C.ar  2001  9DN2001     0.0200
     16  C3        33.3670   17.0290    7.3690 C.ar  2001  9DN2001     0.0014
     17  C4        34.5730   16.7060    7.9490 C.ar  2001  9DN2001     0.0013
     18  C5        34.6870   15.7240    8.9910 C.ar  2001  9DN2001     0.0146
     19  C6        33.4540   15.0410    9.4560 C.ar  2001  9DN2001     0.0199
     20  C7        33.5810   14.0740   10.4800 C.ar  2001  9DN2001     0.0014
     21  C8        34.8130   13.7640   11.0520 C.ar  2001  9DN2001     0.0013
     22  C9        36.0250   14.4260   10.6190 C.ar  2001  9DN2001     0.0145
     23  C10       36.0050   15.4250    9.5830 C.ar  2001  9DN2001     0.0479
     24  C11       37.4230   17.3890    9.8660 C.3   2001  9DN2001     0.1122
     25  C12       38.4790   15.3540    9.2530 C.3   2001  9DN2001     0.1122
@<TRIPOS>BOND
     1    16    15   ar
     2    16    17   ar
     3    15    14   ar
     4    17    18   ar
     5    12    10    2
     6    14    10    1
     7    14    19   ar
     8    18    19   ar
     9    18    23   ar
    10    13    25    1
    11    13    23    1
    12    13    24    1
    13    11    10    2
    14    10     1    1
    15    19    20   ar
    16    23    22   ar
    17    20    21   ar
    18    22    21   ar
    19     1     2    1
    20     4     3   ar
    21     3     2    1
    22     3     9   ar
    23     2     5    1
    24     5     6    1
    25     6     7    2
    26     6     8   am
