@<TRIPOS>MOLECULE
2xvv_MYR_A_1.pdb
 16 15 0 0 0
SMALL
GASTEIGER

@<TRIPOS>ATOM
      1  C1        28.0230   12.3960   35.9450 C.2   1001  MYR1001     0.3649
      2  O1        28.0500   13.5760   35.5460 O.co2 1001  MYR1001    -0.2457
      3  O2        26.9970   11.8530   36.4040 O.co2 1001  MYR1001    -0.2457
      4  C2        29.3080   11.5780   35.8730 C.3   1001  MYR1001     0.1141
      5  C3        30.1850   11.8770   37.0930 C.3   1001  MYR1001     0.0118
      6  C4        31.2640   12.7980   36.5570 C.3   1001  MYR1001     0.0006
      7  C5        31.3670   14.0700   37.3710 C.3   1001  MYR1001     0.0000
      8  C6        32.8010   14.5740   37.3670 C.3   1001  MYR1001     0.0000
      9  C7        32.9150   15.9540   36.7400 C.3   1001  MYR1001     0.0000
     10  C8        34.3370   16.2410   36.2840 C.3   1001  MYR1001     0.0000
     11  C9        34.5460   15.8040   34.8380 C.3   1001  MYR1001     0.0000
     12  C10       35.7560   16.4650   34.2100 C.3   1001  MYR1001     0.0000
     13  C11       36.4910   15.4930   33.3010 C.3   1001  MYR1001     0.0000
     14  C12       36.5650   16.0110   31.8780 C.3   1001  MYR1001     0.0000
     15  C13       36.6280   14.8700   30.8710 C.3   1001  MYR1001     0.0000
     16  C14       35.5240   15.0030   29.8490 C.3   1001  MYR1001     0.0000
@<TRIPOS>BOND
     1    16    15    1
     2    15    14    1
     3    14    13    1
     4    13    12    1
     5    12    11    1
     6    11    10    1
     7     2     1   ar
     8     4     1    1
     9     4     5    1
    10     1     3   ar
    11    10     9    1
    12     6     5    1
    13     6     7    1
    14     9     8    1
    15     8     7    1
