@<TRIPOS>MOLECULE
2xvw_9NR_A_1.pdb
 28 29 0 0 0
SMALL
GASTEIGER

@<TRIPOS>ATOM
      1  N         29.6720   15.1020   10.6650 N.3   2001  9NR2001    -0.0677
      2  CA        28.8280   14.1990   11.4620 C.3   2001  9NR2001     0.2003
      3  C         27.3340   14.5070   11.2900 C.2   2001  9NR2001     0.3822
      4  O         26.5630   13.4470   11.1240 O.co2 2001  9NR2001    -0.2440
      5  CB        29.2570   14.3000   12.9400 C.3   2001  9NR2001     0.0346
      6  CG        30.7730   14.2390   13.1070 C.3   2001  9NR2001     0.0490
      7  CD        31.1660   13.3180   14.2410 C.3   2001  9NR2001     0.2205
      8  NE        31.1320   14.0420   15.5080 N.pl3 2001  9NR2001    -0.0865
      9  CZ        31.4130   13.5330   16.7060 C.cat 2001  9NR2001     0.5346
     10  NH1       31.7600   12.2530   16.8470 N.pl3 2001  9NR2001     0.1354
     11  NH2       31.3490   14.3210   17.7650 N.pl3 2001  9NR2001     0.1354
     12  OXT       26.9490   15.6500   11.2550 O.co2 2001  9NR2001    -0.2440
     13  S1        30.0570   14.6820    9.1320 S.O2  2001  9NR2001     0.0773
     14  O2        30.1990   13.2490    9.0820 O.2   2001  9NR2001    -0.1516
     15  O3        29.0520   15.3040    8.3190 O.2   2001  9NR2001    -0.1516
     16  N1        36.6330   16.0820    9.0850 N.pl3 2001  9NR2001    -0.3041
     17  C1        31.6150   15.4400    8.7510 C.ar  2001  9NR2001     0.1236
     18  C2        31.5540   16.4770    7.8610 C.ar  2001  9NR2001     0.0200
     19  C3        32.7310   17.1670    7.4650 C.ar  2001  9NR2001     0.0014
     20  C4        33.9700   16.8100    7.9780 C.ar  2001  9NR2001     0.0013
     21  C5        34.1140   15.7250    8.9280 C.ar  2001  9NR2001     0.0146
     22  C6        32.9000   14.9870    9.3540 C.ar  2001  9NR2001     0.0199
     23  C7        33.0570   13.9150   10.2900 C.ar  2001  9NR2001     0.0014
     24  C8        34.3160   13.5730   10.7940 C.ar  2001  9NR2001     0.0013
     25  C9        35.4930   14.2750   10.4010 C.ar  2001  9NR2001     0.0145
     26  C10       35.4280   15.3410    9.4860 C.ar  2001  9NR2001     0.0479
     27  C11       36.8740   17.2260    9.9960 C.3   2001  9NR2001     0.1122
     28  C12       37.9120   15.2830    9.0780 C.3   2001  9NR2001     0.1122
@<TRIPOS>BOND
     1    19    18   ar
     2    19    20   ar
     3    18    17   ar
     4    20    21   ar
     5    15    13    2
     6    17    13    1
     7    17    22   ar
     8    21    22   ar
     9    21    26   ar
    10    28    16    1
    11    14    13    2
    12    16    26    1
    13    16    27    1
    14    13     1    1
    15    22    23   ar
    16    26    25   ar
    17    23    24   ar
    18    25    24   ar
    19     1     2    1
    20     4     3   ar
    21    12     3   ar
    22     3     2    1
    23     2     5    1
    24     5     6    1
    25     6     7    1
    26     7     8    1
    27     8     9    2
    28     9    10    1
    29     9    11    1
