@<TRIPOS>MOLECULE
2xvw_MYR_A_1.pdb
 14 13 0 0 0
SMALL
GASTEIGER

@<TRIPOS>ATOM
      1  C1        28.6890   12.1530   36.1550 C.2   1001  MYR1001     0.3649
      2  O1        28.2710   13.2000   35.6220 O.co2 1001  MYR1001    -0.2457
      3  O2        27.9570   11.3870   36.8260 O.co2 1001  MYR1001    -0.2457
      4  C2        30.1670   11.7970   35.9800 C.3   1001  MYR1001     0.1141
      5  C3        31.0010   12.3660   37.1380 C.3   1001  MYR1001     0.0118
      6  C4        31.8460   13.4760   36.5090 C.3   1001  MYR1001     0.0006
      7  C5        31.9460   14.7130   37.4110 C.3   1001  MYR1001     0.0000
      8  C6        33.3780   15.2490   37.4780 C.3   1001  MYR1001     0.0000
      9  C7        33.7090   16.1650   36.3050 C.3   1001  MYR1001     0.0000
     10  C8        35.1650   16.0360   35.8550 C.3   1001  MYR1001     0.0000
     11  C9        35.2880   15.4060   34.4610 C.3   1001  MYR1001     0.0000
     12  C10       36.5090   15.9300   33.7080 C.3   1001  MYR1001     0.0000
     13  C11       36.9560   14.9790   32.5810 C.3   1001  MYR1001     0.0000
     14  C12       36.1690   15.1500   31.2670 C.3   1001  MYR1001     0.0000
@<TRIPOS>BOND
     1    14    13    1
     2    13    12    1
     3    12    11    1
     4    11    10    1
     5     2     1   ar
     6    10     9    1
     7     4     1    1
     8     4     5    1
     9     1     3   ar
    10     9     8    1
    11     6     5    1
    12     6     7    1
    13     7     8    1
