@<TRIPOS>MOLECULE
2xvx_HEM_A_1.pdb
 43 50 0 0 0
SMALL
GASTEIGER

@<TRIPOS>ATOM
      1  CHA        2.0030   47.1180    0.5390 C.2   1270  HEM1270     0.0000
      2  CHB        2.1760   42.2890    0.8580 C.2   1270  HEM1270     0.0000
      3  CHC       -2.3350   42.0530   -0.9760 C.2   1270  HEM1270     0.0000
      4  CHD       -2.7480   46.8730   -0.5230 C.2   1270  HEM1270     0.0000
      5  C1A        2.4510   45.8300    0.6990 C.2   1270  HEM1270     0.0000
      6  C2A        3.8400   45.4660    0.9240 C.2   1270  HEM1270     0.0000
      7  C3A        3.8970   44.1360    1.0120 C.2   1270  HEM1270     0.0000
      8  C4A        2.5530   43.6120    0.8470 C.2   1270  HEM1270     0.0000
      9  CMA        5.1780   43.3090    1.2510 C.3   1270  HEM1270     0.0000
     10  CAA        5.0130   46.4660    1.0130 C.3   1270  HEM1270     0.0000
     11  CBA        5.2080   47.1070   -0.3800 C.3   1270  HEM1270     0.0000
     12  CGA        5.6660   46.0280   -1.3360 C.2   1270  HEM1270     0.0000
     13  O1A        6.7680   45.4640   -1.0670 O.co2 1270  HEM1270     0.0000
     14  O2A        4.9400   45.7290   -2.3270 O.co2 1270  HEM1270     0.0000
     15  C1B        0.9830   41.8180    0.3570 C.ar  1270  HEM1270     0.0000
     16  C2B        0.6330   40.4100    0.1960 C.ar  1270  HEM1270     0.0000
     17  C3B       -0.6150   40.3470   -0.3100 C.ar  1270  HEM1270     0.0000
     18  C4B       -1.1040   41.7080   -0.4750 C.ar  1270  HEM1270     0.0000
     19  CMB        1.5690   39.2280    0.5440 C.3   1270  HEM1270     0.0000
     20  CAB       -1.4370   39.0840   -0.6610 C.2   1270  HEM1270     0.0000
     21  CBB       -0.8690   37.8790   -0.6090 C.2   1270  HEM1270     0.0000
     22  C1C       -2.7980   43.3410   -1.0900 C.2   1270  HEM1270     0.0000
     23  C2C       -3.9850   43.7560   -1.7850 C.2   1270  HEM1270     0.0000
     24  C3C       -4.1070   45.0840   -1.6560 C.2   1270  HEM1270     0.0000
     25  C4C       -2.9870   45.5600   -0.8850 C.2   1270  HEM1270     0.0000
     26  CMC       -4.9130   42.7890   -2.5270 C.3   1270  HEM1270     0.0000
     27  CAC       -5.2270   45.9870   -2.1980 C.3   1270  HEM1270     0.0000
     28  CBC       -6.0990   46.3640   -1.2540 C.3   1270  HEM1270     0.0000
     29  C1D       -1.5160   47.4060   -0.2370 C.ar  1270  HEM1270     0.0000
     30  C2D       -1.2210   48.8260   -0.1280 C.ar  1270  HEM1270     0.0000
     31  C3D        0.2750   48.9130    0.2050 C.ar  1270  HEM1270     0.0000
     32  C4D        0.7180   47.5290    0.2570 C.ar  1270  HEM1270     0.0000
     33  CMD       -2.2110   50.0060   -0.3150 C.3   1270  HEM1270     0.0000
     34  CAD        1.1220   50.2190    0.4230 C.3   1270  HEM1270     0.0000
     35  CBD        1.5410   50.3980    1.8870 C.3   1270  HEM1270     0.0000
     36  CGD        1.8570   51.8250    2.3210 C.2   1270  HEM1270     0.0000
     37  O1D        0.9180   52.6560    2.4810 O.co2 1270  HEM1270     0.0000
     38  O2D        3.0600   52.1260    2.5340 O.co2 1270  HEM1270     0.0000
     39  NA         1.6850   44.6710    0.6610 N.2   1270  HEM1270     0.0000
     40  NB        -0.1100   42.5720   -0.0560 N.ar  1270  HEM1270     0.0000
     41  NC        -2.2080   44.4650   -0.5650 N.2   1270  HEM1270     0.0000
     42  ND        -0.3510   46.6860   -0.0050 N.ar  1270  HEM1270     0.0000
     43 FE         -0.3410   44.6520    0.0010 Fe    1270  HEM1270     0.0000
@<TRIPOS>BOND
     1    26    23    1
     2    14    12   ar
     3    27    24    1
     4    27    28    1
     5    23    24    2
     6    23    22    1
     7    24    25    1
     8    12    13   ar
     9    12    11    1
    10    22     3    2
    11    22    41    1
    12     3    18    1
    13    25    41    2
    14    25     4    1
    15    20    21    2
    16    20    17    1
    17    41    43    1
    18     4    29    2
    19    18    17   ar
    20    18    40   ar
    21    11    10    1
    22    33    30    1
    23    17    16   ar
    24    29    30   ar
    25    29    42   ar
    26    30    31   ar
    27    40    43    1
    28    40    15   ar
    29    42    43    1
    30    42    32   ar
    31    43    39    1
    32    16    15   ar
    33    16    19    1
    34    31    32   ar
    35    31    34    1
    36    32     1    2
    37    15     2    1
    38    34    35    1
    39     1     5    1
    40    39     5    2
    41    39     8    1
    42     5     6    1
    43     8     2    2
    44     8     7    1
    45     6     7    2
    46     6    10    1
    47     7     9    1
    48    35    36    1
    49    36    37   ar
    50    36    38   ar
