@<TRIPOS>MOLECULE
2xvy_HEM_A_1.pdb
 43 50 0 0 0
SMALL
GASTEIGER

@<TRIPOS>ATOM
      1  CHA        2.6020   46.9160    0.5930 C.2   1270  HEM1270     0.0000
      2  CHB        2.5780   42.1110    0.9770 C.2   1270  HEM1270     0.0000
      3  CHC       -1.9440   42.2170   -0.7970 C.2   1270  HEM1270     0.0000
      4  CHD       -2.1570   47.0100   -0.4840 C.2   1270  HEM1270     0.0000
      5  C1A        2.9930   45.6240    0.7620 C.2   1270  HEM1270     0.0000
      6  C2A        4.3500   45.2160    1.0200 C.2   1270  HEM1270     0.0000
      7  C3A        4.3330   43.8930    1.1290 C.2   1270  HEM1270     0.0000
      8  C4A        2.9760   43.4240    0.9280 C.2   1270  HEM1270     0.0000
      9  CMA        5.5490   43.0100    1.4030 C.3   1270  HEM1270     0.0000
     10  CAA        5.5980   46.1240    1.1640 C.3   1270  HEM1270     0.0000
     11  CBA        6.1540   46.6000   -0.1800 C.3   1270  HEM1270     0.0000
     12  CGA        6.9630   45.4920   -0.8010 C.2   1270  HEM1270     0.0000
     13  O1A        7.2580   45.5210   -2.0250 O.co2 1270  HEM1270     0.0000
     14  O2A        7.3200   44.5490   -0.0660 O.co2 1270  HEM1270     0.0000
     15  C1B        1.3580   41.6970    0.4880 C.ar  1270  HEM1270     0.0000
     16  C2B        0.9080   40.3400    0.2770 C.ar  1270  HEM1270     0.0000
     17  C3B       -0.3480   40.3850   -0.2070 C.ar  1270  HEM1270     0.0000
     18  C4B       -0.7380   41.7760   -0.3200 C.ar  1270  HEM1270     0.0000
     19  CMB        1.7440   39.0760    0.5730 C.3   1270  HEM1270     0.0000
     20  CAB       -1.2560   39.1990   -0.5990 C.2   1270  HEM1270     0.0000
     21  CBB       -0.8780   37.9510   -0.3250 C.2   1270  HEM1270     0.0000
     22  C1C       -2.3670   43.5120   -0.8900 C.2   1270  HEM1270     0.0000
     23  C2C       -3.6260   43.9010   -1.4760 C.2   1270  HEM1270     0.0000
     24  C3C       -3.7090   45.2250   -1.3990 C.2   1270  HEM1270     0.0000
     25  C4C       -2.4870   45.7080   -0.7660 C.2   1270  HEM1270     0.0000
     26  CMC       -4.6560   42.9110   -2.0810 C.3   1270  HEM1270     0.0000
     27  CAC       -4.9020   46.0740   -1.9110 C.2   1270  HEM1270     0.0000
     28  CBC       -5.2840   47.1520   -1.2310 C.2   1270  HEM1270     0.0000
     29  C1D       -0.8800   47.4540   -0.2350 C.ar  1270  HEM1270     0.0000
     30  C2D       -0.4160   48.8290   -0.2700 C.ar  1270  HEM1270     0.0000
     31  C3D        1.0760   48.7670    0.0530 C.ar  1270  HEM1270     0.0000
     32  C4D        1.3590   47.3750    0.2730 C.ar  1270  HEM1270     0.0000
     33  CMD       -1.2490   50.0980   -0.5970 C.3   1270  HEM1270     0.0000
     34  CAD        2.1230   49.9130    0.1540 C.3   1270  HEM1270     0.0000
     35  CBD        3.5080   49.4380   -0.3330 C.3   1270  HEM1270     0.0000
     36  CGD        3.5550   48.9280   -1.7790 C.2   1270  HEM1270     0.0000
     37  O1D        2.8530   49.4760   -2.6680 O.co2 1270  HEM1270     0.0000
     38  O2D        4.3190   47.9530   -2.0540 O.co2 1270  HEM1270     0.0000
     39  NA         2.1580   44.5140    0.7150 N.2   1270  HEM1270     0.0000
     40  NB         0.3300   42.5230    0.1090 N.ar  1270  HEM1270     0.0000
     41  NC        -1.6530   44.6250   -0.4680 N.2   1270  HEM1270     0.0000
     42  ND         0.1970   46.6520    0.0930 N.ar  1270  HEM1270     0.0000
     43 FE          0.1410   44.5900    0.0690 Fe    1270  HEM1270     0.0000
@<TRIPOS>BOND
     1    37    36   ar
     2    26    23    1
     3    38    36   ar
     4    13    12   ar
     5    27    24    1
     6    27    28    2
     7    36    35    1
     8    23    24    2
     9    23    22    1
    10    24    25    1
    11    22     3    2
    12    22    41    1
    13    12    11    1
    14    12    14   ar
    15     3    18    1
    16    25     4    1
    17    25    41    2
    18    20    21    2
    19    20    17    1
    20    33    30    1
    21     4    29    2
    22    41    43    1
    23    35    34    1
    24    18    17   ar
    25    18    40   ar
    26    30    29   ar
    27    30    31   ar
    28    29    42   ar
    29    17    16   ar
    30    11    10    1
    31    31    34    1
    32    31    32   ar
    33    43    42    1
    34    43    40    1
    35    43    39    1
    36    42    32   ar
    37    40    15   ar
    38    32     1    2
    39    16    15   ar
    40    16    19    1
    41    15     2    1
    42     1     5    1
    43    39     5    2
    44    39     8    1
    45     5     6    1
    46     8     2    2
    47     8     7    1
    48     6     7    2
    49     6    10    1
    50     7     9    1
