@<TRIPOS>MOLECULE
2xvz_HEM_A_1.pdb
 43 50 0 0 0
SMALL
GASTEIGER

@<TRIPOS>ATOM
      1  CHA        2.7480   47.2040    0.4990 C.2   1270  HEM1270     0.0000
      2  CHB        1.9890   42.4010    0.9910 C.2   1270  HEM1270     0.0000
      3  CHC       -2.4850   42.5320   -0.8490 C.2   1270  HEM1270     0.0000
      4  CHD       -1.9830   47.3970   -0.6200 C.2   1270  HEM1270     0.0000
      5  C1A        2.9190   45.8590    0.7790 C.2   1270  HEM1270     0.0000
      6  C2A        4.1310   45.2630    1.3080 C.2   1270  HEM1270     0.0000
      7  C3A        3.8830   43.9390    1.4430 C.2   1270  HEM1270     0.0000
      8  C4A        2.5420   43.6610    1.0060 C.2   1270  HEM1270     0.0000
      9  CMA        4.7980   42.8240    1.9630 C.3   1270  HEM1270     0.0000
     10  CAA        5.4390   46.0540    1.6460 C.3   1270  HEM1270     0.0000
     11  CBA        5.7110   47.1830    0.6250 C.3   1270  HEM1270     0.0000
     12  CGA        6.8890   46.9690   -0.3240 C.2   1270  HEM1270     0.0000
     13  O1A        7.5190   48.0000   -0.7580 O.co2 1270  HEM1270     0.0000
     14  O2A        7.2010   45.7860   -0.6740 O.co2 1270  HEM1270     0.0000
     15  C1B        0.7820   42.0190    0.4430 C.ar  1270  HEM1270     0.0000
     16  C2B        0.3910   40.6580    0.1670 C.ar  1270  HEM1270     0.0000
     17  C3B       -0.8530   40.6660   -0.3250 C.ar  1270  HEM1270     0.0000
     18  C4B       -1.2990   42.0370   -0.3870 C.ar  1270  HEM1270     0.0000
     19  CMB        1.2680   39.4160    0.4210 C.3   1270  HEM1270     0.0000
     20  CAB       -1.6520   39.4240   -0.7710 C.2   1270  HEM1270     0.0000
     21  CBB       -1.1970   38.1880   -0.4960 C.2   1270  HEM1270     0.0000
     22  C1C       -2.6990   43.8900   -0.8930 C.2   1270  HEM1270     0.0000
     23  C2C       -3.9760   44.4850   -1.2070 C.2   1270  HEM1270     0.0000
     24  C3C       -3.8460   45.8130   -1.1420 C.2   1270  HEM1270     0.0000
     25  C4C       -2.4660   46.1090   -0.7800 C.2   1270  HEM1270     0.0000
     26  CMC       -5.2510   43.6870   -1.5600 C.3   1270  HEM1270     0.0000
     27  CAC       -4.9450   46.8750   -1.4220 C.2   1270  HEM1270     0.0000
     28  CBC       -6.2560   46.6070   -1.3250 C.2   1270  HEM1270     0.0000
     29  C1D       -0.6970   47.8200   -0.3770 C.ar  1270  HEM1270     0.0000
     30  C2D       -0.2450   49.1940   -0.4400 C.ar  1270  HEM1270     0.0000
     31  C3D        1.2530   49.1530   -0.0740 C.ar  1270  HEM1270     0.0000
     32  C4D        1.5370   47.7500    0.1630 C.ar  1270  HEM1270     0.0000
     33  CMD       -1.1100   50.4280   -0.7820 C.3   1270  HEM1270     0.0000
     34  CAD        2.2570   50.3320    0.0150 C.3   1270  HEM1270     0.0000
     35  CBD        2.6240   50.8640   -1.3850 C.3   1270  HEM1270     0.0000
     36  CGD        2.4610   49.8040   -2.4560 C.2   1270  HEM1270     0.0000
     37  O1D        1.3010   49.6620   -3.0280 O.co2 1270  HEM1270     0.0000
     38  O2D        3.5150   49.1150   -2.7040 O.co2 1270  HEM1270     0.0000
     39  NA         1.9680   44.8530    0.6110 N.2   1270  HEM1270     0.0000
     40  NB        -0.2880   42.8330    0.0840 N.ar  1270  HEM1270     0.0000
     41  NC        -1.7800   44.9080   -0.6270 N.2   1270  HEM1270     0.0000
     42  ND         0.3750   47.0140   -0.0180 N.ar  1270  HEM1270     0.0000
     43 FE          0.1320   44.9180    0.1930 Fe    1270  HEM1270     0.0000
@<TRIPOS>BOND
     1    37    36   ar
     2    38    36   ar
     3    36    35    1
     4    26    23    1
     5    27    28    2
     6    27    24    1
     7    35    34    1
     8    23    24    2
     9    23    22    1
    10    24    25    1
    11    22     3    2
    12    22    41    1
    13     3    18    1
    14    33    30    1
    15    25    41    2
    16    25     4    1
    17    20    21    2
    18    20    17    1
    19    13    12   ar
    20    14    12   ar
    21    41    43    1
    22     4    29    2
    23    30    29   ar
    24    30    31   ar
    25    18    17   ar
    26    18    40   ar
    27    29    42   ar
    28    17    16   ar
    29    12    11    1
    30    31    34    1
    31    31    32   ar
    32    42    32   ar
    33    42    43    1
    34    40    43    1
    35    40    15   ar
    36    32     1    2
    37    16    19    1
    38    16    15   ar
    39    43    39    1
    40    15     2    1
    41     1     5    1
    42    39     5    2
    43    39     8    1
    44    11    10    1
    45     5     6    1
    46     2     8    2
    47     8     7    1
    48     6     7    2
    49     6    10    1
    50     7     9    1
