@<TRIPOS>MOLECULE
2xw0_9NF_A_1.pdb
 26 28 0 0 0
SMALL
GASTEIGER

@<TRIPOS>ATOM
      1  N          7.3080    2.0610  -17.3320 N.3   2001  9NF2001    -0.0789
      2  CA         7.4120    3.3830  -18.0100 C.3   2001  9NF2001     0.1021
      3  C          6.6550    3.4390  -19.3610 C.3   2001  9NF2001     0.0212
      4  CB         8.9360    3.6760  -18.1880 C.3   2001  9NF2001     0.0456
      5  CG         9.3970    4.9460  -18.9030 C.ar  2001  9NF2001    -0.0207
      6  CD1        9.2560    5.0530  -20.3200 C.ar  2001  9NF2001    -0.0042
      7  CD2        9.9890    6.0640  -18.1880 C.ar  2001  9NF2001    -0.0042
      8  CE1        9.6690    6.2130  -21.0140 C.ar  2001  9NF2001    -0.0003
      9  CE2       10.4060    7.2320  -18.9020 C.ar  2001  9NF2001    -0.0003
     10  CZ        10.2430    7.3030  -20.3060 C.ar  2001  9NF2001    -0.0000
     11  S1         6.6880    1.7890  -15.8190 S.O2  2001  9NF2001     0.0768
     12  O2         5.4620    2.5510  -15.6880 O.2   2001  9NF2001    -0.1516
     13  O3         6.5940    0.3370  -15.6690 O.2   2001  9NF2001    -0.1516
     14  N1        12.5060    1.9800  -12.4700 N.pl3 2001  9NF2001    -0.3041
     15  C1         7.9680    2.3470  -14.6890 C.ar  2001  9NF2001     0.1236
     16  C2         7.7430    3.5060  -13.9680 C.ar  2001  9NF2001     0.0200
     17  C3         8.7330    3.9980  -13.0680 C.ar  2001  9NF2001     0.0014
     18  C4         9.9530    3.3250  -12.8890 C.ar  2001  9NF2001     0.0013
     19  C5        10.2650    2.0910  -13.6190 C.ar  2001  9NF2001     0.0146
     20  C6         9.2360    1.5530  -14.5620 C.ar  2001  9NF2001     0.0199
     21  C7         9.5580    0.3090  -15.2930 C.ar  2001  9NF2001     0.0014
     22  C8        10.7990   -0.3720  -15.1140 C.ar  2001  9NF2001     0.0013
     23  C9        11.8020    0.1640  -14.1850 C.ar  2001  9NF2001     0.0145
     24  C10       11.5600    1.3910  -13.4210 C.ar  2001  9NF2001     0.0479
     25  C11       12.7890    1.0540  -11.3230 C.3   2001  9NF2001     0.1122
     26  C12       13.8290    2.2970  -13.0360 C.3   2001  9NF2001     0.1122
@<TRIPOS>BOND
     1     8     6   ar
     2     8    10   ar
     3     6     5   ar
     4    10     9   ar
     5     3     2    1
     6     5     4    1
     7     5     7   ar
     8     9     7   ar
     9     4     2    1
    10     2     1    1
    11     1    11    1
    12    11    12    2
    13    11    13    2
    14    11    15    1
    15    21    22   ar
    16    21    20   ar
    17    22    23   ar
    18    15    20   ar
    19    15    16   ar
    20    20    19   ar
    21    23    24   ar
    22    16    17   ar
    23    19    24   ar
    24    19    18   ar
    25    24    14    1
    26    17    18   ar
    27    26    14    1
    28    14    25    1
