@<TRIPOS>MOLECULE
2xw1_9NV_A_1.pdb
 22 23 0 0 0
SMALL
GASTEIGER

@<TRIPOS>ATOM
      1  N          7.7810    1.0480  -17.2500 N.3   2001  9NV2001    -0.0793
      2  CA         7.5540    2.0770  -18.2370 C.3   2001  9NV2001     0.0977
      3  C          7.2000    1.5700  -19.6420 C.3   2001  9NV2001     0.0208
      4  CB         8.8110    2.9150  -18.3830 C.3   2001  9NV2001     0.0193
      5  CG         8.6920    4.4190  -18.1980 C.3   2001  9NV2001     0.0015
      6  CD        10.0630    5.0570  -18.3900 C.3   2001  9NV2001     0.0000
      7  S8         7.0850    1.0680  -15.7920 S.O2  2001  9NV2001     0.0768
      8  O9         5.9140    1.9090  -15.8110 O.2   2001  9NV2001    -0.1516
      9  O10        6.8880   -0.3310  -15.5170 O.2   2001  9NV2001    -0.1516
     10  C11        8.2870    1.6960  -14.6590 C.ar  2001  9NV2001     0.1236
     11  C12        7.9370    2.8180  -13.8940 C.ar  2001  9NV2001     0.0200
     12  C13        8.8560    3.3890  -12.9440 C.ar  2001  9NV2001     0.0014
     13  C14       10.1290    2.8350  -12.7870 C.ar  2001  9NV2001     0.0013
     14  C15       10.5640    1.6570  -13.5440 C.ar  2001  9NV2001     0.0146
     15  C16        9.6260    1.0570  -14.5470 C.ar  2001  9NV2001     0.0199
     16  C17       10.0700   -0.1050  -15.2790 C.ar  2001  9NV2001     0.0014
     17  C18       11.3590   -0.6680  -15.1140 C.ar  2001  9NV2001     0.0013
     18  C19       12.2910   -0.0860  -14.1550 C.ar  2001  9NV2001     0.0145
     19  C20       11.9260    1.1000  -13.3540 C.ar  2001  9NV2001     0.0479
     20  N21       12.7980    1.7450  -12.3710 N.pl3 2001  9NV2001    -0.3041
     21  C23       13.2440    0.8210  -11.3090 C.3   2001  9NV2001     0.1122
     22  C22       14.0220    2.3250  -12.9760 C.3   2001  9NV2001     0.1122
@<TRIPOS>BOND
     1     3     2    1
     2     6     5    1
     3     4     2    1
     4     4     5    1
     5     2     1    1
     6     1     7    1
     7     8     7    2
     8     7     9    2
     9     7    10    1
    10    16    17   ar
    11    16    15   ar
    12    17    18   ar
    13    10    15   ar
    14    10    11   ar
    15    15    14   ar
    16    18    19   ar
    17    11    12   ar
    18    14    19   ar
    19    14    13   ar
    20    19    20    1
    21    22    20    1
    22    12    13   ar
    23    20    21    1
