@<TRIPOS>MOLECULE
2xw7_NDP_A_1.pdb
 48 52 0 0 0
SMALL
GASTEIGER

@<TRIPOS>ATOM
      1  PA        10.1160  -29.7880   16.8110 P.3   1173  NDP1173     0.2189
      2  O1A       11.2170  -28.8210   17.0080 O.3   1173  NDP1173    -0.4371
      3  O2A        8.9150  -29.3190   16.0450 O.2   1173  NDP1173    -0.5170
      4  O5B       10.6970  -31.0710   15.9370 O.3   1173  NDP1173    -0.3112
      5  C5B       11.9450  -31.6170   16.2810 C.3   1173  NDP1173     0.1813
      6  C4B       12.2280  -32.5900   15.1450 C.3   1173  NDP1173     0.1820
      7  O4B       12.5370  -31.8350   13.9930 O.3   1173  NDP1173    -0.3136
      8  C3B       13.4310  -33.4830   15.3840 C.3   1173  NDP1173     0.2157
      9  O3B       12.9550  -34.5860   16.1220 O.3   1173  NDP1173    -0.2175
     10  C2B       13.8570  -33.8350   13.9560 C.3   1173  NDP1173     0.2314
     11  O2B       12.8610  -34.6940   13.3930 O.3   1173  NDP1173    -0.2630
     12  C1B       13.6160  -32.4740   13.2950 C.3   1173  NDP1173     0.3158
     13  N9A       14.7390  -31.5430   13.3990 N.pl3 1173  NDP1173    -0.1439
     14  C8A       14.9520  -30.6200   14.4030 C.3   1173  NDP1173     0.3377
     15  N7A       16.1100  -29.9350   14.0580 N.2   1173  NDP1173    -0.2095
     16  C5A       16.5830  -30.4190   12.8300 C.2   1173  NDP1173     0.2526
     17  C6A       17.6730  -30.0770   12.0060 C.2   1173  NDP1173     0.4393
     18  N6A       18.5050  -29.0310   12.2830 N.pl3 1173  NDP1173     0.2180
     19  N1A       17.8520  -30.7520   10.8340 N.2   1173  NDP1173     0.0021
     20  C2A       16.9680  -31.7470   10.4270 C.3   1173  NDP1173     0.5254
     21  N3A       15.8830  -32.0960   11.2560 N.2   1173  NDP1173    -0.0055
     22  C4A       15.7140  -31.4350   12.4350 C.2   1173  NDP1173     0.3518
     23  O3         9.4770  -30.4980   18.0580 O.3   1173  NDP1173    -0.2703
     24  PN         9.7340  -30.7930   19.6350 P.3   1173  NDP1173     0.2189
     25  O1N       10.1190  -32.2430   19.6360 O.2   1173  NDP1173    -0.5170
     26  O2N       10.5570  -29.7670   20.3730 O.3   1173  NDP1173    -0.4371
     27  O5D        8.1790  -30.6910   20.1510 O.3   1173  NDP1173    -0.3112
     28  C5D        6.9830  -31.0650   19.4560 C.3   1173  NDP1173     0.1813
     29  C4D        6.3280  -29.7570   19.0140 C.3   1173  NDP1173     0.1799
     30  O4D        4.9300  -29.6920   18.6920 O.3   1173  NDP1173    -0.3327
     31  C3D        6.4540  -28.7210   20.1260 C.3   1173  NDP1173     0.2158
     32  O3D        7.7730  -28.3740   20.5100 O.3   1173  NDP1173    -0.2175
     33  C2D        5.6320  -27.5830   19.5620 C.3   1173  NDP1173     0.2309
     34  O2D        6.3920  -26.6150   18.8950 O.3   1173  NDP1173    -0.2158
     35  C1D        4.7160  -28.2690   18.5600 C.3   1173  NDP1173     0.2263
     36  N1N        3.3650  -27.6610   18.7470 N.pl3 1173  NDP1173    -0.2787
     37  C2N        3.3710  -26.3660   19.2630 C.3   1173  NDP1173     0.1244
     38  C3N        2.6260  -25.2890   18.7470 C.2   1173  NDP1173     0.0544
     39  C7N        2.7070  -23.9150   19.3380 C.2   1173  NDP1173     0.2818
     40  O7N        2.8570  -22.8170   18.4490 O.2   1173  NDP1173    -0.2670
     41  N7N        2.6170  -23.7830   20.6720 N.am  1173  NDP1173    -0.0839
     42  C4N        1.6920  -25.4830   17.5790 C.2   1173  NDP1173     0.0033
     43  C5N        1.7290  -26.9010   17.1020 C.2   1173  NDP1173     0.0157
     44  C6N        2.5180  -27.8930   17.7010 C.2   1173  NDP1173     0.0633
     45  P2B       13.1540  -35.7780   12.2460 P.3   1173  NDP1173     0.5328
     46  O1X       12.9620  -35.2330   10.8670 O.2   1173  NDP1173    -0.2224
     47  O2X       12.1550  -36.9420   12.4670 O.3   1173  NDP1173    -0.1145
     48  O3X       14.6300  -36.1670   12.4060 O.3   1173  NDP1173    -0.1145
@<TRIPOS>BOND
     1    20    19    1
     2    20    21    1
     3    19    17    2
     4    46    45    2
     5    21    22    2
     6    17    18    1
     7    17    16    1
     8    45    48    1
     9    45    47    1
    10    45    11    1
    11    22    16    1
    12    22    13    1
    13    16    15    2
    14    12    13    1
    15    12    10    1
    16    12     7    1
    17    11    10    1
    18    13    14    1
    19    10     8    1
    20     7     6    1
    21    15    14    1
    22     6     8    1
    23     6     5    1
    24     8     9    1
    25     4     5    1
    26     4     1    1
    27     3     1    2
    28     1     2    1
    29     1    23    1
    30    43    42    1
    31    43    44    2
    32    42    38    2
    33    44    36    1
    34    23    24    1
    35    40    39    2
    36    35    30    1
    37    35    36    1
    38    35    33    1
    39    30    29    1
    40    38    37    1
    41    38    39    1
    42    36    37    1
    43    34    33    1
    44    29    28    1
    45    29    31    1
    46    39    41   am
    47    28    27    1
    48    33    31    1
    49    24    25    2
    50    24    27    1
    51    24    26    1
    52    31    32    1
