@<TRIPOS>MOLECULE
2xwd_LGS_A_1.pdb
 16 17 0 0 0
SMALL
GASTEIGER

@<TRIPOS>ATOM
      1  O4       -35.5990  -14.5230   -3.1630 O.3   1510  LGS1510    -0.2184
      2  C4       -35.7690  -15.4030   -2.0630 C.3   1510  LGS1510     0.2066
      3  C5       -34.4190  -15.7930   -1.4300 C.3   1510  LGS1510     0.1557
      4  C6       -33.6810  -14.5470   -0.9130 C.3   1510  LGS1510     0.2308
      5  O6       -33.0940  -14.9750    0.3230 O.2   1510  LGS1510    -0.4479
      6  C3       -36.4540  -16.6330   -2.5690 C.3   1510  LGS1510     0.2183
      7  O3       -37.6410  -16.2740   -3.2520 O.3   1510  LGS1510    -0.2174
      8  C2       -36.7950  -17.5500   -1.4040 C.3   1510  LGS1510     0.2342
      9  O2       -37.0800  -18.8270   -1.9970 O.3   1510  LGS1510    -0.2156
     10  C1       -35.7010  -17.6380   -0.2720 C.3   1510  LGS1510     0.2646
     11  O1       -36.3080  -17.5200    1.0060 O.3   1510  LGS1510    -0.1977
     12  N1       -34.7010  -16.5720   -0.2170 N.pl3 1510  LGS1510    -0.2327
     13  C7       -33.9200  -15.9770    0.8290 C.2   1510  LGS1510     0.2851
     14  N2       -33.8430  -16.2680    2.1460 N.2   1510  LGS1510    -0.2242
     15  C8       -34.5410  -17.2910    2.9730 C.3   1510  LGS1510     0.1301
     16  C9       -34.4090  -16.9980    4.5290 C.3   1510  LGS1510     0.0285
@<TRIPOS>BOND
     1     7     6    1
     2     1     2    1
     3     6     2    1
     4     6     8    1
     5     2     3    1
     6     9     8    1
     7     3     4    1
     8     3    12    1
     9     8    10    1
    10     4     5    1
    11    10    12    1
    12    10    11    1
    13    12    13    1
    14     5    13    1
    15    13    14    2
    16    14    15    1
    17    15    16    1
