@<TRIPOS>MOLECULE
2xwe_NAG_A_1.pdb
 14 14 0 0 0
SMALL
GASTEIGER

@<TRIPOS>ATOM
      1  C1       -15.1310   -2.7950  -23.0930 C.3   1498  NAG1498     0.1665
      2  C2       -14.7840   -1.4080  -23.6530 C.3   1498  NAG1498     0.1576
      3  C3       -13.4170   -1.3220  -24.3770 C.3   1498  NAG1498     0.2069
      4  C4       -12.3170   -2.0070  -23.5810 C.3   1498  NAG1498     0.2134
      5  C5       -12.8250   -3.4060  -23.1900 C.3   1498  NAG1498     0.1809
      6  C6       -11.7310   -4.2280  -22.5250 C.3   1498  NAG1498     0.2141
      7  C7       -16.4090    0.2980  -23.7640 C.2   1498  NAG1498     0.2420
      8  C8       -17.5830    0.9940  -24.3680 C.3   1498  NAG1498     0.0964
      9  N2       -15.8840   -0.7640  -24.3810 N.am  1498  NAG1498    -0.2019
     10  O3       -13.0480    0.0280  -24.5360 O.3   1498  NAG1498    -0.2184
     11  O4       -11.1240   -2.0790  -24.3310 O.3   1498  NAG1498    -0.2176
     12  O5       -13.9960   -3.2660  -22.3790 O.3   1498  NAG1498    -0.3489
     13  O6       -11.5160   -3.6360  -21.2660 O.3   1498  NAG1498    -0.2176
     14  O7       -15.9660    0.7450  -22.6940 O.2   1498  NAG1498    -0.2733
@<TRIPOS>BOND
     1    10     3    1
     2     9     7   am
     3     9     2    1
     4     3     2    1
     5     3     4    1
     6     8     7    1
     7    11     4    1
     8     7    14    2
     9     2     1    1
    10     4     5    1
    11     5     6    1
    12     5    12    1
    13     1    12    1
    14     6    13    1
