@<TRIPOS>MOLECULE
2xwe_AMF_A_1.pdb
 22 23 0 0 0
SMALL
GASTEIGER

@<TRIPOS>ATOM
      1  O4       -35.7090  -14.5450   -2.9030 O.3   1510  AMF1510    -0.2188
      2  C4       -35.9380  -15.5770   -1.9090 C.3   1510  AMF1510     0.2002
      3  C5       -34.6250  -16.0380   -1.3540 C.3   1510  AMF1510     0.1056
      4  C6       -33.8070  -14.7370   -1.1140 C.3   1510  AMF1510     0.0789
      5  S1       -33.0480  -15.0630    0.4950 S.3   1510  AMF1510    -0.1058
      6  C3       -36.6470  -16.7810   -2.4550 C.3   1510  AMF1510     0.2176
      7  O3       -37.8770  -16.3460   -2.9790 O.3   1510  AMF1510    -0.2175
      8  C2       -37.0060  -17.7410   -1.2990 C.3   1510  AMF1510     0.2305
      9  O2       -37.2050  -19.0260   -1.8390 O.3   1510  AMF1510    -0.2160
     10  C1       -35.9760  -17.8110   -0.1170 C.3   1510  AMF1510     0.2474
     11  O1       -36.7490  -17.4980    1.0430 O.3   1510  AMF1510    -0.2020
     12  N1       -34.9210  -16.7770   -0.0770 N.3   1510  AMF1510    -0.2223
     13  C7       -34.1510  -16.2930    1.0180 C.3   1510  AMF1510     0.1844
     14  N2       -34.2080  -16.7110    2.2500 N.3   1510  AMF1510    -0.1937
     15  C8       -35.2200  -17.7910    2.4530 C.3   1510  AMF1510     0.0910
     16  C9       -35.1160  -18.5980    3.7350 C.3   1510  AMF1510     0.0189
     17  C10      -35.5690  -17.7350    4.9240 C.3   1510  AMF1510     0.0015
     18  C11      -34.3570  -17.1070    5.6440 C.3   1510  AMF1510     0.0000
     19  C12      -34.4900  -17.2600    7.1850 C.3   1510  AMF1510     0.0000
     20  C13      -35.8200  -16.6500    7.6880 C.3   1510  AMF1510     0.0000
     21  C14      -36.6410  -17.5950    8.5840 C.3   1510  AMF1510     0.0000
     22  C15      -37.8910  -16.8470    9.0920 C.3   1510  AMF1510     0.0000
@<TRIPOS>BOND
     1     7     6    1
     2     1     2    1
     3     6     2    1
     4     6     8    1
     5     2     3    1
     6     9     8    1
     7     3     4    1
     8     3    12    1
     9     8    10    1
    10     4     5    1
    11    10    12    1
    12    10    11    1
    13    12    13    1
    14     5    13    1
    15    13    14    1
    16    14    15    1
    17    15    16    1
    18    16    17    1
    19    17    18    1
    20    18    19    1
    21    19    20    1
    22    20    21    1
    23    21    22    1
