@<TRIPOS>MOLECULE
2xwi_SLB_A_1.pdb
 21 21 0 0 0
SMALL
GASTEIGER

@<TRIPOS>ATOM
      1  C1         7.6960   -8.5830  -11.0520 C.2   1309  SLB1309     0.4179
      2  C2         8.9390   -8.4700  -11.9490 C.3   1309  SLB1309     0.3155
      3  C3        10.1410   -8.1700  -11.0630 C.3   1309  SLB1309     0.1056
      4  C4        11.3420   -7.6570  -11.8650 C.3   1309  SLB1309     0.1798
      5  C5        10.9000   -6.5030  -12.8140 C.3   1309  SLB1309     0.1554
      6  C6         9.8210   -7.0300  -13.7100 C.3   1309  SLB1309     0.1734
      7  C7         9.2730   -5.9810  -14.6730 C.3   1309  SLB1309     0.2135
      8  C8         8.0510   -6.5810  -15.4400 C.3   1309  SLB1309     0.2173
      9  C9         7.5880   -5.7220  -16.5990 C.3   1309  SLB1309     0.2175
     10  C10       12.5960   -4.7820  -13.3450 C.2   1309  SLB1309     0.2420
     11  C11       13.7750   -4.4010  -14.2330 C.3   1309  SLB1309     0.0964
     12  N5        12.0420   -5.9670  -13.6150 N.am  1309  SLB1309    -0.2020
     13  O1A        7.2580   -9.7170  -10.8370 O.co2 1309  SLB1309    -0.2401
     14  O1B        7.2160   -7.4990  -10.6020 O.co2 1309  SLB1309    -0.2401
     15  O2         9.1520   -9.6990  -12.6730 O.3   1309  SLB1309    -0.1830
     16  O4        12.3350   -7.2340  -10.9340 O.3   1309  SLB1309    -0.2210
     17  O6         8.6980   -7.4110  -12.8700 O.3   1309  SLB1309    -0.3220
     18  O7         8.8470   -4.8190  -13.9190 O.3   1309  SLB1309    -0.2176
     19  O8         8.3350   -7.8760  -15.8960 O.3   1309  SLB1309    -0.2175
     20  O9         8.5950   -5.5420  -17.5600 O.3   1309  SLB1309    -0.2175
     21  O10       12.2130   -4.0280  -12.4350 O.2   1309  SLB1309    -0.2733
@<TRIPOS>BOND
     1    20     9    1
     2     9     8    1
     3    19     8    1
     4     8     7    1
     5     7    18    1
     6     7     6    1
     7    11    10    1
     8     6    17    1
     9     6     5    1
    10    12    10   am
    11    12     5    1
    12    10    21    2
    13    17     2    1
    14     5     4    1
    15    15     2    1
    16     2     3    1
    17     2     1    1
    18     4     3    1
    19     4    16    1
    20     1    13   ar
    21     1    14   ar
