@<TRIPOS>MOLECULE
2xwk_SLB_A_1.pdb
 21 21 0 0 0
SMALL
GASTEIGER

@<TRIPOS>ATOM
      1  C1         7.5430   -9.3900  -11.1420 C.2   1310  SLB1310     0.4179
      2  C2         8.8450   -9.1550  -11.9290 C.3   1310  SLB1310     0.3155
      3  C3        10.0080   -8.7200  -11.0350 C.3   1310  SLB1310     0.1056
      4  C4        11.2040   -8.2430  -11.8740 C.3   1310  SLB1310     0.1798
      5  C5        10.7260   -7.1300  -12.8220 C.3   1310  SLB1310     0.1554
      6  C6         9.6410   -7.7290  -13.7020 C.3   1310  SLB1310     0.1734
      7  C7         9.0480   -6.7150  -14.6650 C.3   1310  SLB1310     0.2135
      8  C8         7.8960   -7.3070  -15.4690 C.3   1310  SLB1310     0.2173
      9  C9         7.3470   -6.3360  -16.5110 C.3   1310  SLB1310     0.2175
     10  C10       12.3620   -5.4030  -13.4550 C.2   1310  SLB1310     0.2420
     11  C11       13.4690   -5.0320  -14.4320 C.3   1310  SLB1310     0.0964
     12  N5        11.8110   -6.6120  -13.6430 N.am  1310  SLB1310    -0.2020
     13  O1A        7.0550  -10.5560  -11.1380 O.co2 1310  SLB1310    -0.2401
     14  O1B        7.0360   -8.3680  -10.6070 O.co2 1310  SLB1310    -0.2401
     15  O2         9.2200  -10.3180  -12.6460 O.3   1310  SLB1310    -0.1830
     16  O4        12.2510   -7.7960  -11.0080 O.3   1310  SLB1310    -0.2210
     17  O6         8.5500   -8.1320  -12.8650 O.3   1310  SLB1310    -0.3220
     18  O7         8.5240   -5.5520  -13.9760 O.3   1310  SLB1310    -0.2176
     19  O8         8.3190   -8.5670  -16.0560 O.3   1310  SLB1310    -0.2175
     20  O9         8.3660   -5.9530  -17.4800 O.3   1310  SLB1310    -0.2175
     21  O10       12.0050   -4.5990  -12.6000 O.2   1310  SLB1310    -0.2733
@<TRIPOS>BOND
     1    20     9    1
     2     9     8    1
     3    19     8    1
     4     8     7    1
     5     7    18    1
     6     7     6    1
     7    11    10    1
     8     6    17    1
     9     6     5    1
    10    12    10   am
    11    12     5    1
    12    10    21    2
    13    17     2    1
    14     5     4    1
    15    15     2    1
    16     2     1    1
    17     2     3    1
    18     4     3    1
    19     4    16    1
    20     1    13   ar
    21     1    14   ar
