@<TRIPOS>MOLECULE
2xwl_CTP_A_1.pdb
 29 30 0 0 0
SMALL
GASTEIGER

@<TRIPOS>ATOM
      1  N1         8.5750    8.3730   15.8510 N.am  301  CTP301     -0.1778
      2  C2         9.5400    8.4100   14.8290 C.1   301  CTP301      0.2756
      3  N3        10.8410    8.3810   15.1320 N.2   301  CTP301     -0.3024
      4  C4        11.2200    8.2910   16.4300 C.2   301  CTP301      0.2346
      5  C5        10.2840    8.2600   17.4600 C.2   301  CTP301      0.0687
      6  C6         8.9420    8.3190   17.1410 C.2   301  CTP301      0.0836
      7  O2         9.1890    8.4550   13.6420 O.2   301  CTP301     -0.1925
      8  N4        12.5360    8.2130   16.7410 N.pl3 301  CTP301     -0.0921
      9  C1'        7.1620    8.3740   15.4760 C.3   301  CTP301      0.2400
     10  C2'        6.5100    7.0680   15.9620 C.3   301  CTP301      0.2319
     11  O2'        6.7540    5.9110   15.1660 O.3   301  CTP301     -0.2157
     12  C3'        5.0350    7.4390   16.1010 C.3   301  CTP301      0.2158
     13  C4'        5.0830    8.9460   16.3630 C.3   301  CTP301      0.1799
     14  O4'        6.4180    9.3950   16.1100 O.3   301  CTP301     -0.3320
     15  O3'        4.2540    7.1260   14.9230 O.3   301  CTP301     -0.2175
     16  C5'        4.7650    9.3450   17.7990 C.3   301  CTP301      0.1813
     17  O5'        5.7210    8.6840   18.6490 O.3   301  CTP301     -0.3112
     18  PA         5.2360    7.7390   19.8520 P.3   301  CTP301      0.2189
     19  O1A        6.0230    8.1260   21.0630 O.3   301  CTP301     -0.4371
     20  O2A        3.7380    7.6310   19.9180 O.2   301  CTP301     -0.5170
     21  O3A        5.7820    6.3130   19.3150 O.3   301  CTP301     -0.2700
     22  PB         7.0860    5.5060   19.8220 P.3   301  CTP301      0.2277
     23  O1B        8.1590    6.5240   20.0520 O.3   301  CTP301     -0.4368
     24  O2B        7.2740    4.4040   18.8440 O.2   301  CTP301     -0.5168
     25  O3B        6.5570    4.8900   21.2210 O.3   301  CTP301     -0.2258
     26  PG         7.3550    4.9900   22.6340 P.3   301  CTP301      0.5373
     27  O1G        7.5470    6.4670   22.8870 O.3   301  CTP301     -0.1143
     28  O2G        8.6290    4.1940   22.4300 O.2   301  CTP301     -0.2221
     29  O3G        6.3580    4.3420   23.5490 O.3   301  CTP301     -0.1143
@<TRIPOS>BOND
     1     7     2    2
     2     2     3    2
     3     2     1   am
     4    15    12    1
     5     3     4    2
     6    11    10    1
     7     9     1    1
     8     9    10    1
     9     9    14    1
    10     1     6    1
    11    10    12    1
    12    12    13    1
    13    14    13    1
    14    13    16    1
    15     4     8    1
    16     4     5    1
    17     6     5    2
    18    16    17    1
    19    17    18    1
    20    24    22    2
    21    21    22    1
    22    21    18    1
    23    22    23    1
    24    22    25    1
    25    18    20    2
    26    18    19    1
    27    25    26    1
    28    28    26    2
    29    26    27    1
    30    26    29    1
