@<TRIPOS>MOLECULE
2xwm_C5P_A_1.pdb
 21 22 0 0 0
SMALL
GASTEIGER

@<TRIPOS>ATOM
      1  O3P      -26.4010    6.0680  -19.1210 O.3   301  C5P301     -0.1145
      2  P        -27.7440    6.5520  -19.6170 P.3   301  C5P301      0.5327
      3  O1P      -27.7080    7.6620  -20.6370 O.2   301  C5P301     -0.2224
      4  O2P      -28.7110    5.4520  -20.0100 O.3   301  C5P301     -0.1145
      5  O5'      -28.3890    7.2510  -18.3130 O.3   301  C5P301     -0.2675
      6  C5'      -27.5960    8.1770  -17.5650 C.3   301  C5P301      0.1859
      7  C4'      -27.8530    7.9830  -16.0640 C.3   301  C5P301      0.1801
      8  O4'      -29.1740    8.4380  -15.7620 O.3   301  C5P301     -0.3320
      9  C3'      -27.7620    6.5140  -15.6590 C.3   301  C5P301      0.2158
     10  O3'      -27.1020    6.4250  -14.3860 O.3   301  C5P301     -0.2175
     11  C2'      -29.2240    6.0970  -15.5990 C.3   301  C5P301      0.2319
     12  O2'      -29.4700    5.0320  -14.6850 O.3   301  C5P301     -0.2157
     13  C1'      -29.9450    7.3860  -15.1920 C.3   301  C5P301      0.2400
     14  N1       -31.3530    7.3650  -15.6070 N.am  301  C5P301     -0.1778
     15  C2       -32.3850    7.4430  -14.6200 C.1   301  C5P301      0.2756
     16  O2       -32.0970    7.5680  -13.4100 O.2   301  C5P301     -0.1925
     17  N3       -33.6850    7.3950  -14.9780 N.2   301  C5P301     -0.3024
     18  C4       -34.0150    7.2630  -16.2870 C.2   301  C5P301      0.2346
     19  N4       -35.3130    7.1970  -16.6610 N.pl3 301  C5P301     -0.0921
     20  C5       -33.0220    7.1800  -17.2600 C.2   301  C5P301      0.0687
     21  C6       -31.6820    7.2310  -16.8990 C.2   301  C5P301      0.0836
@<TRIPOS>BOND
     1     3     2    2
     2     4     2    1
     3     2     1    1
     4     2     5    1
     5     5     6    1
     6     6     7    1
     7    20    21    2
     8    20    18    1
     9    21    14    1
    10    19    18    1
    11    18    17    2
    12     7     8    1
    13     7     9    1
    14     8    13    1
    15     9    11    1
    16     9    10    1
    17    14    13    1
    18    14    15   am
    19    11    13    1
    20    11    12    1
    21    17    15    2
    22    15    16    2
