@<TRIPOS>MOLECULE
2xwn_CTP_A_1.pdb
 29 30 0 0 0
SMALL
GASTEIGER

@<TRIPOS>ATOM
      1  N1        24.7270    0.5590   10.2960 N.am  301  CTP301     -0.1778
      2  C2        25.1770    0.4490    8.9660 C.1   301  CTP301      0.2756
      3  N3        26.4990    0.4920    8.6880 N.2   301  CTP301     -0.3024
      4  C4        27.3950    0.6380    9.6880 C.2   301  CTP301      0.2346
      5  C5        26.9590    0.7440   11.0060 C.2   301  CTP301      0.0687
      6  C6        25.5990    0.7010   11.2950 C.2   301  CTP301      0.0836
      7  O2        24.3400    0.3100    8.0430 O.2   301  CTP301     -0.1925
      8  N4        28.7220    0.6810    9.4140 N.pl3 301  CTP301     -0.0921
      9  C1'       23.2890    0.4870   10.5460 C.3   301  CTP301      0.2400
     10  C2'       22.9800   -0.7220   11.4070 C.3   301  CTP301      0.2319
     11  O2'       22.9380   -1.9350   10.6600 O.3   301  CTP301     -0.2157
     12  C3'       21.6650   -0.3510   12.0630 C.3   301  CTP301      0.2158
     13  C4'       21.6950    1.1720   12.1020 C.3   301  CTP301      0.1799
     14  O4'       22.8010    1.5930   11.3020 O.3   301  CTP301     -0.3320
     15  O3'       20.5420   -0.8490   11.3190 O.3   301  CTP301     -0.2175
     16  C5'       21.9370    1.6830   13.5060 C.3   301  CTP301      0.1813
     17  O5'       23.2160    1.2210   13.9500 O.3   301  CTP301     -0.3112
     18  PA        23.3550    0.3230   15.2820 P.3   301  CTP301      0.2189
     19  O1A       24.5720    0.7990   16.0470 O.3   301  CTP301     -0.4371
     20  O2A       22.0040    0.2630   15.9510 O.2   301  CTP301     -0.5170
     21  O3A       23.6350   -1.1340   14.6780 O.3   301  CTP301     -0.2700
     22  PB        25.1110   -1.7710   14.6960 P.3   301  CTP301      0.2277
     23  O1B       26.1550   -0.6990   14.5260 O.3   301  CTP301     -0.4368
     24  O2B       25.0830   -2.9710   13.7690 O.2   301  CTP301     -0.5168
     25  O3B       25.1100   -2.2680   16.2140 O.3   301  CTP301     -0.2258
     26  PG        26.3860   -2.1330   17.1660 P.3   301  CTP301      0.5373
     27  O1G       26.6830   -0.6490   17.1990 O.3   301  CTP301     -0.1143
     28  O2G       27.4590   -2.9480   16.5040 O.2   301  CTP301     -0.2221
     29  O3G       25.8200   -2.7240   18.4360 O.3   301  CTP301     -0.1143
@<TRIPOS>BOND
     1     7     2    2
     2     3     2    2
     3     3     4    2
     4     2     1   am
     5     8     4    1
     6     4     5    1
     7     1     9    1
     8     1     6    1
     9     9    14    1
    10     9    10    1
    11    11    10    1
    12     5     6    2
    13    14    13    1
    14    15    12    1
    15    10    12    1
    16    12    13    1
    17    13    16    1
    18    16    17    1
    19    24    22    2
    20    17    18    1
    21    23    22    1
    22    21    22    1
    23    21    18    1
    24    22    25    1
    25    18    20    2
    26    18    19    1
    27    25    26    1
    28    28    26    2
    29    26    27    1
    30    26    29    1
