@<TRIPOS>MOLECULE
2xwo_SLM_A_1.pdb
 21 21 0 0 0
SMALL
GASTEIGER

@<TRIPOS>ATOM
      1  C1         7.6160   -9.1610  -11.0440 C.2   1309  SLM1309     0.3151
      2  C2         8.8740   -8.9460  -11.9150 C.3   1309  SLM1309     0.2937
      3  C3        10.0680   -8.5340  -11.0110 C.3   1309  SLM1309     0.1034
      4  C4        11.2360   -8.0670  -11.8630 C.3   1309  SLM1309     0.1798
      5  C5        10.7570   -6.9320  -12.7410 C.3   1309  SLM1309     0.1554
      6  C6         9.6220   -7.4670  -13.6250 C.3   1309  SLM1309     0.1733
      7  C7         9.0630   -6.4750  -14.6230 C.3   1309  SLM1309     0.2135
      8  C8         7.9400   -7.1020  -15.4540 C.3   1309  SLM1309     0.2173
      9  C9         7.4400   -6.1460  -16.4930 C.3   1309  SLM1309     0.2175
     10  C10       12.3680   -5.1940  -13.4160 C.2   1309  SLM1309     0.2420
     11  C11       13.4480   -4.7980  -14.4330 C.3   1309  SLM1309     0.0964
     12  N5        11.8540   -6.3950  -13.5840 N.am  1309  SLM1309    -0.2020
     13  O1A        7.2480  -10.3080  -10.7720 O.2   1309  SLM1309    -0.2663
     14  O2         9.1640  -10.1510  -12.6170 O.3   1309  SLM1309    -0.1852
     15  O4        12.3260   -7.6810  -11.0020 O.3   1309  SLM1309    -0.2210
     16  O6         8.5630   -7.9010  -12.7670 O.3   1309  SLM1309    -0.3235
     17  O7         8.5500   -5.3220  -13.9730 O.3   1309  SLM1309    -0.2176
     18  O8         8.3960   -8.3360  -16.0580 O.3   1309  SLM1309    -0.2175
     19  O9         8.3620   -5.7470  -17.4980 O.3   1309  SLM1309    -0.2175
     20  N1         6.9990   -8.0300  -10.6190 N.am  1309  SLM1309    -0.0835
     21  O10       12.0120   -4.4070  -12.5450 O.2   1309  SLM1309    -0.2733
@<TRIPOS>BOND
     1    19     9    1
     2     9     8    1
     3    18     8    1
     4     8     7    1
     5     7    17    1
     6     7     6    1
     7    11    10    1
     8     6    16    1
     9     6     5    1
    10    12    10   am
    11    12     5    1
    12    10    21    2
    13    16     2    1
    14     5     4    1
    15    14     2    1
    16     2     1    1
    17     2     3    1
    18     4     3    1
    19     4    15    1
    20     1    13    2
    21     1    20   am
