@<TRIPOS>MOLECULE
2xwv_SLB_A_1.pdb
 21 21 0 0 0
SMALL
GASTEIGER

@<TRIPOS>ATOM
      1  C1         7.8090   -9.4180  -11.1810 C.2   1310  SLB1310     0.4179
      2  C2         9.1060   -9.1440  -11.9310 C.3   1310  SLB1310     0.3155
      3  C3        10.2290   -8.6480  -11.0230 C.3   1310  SLB1310     0.1056
      4  C4        11.4170   -8.1900  -11.8810 C.3   1310  SLB1310     0.1798
      5  C5        10.9130   -7.1230  -12.8270 C.3   1310  SLB1310     0.1554
      6  C6         9.8400   -7.6650  -13.7080 C.3   1310  SLB1310     0.1734
      7  C7         9.2000   -6.6810  -14.6580 C.3   1310  SLB1310     0.2135
      8  C8         8.0540   -7.3050  -15.4760 C.3   1310  SLB1310     0.2173
      9  C9         7.4890   -6.3670  -16.4900 C.3   1310  SLB1310     0.2175
     10  C10       12.5310   -5.3940  -13.5480 C.2   1310  SLB1310     0.2420
     11  C11       13.6120   -5.0250  -14.5340 C.3   1310  SLB1310     0.0964
     12  N5        12.0030   -6.6120  -13.6630 N.am  1310  SLB1310    -0.2020
     13  O1A        7.4070  -10.5950  -11.1370 O.co2 1310  SLB1310    -0.2401
     14  O1B        7.2350   -8.4320  -10.6790 O.co2 1310  SLB1310    -0.2401
     15  O2         9.5070  -10.2810  -12.6600 O.3   1310  SLB1310    -0.1830
     16  O4        12.4420   -7.7140  -10.9960 O.3   1310  SLB1310    -0.2210
     17  O6         8.7410   -8.1660  -12.8860 O.3   1310  SLB1310    -0.3220
     18  O7         8.7020   -5.5520  -13.9470 O.3   1310  SLB1310    -0.2176
     19  O8         8.4340   -8.5290  -16.0510 O.3   1310  SLB1310    -0.2175
     20  O9         8.4450   -5.9080  -17.4590 O.3   1310  SLB1310    -0.2175
     21  O10       12.1650   -4.6010  -12.6810 O.2   1310  SLB1310    -0.2733
@<TRIPOS>BOND
     1    20     9    1
     2     9     8    1
     3    19     8    1
     4     8     7    1
     5     7    18    1
     6     7     6    1
     7    11    10    1
     8     6    17    1
     9     6     5    1
    10    12    10   am
    11    12     5    1
    12    10    21    2
    13    17     2    1
    14     5     4    1
    15    15     2    1
    16     2     1    1
    17     2     3    1
    18     4     3    1
    19     4    16    1
    20     1    13   ar
    21     1    14   ar
