@<TRIPOS>MOLECULE
2xwy_IB8_A_1.pdb
 35 39 0 0 0
SMALL
GASTEIGER

@<TRIPOS>ATOM
      1  C28       24.6520   11.7910    4.9500 C.3   1532  IB81532     0.2231
      2  C30       26.5410    9.3280    2.7130 C.3   1532  IB81532     0.0898
      3  N3        25.3650    9.9750    3.3750 N.3   1532  IB81532    -0.2668
      4  C31       24.3790    8.9850    3.8790 C.3   1532  IB81532     0.0898
      5  C25       28.0670    7.2680    0.9840 C.3   1532  IB81532     0.0897
      6  N2        27.2640    8.4020    0.4740 N.3   1532  IB81532    -0.2691
      7  C24       26.7190    7.9990   -0.8460 C.3   1532  IB81532     0.0897
      8  C22       26.6190   10.3770    5.6100 C.3   1532  IB81532     0.1257
      9  N1        27.7700   11.2370    6.0080 N.ar  1532  IB81532    -0.3258
     10  C1        29.0320   11.1310    5.5800 C.ar  1532  IB81532     0.0598
     11  C6        29.5840   10.2500    4.6710 C.ar  1532  IB81532     0.0238
     12  C5        30.9370   10.3350    4.3650 C.ar  1532  IB81532     0.0812
     13  C8        31.4890    9.3250    3.3770 C.2   1532  IB81532     0.3878
     14  O2        30.6700    8.8780    2.5180 O.co2 1532  IB81532    -0.2406
     15  O1        32.6890    8.9600    3.5520 O.co2 1532  IB81532    -0.2406
     16  C4        31.7660   11.2870    4.9650 C.ar  1532  IB81532     0.0067
     17  C3        31.2070   12.1890    5.8740 C.ar  1532  IB81532     0.0014
     18  C2        29.8410   12.1040    6.1730 C.ar  1532  IB81532     0.0132
     19  C7        28.9950   12.8170    7.0050 C.ar  1532  IB81532    -0.0052
     20  C16       29.4100   14.0030    7.9220 C.3   1532  IB81532     0.0238
     21  C17       30.6340   13.5840    8.7730 C.3   1532  IB81532     0.0044
     22  C20       31.2030   14.7380    9.6350 C.3   1532  IB81532     0.0003
     23  C21       31.6230   15.8920    8.7230 C.3   1532  IB81532     0.0000
     24  C19       30.3790   16.3970    7.9670 C.3   1532  IB81532     0.0003
     25  C23       25.8250   10.9570    4.4170 C.3   1532  IB81532     0.1244
     26  C18       29.7350   15.2860    7.1160 C.3   1532  IB81532     0.0044
     27  C9        27.7110   12.2740    6.8930 C.ar  1532  IB81532     0.0588
     28  C10       26.5510   12.6660    7.5480 C.ar  1532  IB81532     0.0494
     29  C11       26.5690   12.7330    8.9360 C.ar  1532  IB81532     0.0044
     30  C12       25.4380   13.1380    9.6380 C.ar  1532  IB81532     0.0002
     31  C13       24.2760   13.4820    8.9530 C.ar  1532  IB81532     0.0031
     32  C14       24.2490   13.4310    7.5590 C.ar  1532  IB81532     0.0369
     33  C15       25.3940   13.0290    6.8590 C.ar  1532  IB81532     0.1399
     34  O3        25.3490   12.9870    5.4880 O.3   1532  IB81532    -0.4739
     35  C26       26.1190    8.7440    1.3550 C.3   1532  IB81532     0.0897
@<TRIPOS>BOND
     1     7     6    1
     2     6     5    1
     3     6    35    1
     4    35     2    1
     5    14    13   ar
     6     2     3    1
     7     3     4    1
     8     3    25    1
     9    13    15   ar
    10    13    12    1
    11    12    11   ar
    12    12    16   ar
    13    25     1    1
    14    25     8    1
    15    11    10   ar
    16     1    34    1
    17    16    17   ar
    18    34    33    1
    19    10     9   ar
    20    10    18   ar
    21     8     9    1
    22    17    18   ar
    23     9    27   ar
    24    18    19   ar
    25    33    28   ar
    26    33    32   ar
    27    27    19   ar
    28    27    28    1
    29    19    20    1
    30    26    20    1
    31    26    24    1
    32    28    29   ar
    33    32    31   ar
    34    20    21    1
    35    24    23    1
    36    23    22    1
    37    21    22    1
    38    29    30   ar
    39    31    30   ar
