@<TRIPOS>MOLECULE
2xx2_13C_A_1.pdb
 23 24 0 0 0
SMALL
GASTEIGER

@<TRIPOS>ATOM
      1  C1        12.0590   15.1390    6.2820 C.1   1215  13C1215     0.1529
      2  C2        11.3010   15.8100    5.1330 C.ar  1215  13C1215     0.1190
      3  C3        11.1010   17.1880    5.1920 C.ar  1215  13C1215     0.2095
      4  C4        10.4330   17.8550    4.1680 C.ar  1215  13C1215     0.0856
      5  C5         9.9590   17.1010    3.0910 C.ar  1215  13C1215     0.2091
      6  C6        10.1630   15.7260    3.0370 C.ar  1215  13C1215     0.0938
      7  C7        10.8330   15.0680    4.0560 C.ar  1215  13C1215     0.0130
      8  C8        11.0300   13.5430    3.9620 C.3   1215  13C1215     0.0925
      9  C9         9.7690   12.6610    4.0870 C.2   1215  13C1215     0.1551
     10  C10        9.8710   11.1480    3.8670 C.3   1215  13C1215     0.0649
     11  C11        9.9940   10.4700    5.2490 C.3   1215  13C1215     0.0081
     12  C12        8.6040   10.4170    5.9120 C.3   1215  13C1215     0.0051
     13  C13        8.7750   10.3980    7.4420 C.3   1215  13C1215     0.0257
     14  C14        9.3350   11.7410    7.9450 C.2   1215  13C1215    -0.0306
     15  C15       10.6830   11.8000    8.5260 C.2   1215  13C1215    -0.0286
     16  C16       11.1370   13.0330    9.3340 C.3   1215  13C1215     0.0529
     17  C17       12.0720   13.9120    8.4790 C.3   1215  13C1215     0.1425
     18  O2        13.2480   15.2980    6.3700 O.2   1215  13C1215    -0.2222
     19  O3        11.6070   17.8900    6.3150 O.3   1215  13C1215    -0.2857
     20  O4         9.2670   17.7310    2.0230 O.3   1215  13C1215    -0.2856
     21 CL1         9.5770   14.8320    1.6510 Cl    1215  13C1215    -0.0792
     22  N1        11.3500   14.3310    7.2690 N.2   1215  13C1215    -0.2021
     23  O5         8.7090   13.1460    4.3860 O.2   1215  13C1215    -0.2957
@<TRIPOS>BOND
     1    21     6    1
     2    20     5    1
     3     6     5   ar
     4     6     7   ar
     5     5     4   ar
     6    10     9    1
     7    10    11    1
     8     8     7    1
     9     8     9    1
    10     7     2   ar
    11     9    23    2
    12     4     3   ar
    13     2     3   ar
    14     2     1    1
    15     3    19    1
    16    11    12    1
    17    12    13    1
    18     1    18    2
    19     1    22    2
    20    22    17    1
    21    13    14    1
    22    14    15    2
    23    17    16    1
    24    15    16    1
