@<TRIPOS>MOLECULE
2xx3_ADP_A_1.pdb
 27 29 0 0 0
SMALL
GASTEIGER

@<TRIPOS>ATOM
      1  PB       -26.1250    8.6660    7.0380 P.3   302  ADP302      0.5373
      2  O1B      -25.8530   10.1580    6.9530 O.2   302  ADP302     -0.2221
      3  O2B      -24.9330    7.8550    7.5240 O.3   302  ADP302     -0.1143
      4  O3B      -27.3490    8.3850    7.9060 O.3   302  ADP302     -0.1143
      5  PA       -26.1300    7.0020    4.7730 P.3   302  ADP302      0.2231
      6  O1A      -26.4170    5.8490    5.7170 O.3   302  ADP302     -0.4370
      7  O2A      -24.7030    6.9370    4.2180 O.2   302  ADP302     -0.5169
      8  O3A      -26.4040    8.3120    5.5360 O.3   302  ADP302     -0.2261
      9  O5'      -27.1280    6.9760    3.5200 O.3   302  ADP302     -0.3111
     10  C5'      -28.5210    6.8820    3.8560 C.3   302  ADP302      0.1813
     11  C4'      -29.3060    6.2930    2.6830 C.3   302  ADP302      0.1821
     12  O4'      -29.2600    7.1800    1.5490 O.3   302  ADP302     -0.3135
     13  C3'      -28.7950    4.9320    2.2150 C.3   302  ADP302      0.2184
     14  O3'      -29.8500    4.0970    1.8000 O.3   302  ADP302     -0.2174
     15  C2'      -27.8240    5.2950    1.1040 C.3   302  ADP302      0.2570
     16  O2'      -27.6700    4.2000    0.1940 O.3   302  ADP302     -0.2130
     17  C1'      -28.5510    6.4800    0.4870 C.3   302  ADP302      0.3186
     18  N9       -27.7080    7.4540   -0.1600 N.pl3 302  ADP302     -0.1439
     19  C8       -26.4310    7.8440    0.1660 C.3   302  ADP302      0.3377
     20  N7       -25.9990    8.7820   -0.6520 N.2   302  ADP302     -0.2095
     21  C5       -27.0470    9.0080   -1.5370 C.2   302  ADP302      0.2526
     22  C6       -27.2360    9.8800   -2.6490 C.2   302  ADP302      0.4393
     23  N6       -26.2830   10.7670   -3.0780 N.pl3 302  ADP302      0.2180
     24  N1       -28.4400    9.8580   -3.3340 N.2   302  ADP302      0.0021
     25  C2       -29.4240    8.9870   -2.9340 C.3   302  ADP302      0.5254
     26  N3       -29.3510    8.1120   -1.8860 N.2   302  ADP302     -0.0055
     27  C4       -28.1290    8.1780   -1.2350 C.2   302  ADP302      0.3518
@<TRIPOS>BOND
     1    24    25    1
     2    24    22    2
     3    23    22    1
     4    25    26    1
     5    22    21    1
     6    26    27    2
     7    21    27    1
     8    21    20    2
     9    27    18    1
    10    20    19    1
    11    18    19    1
    12    18    17    1
    13    16    15    1
    14    17    15    1
    15    17    12    1
    16    15    13    1
    17    12    11    1
    18    14    13    1
    19    13    11    1
    20    11    10    1
    21     9    10    1
    22     9     5    1
    23     7     5    2
    24     5     8    1
    25     5     6    1
    26     8     1    1
    27     2     1    2
    28     1     3    1
    29     1     4    1
