@<TRIPOS>MOLECULE
2xx3_TAE_A_1.pdb
 21 21 0 0 0
SMALL
GASTEIGER

@<TRIPOS>ATOM
      1  N1       -25.8330    9.6160   18.0510 N.am  1213  TAE1213    -0.1993
      2  C2       -26.1370   10.2270   19.2860 C.1   1213  TAE1213     0.2829
      3  O2       -27.2640   10.1350   19.7740 O.2   1213  TAE1213    -0.1919
      4  N3       -25.1290   10.9280   19.9780 N.2   1213  TAE1213    -0.2456
      5  C4       -23.8310   11.0170   19.4370 C.1   1213  TAE1213     0.2134
      6  O4       -22.9550   11.6120   20.0610 O.2   1213  TAE1213    -0.2088
      7  C5       -23.5360   10.4090   18.2170 C.2   1213  TAE1213     0.0890
      8  C6       -24.5300    9.7180   17.5250 C.2   1213  TAE1213     0.0857
      9  PA       -27.4330    4.3430   15.6180 P.3   1213  TAE1213     0.3816
     10  PB       -26.9500    4.7680   12.7850 P.3   1213  TAE1213     0.5389
     11  C1'      -26.8650    8.8460   17.3100 C.3   1213  TAE1213     0.1348
     12  O1A      -27.5690    3.0710   16.3640 O.3   1213  TAE1213    -0.1391
     13  O1B      -25.4450    4.9060   12.2620 O.3   1213  TAE1213    -0.1143
     14  C2'      -26.6100    7.4850   17.4440 C.2   1213  TAE1213    -0.0075
     15  O2A      -28.6230    5.1940   15.4150 O.2   1213  TAE1213    -0.2547
     16  O2B      -27.8270    4.0660   11.8210 O.2   1213  TAE1213    -0.2220
     17  C3'      -26.4080    6.7070   16.3080 C.2   1213  TAE1213    -0.0162
     18  O3A      -26.8030    4.0050   14.1860 O.3   1213  TAE1213    -0.2028
     19  O3B      -27.4420    6.2520   13.1250 O.3   1213  TAE1213    -0.1143
     20  C4'      -26.1470    5.3460   16.4220 C.3   1213  TAE1213     0.1442
     21  C5M      -22.1350   10.5180   17.6110 C.3   1213  TAE1213     0.0462
@<TRIPOS>BOND
     1    16    10    2
     2    13    10    1
     3    10    19    1
     4    10    18    1
     5    18     9    1
     6    15     9    2
     7     9    12    1
     8     9    20    1
     9    17    20    1
    10    17    14    2
    11    11    14    1
    12    11     1    1
    13     8     1    1
    14     8     7    2
    15    21     7    1
    16     1     2   am
    17     7     5    1
    18     2     3    2
    19     2     4    2
    20     5     4    2
    21     5     6    2
