@<TRIPOS>MOLECULE
2xx4_13I_A_1.pdb
 28 29 0 0 0
SMALL
GASTEIGER

@<TRIPOS>ATOM
      1  C01      -19.8690    4.6060   -4.6370 C.ar  1215  13I1215     0.2095
      2  C02      -19.9290    5.5670   -3.5110 C.ar  1215  13I1215     0.0856
      3  C03      -19.0490    5.3540   -2.3820 C.ar  1215  13I1215     0.2091
      4  C04      -18.1010    4.1900   -2.3580 C.ar  1215  13I1215     0.0938
      5  C05      -18.0410    3.2140   -3.4850 C.ar  1215  13I1215     0.0130
      6  C06      -18.8970    3.4220   -4.6050 C.ar  1215  13I1215     0.1190
      7  C07      -18.9320    2.4760   -5.7590 C.1   1215  13I1215     0.1529
      8  O08      -19.9260    1.7710   -5.9160 O.2   1215  13I1215    -0.2222
      9  N09      -17.8310    2.4350   -6.6650 N.2   1215  13I1215    -0.2021
     10  C10      -17.8690    1.6280   -7.8870 C.3   1215  13I1215     0.1425
     11  C11      -16.5480    1.5590   -8.6220 C.3   1215  13I1215     0.0529
     12  C12      -15.3470    1.1440   -7.8180 C.2   1215  13I1215    -0.0286
     13  C13      -14.3570    2.0690   -7.4380 C.2   1215  13I1215    -0.0306
     14  C14      -13.2240    1.6740   -6.4840 C.3   1215  13I1215     0.0257
     15  C15      -13.4270    0.4550   -5.6310 C.3   1215  13I1215     0.0057
     16  C16      -14.3810    0.5620   -4.4450 C.3   1215  13I1215     0.0189
     17  C17      -14.3050    1.8470   -3.6850 C.3   1215  13I1215     0.1565
     18  C18      -15.6050    2.6820   -3.6890 C.2   1215  13I1215     0.1653
     19  C19      -16.9860    2.1230   -3.4560 C.3   1215  13I1215     0.0931
     20  O20      -15.4790    3.8610   -3.9760 O.2   1215  13I1215    -0.2951
     21  C21      -13.6250    1.8190   -2.3470 C.2   1215  13I1215     0.3236
     22  O22      -13.4100    2.9070   -1.7970 O.2   1215  13I1215    -0.2496
     23  O23      -12.8610    0.8350   -2.0140 O.3   1215  13I1215    -0.4482
     24  C24      -12.3450    0.8460   -0.6790 C.3   1215  13I1215     0.2086
     25  C25      -10.9580    1.3700   -0.4830 C.3   1215  13I1215     0.0513
     26 CL        -17.1330    3.9160   -0.9510 Cl    1215  13I1215    -0.0792
     27  O27      -19.0420    6.2340   -1.3250 O.3   1215  13I1215    -0.2856
     28  O28      -20.6540    4.7410   -5.7530 O.3   1215  13I1215    -0.2857
@<TRIPOS>BOND
     1    11    10    1
     2    11    12    1
     3    10     9    1
     4    12    13    2
     5    13    14    1
     6     9     7    2
     7    14    15    1
     8     8     7    2
     9     7     6    1
    10    28     1    1
    11    15    16    1
    12     1     6   ar
    13     1     2   ar
    14     6     5   ar
    15    16    17    1
    16    20    18    2
    17    18    17    1
    18    18    19    1
    19    17    21    1
    20     2     3   ar
    21     5    19    1
    22     5     4   ar
    23     3     4   ar
    24     3    27    1
    25     4    26    1
    26    21    23    1
    27    21    22    2
    28    23    24    1
    29    24    25    1
