@<TRIPOS>MOLECULE
2xx5_13N_A_1.pdb
 33 35 0 0 0
SMALL
GASTEIGER

@<TRIPOS>ATOM
      1  CAL       16.6050   -2.2540    0.8200 C.ar  1215  13N1215    -0.0026
      2  CAJ       17.6050   -2.2590   -0.1120 C.ar  1215  13N1215    -0.0003
      3  CAI       17.8120   -1.1660   -0.8690 C.ar  1215  13N1215    -0.0000
      4  CAK       16.9960   -0.0780   -0.6970 C.ar  1215  13N1215    -0.0003
      5  CAM       16.0070   -0.0570    0.2250 C.ar  1215  13N1215    -0.0026
      6  CBC       15.8070   -1.1580    0.9970 C.ar  1215  13N1215    -0.0006
      7  CAT       14.7040   -1.1930    2.0300 C.3   1215  13N1215     0.1415
      8  NAW       15.0020   -0.2860    3.1120 N.am  1215  13N1215    -0.2002
      9  CAZ       14.3790    0.8510    3.2770 C.2   1215  13N1215     0.2483
     10  OAC       13.5700    1.3280    2.5090 O.2   1215  13N1215    -0.2729
     11  CBG       14.8350    1.5750    4.4840 C.3   1215  13N1215     0.1358
     12  CAS       13.6580    2.2200    5.1590 C.3   1215  13N1215     0.0169
     13  CAQ       13.0300    1.2240    6.0900 C.3   1215  13N1215     0.0056
     14  CAO       13.7560    1.1390    7.3880 C.3   1215  13N1215     0.0257
     15  CAG       15.0880    0.8370    7.2490 C.2   1215  13N1215    -0.0306
     16  CAH       15.8760    1.0920    8.3410 C.2   1215  13N1215    -0.0286
     17  CAP       17.2200    0.8510    8.3490 C.3   1215  13N1215     0.0529
     18  CAR       18.0240    2.0770    8.0500 C.3   1215  13N1215     0.1425
     19  NAV       17.9180    2.4960    6.6810 N.2   1215  13N1215    -0.2021
     20  CAY       19.0970    2.6000    5.8580 C.1   1215  13N1215     0.1529
     21  OAB       20.1000    1.9960    6.1090 O.2   1215  13N1215    -0.2222
     22  CBF       19.0540    3.5090    4.6700 C.ar  1215  13N1215     0.1190
     23  CBB       19.9340    4.5660    4.6850 C.ar  1215  13N1215     0.2095
     24  OAE       20.7070    4.7190    5.7280 O.3   1215  13N1215    -0.2857
     25  CAN       19.9680    5.4340    3.6420 C.ar  1215  13N1215     0.0856
     26  CBA       19.1350    5.2350    2.5920 C.ar  1215  13N1215     0.2091
     27  OAD       19.1700    6.0630    1.5840 O.3   1215  13N1215    -0.2856
     28  CBD       18.2700    4.1600    2.5740 C.ar  1215  13N1215     0.0938
     29 CL1        17.2650    3.9730    1.2310 Cl    1215  13N1215    -0.0792
     30  CBE       18.2160    3.2790    3.6210 C.ar  1215  13N1215     0.0130
     31  CAU       17.2540    2.1120    3.6260 C.3   1215  13N1215     0.0930
     32  CAX       15.8430    2.5820    4.0040 C.2   1215  13N1215     0.1634
     33  OAA       15.5030    3.7240    3.8830 O.2   1215  13N1215    -0.2952
@<TRIPOS>BOND
     1     3     4   ar
     2     3     2   ar
     3     4     5   ar
     4     2     1   ar
     5     5     6   ar
     6     1     6   ar
     7     6     7    1
     8    29    28    1
     9    27    26    1
    10     7     8    1
    11    10     9    2
    12    28    26   ar
    13    28    30   ar
    14    26    25   ar
    15     8     9   am
    16     9    11    1
    17    30    31    1
    18    30    22   ar
    19    31    32    1
    20    25    23   ar
    21    33    32    2
    22    32    11    1
    23    11    12    1
    24    22    23   ar
    25    22    20    1
    26    23    24    1
    27    12    13    1
    28    20    21    2
    29    20    19    2
    30    13    14    1
    31    19    18    1
    32    15    14    1
    33    15    16    2
    34    18    17    1
    35    16    17    1
