@<TRIPOS>MOLECULE
2xx7_GLU_A_1.pdb
 10 9 0 0 0
SMALL
GASTEIGER

@<TRIPOS>ATOM
      1  N         75.0020   26.7830   43.2170 N.3   301  GLU301     -0.1208
      2  CA        76.0760   25.7700   43.5030 C.3   301  GLU301      0.1949
      3  C         76.1940   25.5080   45.0020 C.2   301  GLU301      0.3819
      4  O         77.0250   24.6810   45.4640 O.co2 301  GLU301     -0.2441
      5  CB        77.4220   26.2050   42.9390 C.3   301  GLU301      0.0424
      6  CG        77.5630   26.0740   41.3920 C.3   301  GLU301      0.1161
      7  CD        77.6270   24.6410   40.8970 C.2   301  GLU301      0.3649
      8  OE1       77.8840   23.7610   41.7460 O.co2 301  GLU301     -0.2457
      9  OE2       77.4750   24.4040   39.6510 O.co2 301  GLU301     -0.2457
     10  OXT       75.4160   26.0800   45.7930 O.co2 301  GLU301     -0.2441
@<TRIPOS>BOND
     1     9     7   ar
     2     7     6    1
     3     7     8   ar
     4     6     5    1
     5     5     2    1
     6     1     2    1
     7     2     3    1
     8     3     4   ar
     9     3    10   ar
