@<TRIPOS>MOLECULE
2xx7_1ND_A_1.pdb
 26 29 0 0 0
SMALL
GASTEIGER

@<TRIPOS>ATOM
      1  O         62.1370   22.5650   40.0130 O.2   310  1ND310     -0.2699
      2  C15       61.7250   22.6950   41.1620 C.2   310  1ND310      0.2490
      3  N3        61.6340   21.6470   41.9800 N.am  310  1ND310     -0.2761
      4  C16       61.9550   21.7190   43.3980 C.3   310  1ND310      0.0938
      5  C17       62.2670   20.2670   43.7550 C.3   310  1ND310      0.0233
      6  C18       61.5640   19.4170   42.7110 C.3   310  1ND310      0.0233
      7  C19       61.2540   20.3190   41.5230 C.3   310  1ND310      0.0938
      8  C12       61.3180   24.0520   41.6680 C.ar  310  1ND310      0.0537
      9  C11       62.2230   24.9210   42.2570 C.ar  310  1ND310      0.0061
     10  C10       61.7950   26.1680   42.7130 C.ar  310  1ND310      0.0193
     11  C13       60.0060   24.4570   41.5570 C.ar  310  1ND310      0.0061
     12  C14       59.6110   25.7020   42.0250 C.ar  310  1ND310      0.0193
     13  C9        60.4540   26.5500   42.7310 C.ar  310  1ND310      0.0824
     14  N2        59.9750   27.6660   43.3120 N.ar  310  1ND310     -0.2341
     15  N1        59.0370   27.6540   44.3720 N.ar  310  1ND310     -0.1617
     16  C3        60.3020   28.9040   42.9160 C.ar  310  1ND310      0.0579
     17  C8        59.5680   29.7700   43.7430 C.ar  310  1ND310      0.0148
     18  C2        58.8250   28.9800   44.6100 C.ar  310  1ND310      0.1696
     19  C1        57.8550   29.3290   45.6990 C.3   310  1ND310      0.4362
     20  F1        57.6210   30.6250   45.6950 F     310  1ND310     -0.1644
     21  F2        58.3150   28.9730   46.8840 F     310  1ND310     -0.1644
     22  F3        56.7220   28.7190   45.4480 F     310  1ND310     -0.1644
     23  C7        59.6170   31.2710   43.6790 C.3   310  1ND310      0.0291
     24  C6        60.7170   31.6610   42.6940 C.3   310  1ND310      0.0052
     25  C5        60.7340   30.7520   41.4640 C.3   310  1ND310      0.0066
     26  C4        61.2350   29.3680   41.8340 C.3   310  1ND310      0.0456
@<TRIPOS>BOND
     1     1     2    2
     2     2     8    1
     3     2     3   am
     4    25    26    1
     5    25    24    1
     6     7     3    1
     7     7     6    1
     8    11     8   ar
     9    11    12   ar
    10     8     9   ar
    11    26    16    1
    12     3     4    1
    13    12    13   ar
    14     9    10   ar
    15    24    23    1
    16     6     5    1
    17    10    13   ar
    18    13    14    1
    19    16    14   ar
    20    16    17   ar
    21    14    15   ar
    22     4     5    1
    23    23    17    1
    24    17    18   ar
    25    15    18   ar
    26    18    19    1
    27    22    19    1
    28    20    19    1
    29    19    21    1
