@<TRIPOS>MOLECULE
2xx8_1NE_A_1.pdb
 25 27 0 0 0
SMALL
GASTEIGER

@<TRIPOS>ATOM
      1  C1        61.8100   20.5750   42.7860 C.3   310  1NE310      0.1152
      2  N2        62.1080   21.7990   42.0280 N.am  310  1NE310     -0.2726
      3  C3        61.4680   21.8560   40.7320 C.3   310  1NE310      0.1152
      4  C4        62.4570   22.8510   42.7770 C.2   310  1NE310      0.2491
      5  O5        63.2590   22.7420   43.6930 O.2   310  1NE310     -0.2699
      6  C6        62.0780   24.2840   42.8710 C.ar  310  1NE310      0.0537
      7  C7        62.9700   25.3860   42.9750 C.ar  310  1NE310      0.0061
      8  C8        62.4180   26.6450   43.0670 C.ar  310  1NE310      0.0193
      9  C9        61.0110   26.7300   43.0690 C.ar  310  1NE310      0.0824
     10  C10       60.1350   25.6650   42.9690 C.ar  310  1NE310      0.0193
     11  C11       60.6710   24.4050   42.8740 C.ar  310  1NE310      0.0061
     12  N12       60.3990   28.0150   43.1980 N.ar  310  1NE310     -0.2341
     13  N13       59.5240   28.1490   44.3530 N.ar  310  1NE310     -0.1617
     14  C14       59.2160   29.4150   44.7270 C.ar  310  1NE310      0.1696
     15  C15       59.8410   30.2590   43.9320 C.ar  310  1NE310      0.0148
     16  C16       59.9140   31.7990   43.8670 C.3   310  1NE310      0.0291
     17  C17       60.9150   32.3680   42.8500 C.3   310  1NE310      0.0048
     18  C18       61.0980   31.5750   41.5440 C.3   310  1NE310      0.0066
     19  C19       61.5060   30.1350   41.8440 C.3   310  1NE310      0.0456
     20  C20       60.7280   29.4060   43.0310 C.ar  310  1NE310      0.0579
     21  C21       58.2820   29.6770   45.8850 C.3   310  1NE310      0.4362
     22  F22       57.8170   30.8790   45.8720 F     310  1NE310     -0.1644
     23  F23       57.1530   29.0440   45.6390 F     310  1NE310     -0.1644
     24  F24       58.7710   29.3040   47.0480 F     310  1NE310     -0.1644
     25  C1        61.2760   32.2000   43.0150 C.3   310  1NE310      0.0004
@<TRIPOS>BOND
     1     3     2    1
     2    18    19    1
     3    18    17    1
     4    19    20    1
     5     2     4   am
     6     2     1    1
     7     4     6    1
     8     4     5    2
     9    17    25    1
    10    17    16    1
    11     6    11   ar
    12     6     7   ar
    13    11    10   ar
    14    10     9   ar
    15     7     8   ar
    16    20    12   ar
    17    20    15   ar
    18     8     9   ar
    19     9    12    1
    20    12    13   ar
    21    16    15    1
    22    15    14   ar
    23    13    14   ar
    24    14    21    1
    25    23    21    1
    26    22    21    1
    27    21    24    1
