@<TRIPOS>MOLECULE
2xx8_GLU_A_1.pdb
 10 9 0 0 0
SMALL
GASTEIGER

@<TRIPOS>ATOM
      1  N         75.4940   27.2470   43.2850 N.3   301  GLU301     -0.1208
      2  CA        76.5270   26.1950   43.5370 C.3   301  GLU301      0.1949
      3  C         76.6240   25.9190   45.0170 C.2   301  GLU301      0.3819
      4  O         77.4540   25.1030   45.4110 O.co2 301  GLU301     -0.2441
      5  CB        77.8960   26.6070   43.0000 C.3   301  GLU301      0.0424
      6  CG        78.0210   26.4880   41.4890 C.3   301  GLU301      0.1161
      7  CD        78.0700   25.0480   40.9930 C.2   301  GLU301      0.3649
      8  OE1       78.3190   24.1040   41.7960 O.co2 301  GLU301     -0.2457
      9  OE2       77.8680   24.8540   39.7680 O.co2 301  GLU301     -0.2457
     10  OXT       75.9050   26.5070   45.8370 O.co2 301  GLU301     -0.2441
@<TRIPOS>BOND
     1     9     7   ar
     2     7     6    1
     3     7     8   ar
     4     6     5    1
     5     5     2    1
     6     1     2    1
     7     2     3    1
     8     3     4   ar
     9     3    10   ar
