@<TRIPOS>MOLECULE
2xx9_1NF_A_1.pdb
 27 30 0 0 0
SMALL
GASTEIGER

@<TRIPOS>ATOM
      1  F2        57.7600   29.0480   45.5280 F     310  1NF310     -0.1644
      2  C19       58.8490   29.9480   45.6080 C.3   310  1NF310      0.4362
      3  F3        58.4980   31.3010   45.4820 F     310  1NF310     -0.1644
      4  F4        59.3760   29.7930   46.8870 F     310  1NF310     -0.1644
      5  C12       59.8170   29.5710   44.4960 C.ar  310  1NF310      0.1696
      6  N3        60.0990   28.3310   44.1990 N.ar  310  1NF310     -0.1617
      7  C13       60.5200   30.4040   43.6090 C.ar  310  1NF310      0.0148
      8  C18       61.2680   29.6160   42.7950 C.ar  310  1NF310      0.0579
      9  C17       62.1690   30.1270   41.7000 C.3   310  1NF310      0.0456
     10  C16       62.4530   31.6320   41.8520 C.3   310  1NF310      0.0066
     11  C15       61.1920   32.4020   42.2210 C.3   310  1NF310      0.0052
     12  C14       60.5550   31.9190   43.5390 C.3   310  1NF310      0.0291
     13  N2        60.9970   28.3280   43.1220 N.ar  310  1NF310     -0.2340
     14  C3        61.5360   27.1690   42.5790 C.ar  310  1NF310      0.0846
     15  C2        60.7360   26.0570   42.3560 C.ar  310  1NF310      0.0485
     16  C4        62.9010   27.1070   42.3280 C.ar  310  1NF310      0.0190
     17  C5        63.4510   25.9480   41.8190 C.ar  310  1NF310      0.0012
     18  C6        62.6600   24.8190   41.5970 C.ar  310  1NF310      0.0253
     19  C1        61.2890   24.8860   41.8480 C.ar  310  1NF310      0.1392
     20  F1        60.4850   23.8080   41.6340 F     310  1NF310     -0.2044
     21  C7        63.2980   23.5650   41.0180 C.3   310  1NF310      0.1223
     22  N1        63.1820   22.3960   41.9230 N.am  310  1NF310     -0.2753
     23  C11       62.6130   21.2140   41.6040 C.2   310  1NF310      0.2259
     24  O1        62.1950   20.9110   40.5200 O.2   310  1NF310     -0.2749
     25  C10       62.5270   20.3030   42.8180 C.3   310  1NF310      0.0870
     26  C9        63.6370   20.8670   43.7230 C.3   310  1NF310      0.0311
     27  C8        63.6680   22.3670   43.3110 C.3   310  1NF310      0.0942
@<TRIPOS>BOND
     1    24    23    2
     2    21    18    1
     3    21    22    1
     4    18    17   ar
     5    18    19   ar
     6    23    22   am
     7    23    25    1
     8    20    19    1
     9     9    10    1
    10     9     8    1
    11    17    16   ar
    12    19    15   ar
    13    10    11    1
    14    22    27    1
    15    11    12    1
    16    16    14   ar
    17    15    14   ar
    18    14    13    1
    19     8    13   ar
    20     8     7   ar
    21    25    26    1
    22    13     6   ar
    23    27    26    1
    24    12     7    1
    25     7     5   ar
    26     6     5   ar
    27     5     2    1
    28     3     2    1
    29     1     2    1
    30     2     4    1
