@<TRIPOS>MOLECULE
2xx9_GLU_A_1.pdb
 10 9 0 0 0
SMALL
GASTEIGER

@<TRIPOS>ATOM
      1  N         76.1580   27.2290   42.9860 N.3   301  GLU301     -0.1208
      2  CA        77.2440   26.2020   43.2590 C.3   301  GLU301      0.1949
      3  C         77.4090   25.9200   44.7480 C.2   301  GLU301      0.3819
      4  O         78.2930   25.1410   45.1330 O.co2 301  GLU301     -0.2441
      5  CB        78.5770   26.6420   42.6750 C.3   301  GLU301      0.0424
      6  CG        78.6590   26.4710   41.2020 C.3   301  GLU301      0.1161
      7  CD        78.7100   25.0160   40.7200 C.2   301  GLU301      0.3649
      8  OE1       78.9960   24.0870   41.5300 O.co2 301  GLU301     -0.2457
      9  OE2       78.4720   24.8260   39.4890 O.co2 301  GLU301     -0.2457
     10  OXT       76.6410   26.4610   45.5590 O.co2 301  GLU301     -0.2441
@<TRIPOS>BOND
     1     9     7   ar
     2     7     6    1
     3     7     8   ar
     4     6     5    1
     5     5     2    1
     6     1     2    1
     7     2     3    1
     8     3     4   ar
     9     3    10   ar
