@<TRIPOS>MOLECULE
2xxa_GCP_A_1.pdb
 32 34 0 0 0
SMALL
GASTEIGER

@<TRIPOS>ATOM
      1  PG       -49.1730   -2.8940   13.1720 P.3   600  GCP600      0.1295
      2  O1G      -50.2770   -2.4640   14.0620 O.3   600  GCP600     -0.3567
      3  O2G      -49.7160   -3.0990   11.7910 O.2   600  GCP600     -0.4595
      4  O3G      -48.0230   -1.9420   13.2100 O.3   600  GCP600     -0.3567
      5  C3B      -48.6110   -4.5180   13.7530 C.3   600  GCP600      0.1768
      6  PB       -48.2980   -4.5250   15.5410 P.3   600  GCP600      0.3815
      7  O1B      -47.1230   -3.6630   15.8790 O.2   600  GCP600     -0.2547
      8  O2B      -49.5730   -4.2500   16.2270 O.3   600  GCP600     -0.1391
      9  O3A      -47.8380   -6.0170   15.8630 O.3   600  GCP600     -0.2483
     10  PA       -48.7300   -7.3140   16.1500 P.3   600  GCP600      0.2209
     11  O1A      -49.2040   -7.2600   17.5550 O.3   600  GCP600     -0.4371
     12  O2A      -49.7430   -7.4440   15.0680 O.2   600  GCP600     -0.5170
     13  O5'      -47.6110   -8.4610   16.0320 O.3   600  GCP600     -0.3111
     14  C5'      -46.8440   -8.7320   14.8430 C.3   600  GCP600      0.1813
     15  C4'      -46.4310  -10.1970   14.8390 C.3   600  GCP600      0.1799
     16  O4'      -45.4500  -10.4060   15.8740 O.3   600  GCP600     -0.3326
     17  C3'      -47.6220  -11.0440   15.2020 C.3   600  GCP600      0.2158
     18  O3'      -47.4030  -12.2040   14.3500 O.3   600  GCP600     -0.2175
     19  C2'      -47.4390  -11.4930   16.6330 C.3   600  GCP600      0.2310
     20  O2'      -47.9600  -12.7280   17.0600 O.3   600  GCP600     -0.2158
     21  C1'      -45.9570  -11.2910   16.8650 C.3   600  GCP600      0.2293
     22  N9       -45.4470  -10.9420   18.1710 N.pl3 600  GCP600     -0.2354
     23  C8       -45.6460   -9.8340   18.9150 C.3   600  GCP600      0.2246
     24  N7       -44.9000   -9.8960   20.0640 N.2   600  GCP600     -0.2322
     25  C5       -44.2270  -11.0630   20.0490 C.2   600  GCP600      0.2182
     26  C6       -43.2630  -11.8050   20.8740 C.1   600  GCP600      0.2372
     27  O6       -42.8880  -11.3100   21.9550 O.2   600  GCP600     -0.2069
     28  N1       -42.7950  -12.9890   20.4640 N.2   600  GCP600     -0.2485
     29  C2       -43.1690  -13.5670   19.2920 C.1   600  GCP600      0.2531
     30  N2       -42.6720  -14.7590   18.9550 N.pl3 600  GCP600     -0.0226
     31  N3       -44.0510  -12.9820   18.4460 N.2   600  GCP600     -0.3074
     32  C4       -44.5830  -11.7020   18.8200 C.2   600  GCP600      0.2300
@<TRIPOS>BOND
     1     3     1    2
     2     1     4    1
     3     1     5    1
     4     1     2    1
     5     5     6    1
     6    18    17    1
     7    15    14    1
     8    15    17    1
     9    15    16    1
    10    14    13    1
    11    12    10    2
    12    17    19    1
    13     6     9    1
    14     6     7    2
    15     6     8    1
    16     9    10    1
    17    16    21    1
    18    13    10    1
    19    10    11    1
    20    19    21    1
    21    19    20    1
    22    21    22    1
    23    22    32    1
    24    22    23    1
    25    31    32    2
    26    31    29    2
    27    32    25    1
    28    23    24    1
    29    30    29    1
    30    29    28    2
    31    25    24    2
    32    25    26    1
    33    28    26    2
    34    26    27    2
