@<TRIPOS>MOLECULE
2xxb_AMP_A_1.pdb
 23 25 0 0 0
SMALL
GASTEIGER

@<TRIPOS>ATOM
      1  P         -2.1090  -26.6290   -8.2640 P.3   1332  AMP1332     0.5327
      2  O1P       -1.3970  -26.4920   -9.5870 O.2   1332  AMP1332    -0.2224
      3  O2P       -2.2630  -25.3700   -7.4460 O.3   1332  AMP1332    -0.1145
      4  O3P       -3.3690  -27.4670   -8.3090 O.3   1332  AMP1332    -0.1145
      5  O5'       -1.0380  -27.4850   -7.4360 O.3   1332  AMP1332    -0.2675
      6  C5'        0.1990  -27.0110   -6.9180 C.3   1332  AMP1332     0.1860
      7  C4'        1.1380  -28.1840   -6.7850 C.3   1332  AMP1332     0.1823
      8  O4'        2.4610  -27.7700   -6.3460 O.3   1332  AMP1332    -0.3135
      9  C3'        0.6620  -29.2380   -5.7770 C.3   1332  AMP1332     0.2184
     10  O3'        0.5740  -30.5070   -6.4260 O.3   1332  AMP1332    -0.2174
     11  C2'        1.7590  -29.3020   -4.7150 C.3   1332  AMP1332     0.2570
     12  O2'        1.9880  -30.6040   -4.2260 O.3   1332  AMP1332    -0.2130
     13  C1'        2.9640  -28.7760   -5.4850 C.3   1332  AMP1332     0.3186
     14  N9         4.0350  -28.2110   -4.6660 N.pl3 1332  AMP1332    -0.1439
     15  C8         3.9010  -27.4710   -3.5500 C.3   1332  AMP1332     0.3377
     16  N7         5.1280  -27.1220   -3.0600 N.2   1332  AMP1332    -0.2095
     17  C5         6.0720  -27.6490   -3.8740 C.2   1332  AMP1332     0.2526
     18  C6         7.5510  -27.6670   -3.9600 C.2   1332  AMP1332     0.4393
     19  N6         8.3320  -27.0440   -3.0520 N.pl3 1332  AMP1332     0.2180
     20  N1         8.1150  -28.3390   -4.9820 N.2   1332  AMP1332     0.0021
     21  C2         7.3880  -28.9780   -5.9080 C.3   1332  AMP1332     0.5254
     22  N3         6.0440  -28.9970   -5.8940 N.2   1332  AMP1332    -0.0055
     23  C4         5.3410  -28.3640   -4.9270 C.2   1332  AMP1332     0.3518
@<TRIPOS>BOND
     1     2     1    2
     2     4     1    1
     3     1     3    1
     4     1     5    1
     5     5     6    1
     6     6     7    1
     7     7     8    1
     8     7     9    1
     9    10     9    1
    10     8    13    1
    11    21    22    1
    12    21    20    1
    13    22    23    2
    14     9    11    1
    15    13    11    1
    16    13    14    1
    17    20    18    2
    18    23    14    1
    19    23    17    1
    20    11    12    1
    21    14    15    1
    22    18    17    1
    23    18    19    1
    24    17    16    2
    25    15    16    1
