@<TRIPOS>MOLECULE
2xxh_1NG_A_1.pdb
 27 30 0 0 0
SMALL
GASTEIGER

@<TRIPOS>ATOM
      1  F1        58.8990   29.0990   47.1620 F     310  1NG310     -0.1644
      2  C2        58.4040   29.4590   45.9920 C.3   310  1NG310      0.4362
      3  F3        57.2990   28.7630   45.7960 F     310  1NG310     -0.1644
      4  F4        58.0980   30.7420   46.0050 F     310  1NG310     -0.1644
      5  C5        59.3790   29.2320   44.8640 C.ar  310  1NG310      0.1696
      6  N6        59.6790   27.9420   44.5940 N.ar  310  1NG310     -0.1617
      7  N7        60.5830   28.0420   43.5310 N.ar  310  1NG310     -0.2341
      8  C8        60.8370   29.3110   43.1580 C.ar  310  1NG310      0.0579
      9  C9        61.7240   29.8710   42.0690 C.3   310  1NG310      0.0456
     10  C10       61.1420   31.2470   41.7120 C.3   310  1NG310      0.0066
     11  C11       61.0000   32.1520   42.9380 C.3   310  1NG310      0.0052
     12  C12       60.0150   31.6130   43.9750 C.3   310  1NG310      0.0291
     13  C13       60.0670   30.1020   44.0090 C.ar  310  1NG310      0.0148
     14  C14       61.1650   26.9490   43.0100 C.ar  310  1NG310      0.0824
     15  C15       62.5330   26.8380   42.7740 C.ar  310  1NG310      0.0188
     16  C16       63.1400   25.6710   42.3180 C.ar  310  1NG310     -0.0026
     17  C17       62.3670   24.5450   42.0750 C.ar  310  1NG310     -0.0181
     18  C18       62.9960   23.2650   41.5740 C.3   310  1NG310      0.0764
     19  C19       63.1470   22.2790   42.6100 C.3   310  1NG310      0.2170
     20  O20       62.7750   22.7770   43.8890 O.3   310  1NG310     -0.2046
     21  N21       62.3220   21.1660   42.1750 N.3   310  1NG310     -0.2481
     22  C22       61.8180   21.0550   40.8150 C.3   310  1NG310      0.0744
     23  C23       61.8810   19.5710   40.4910 C.3   310  1NG310      0.0188
     24  C24       61.7770   18.8730   41.8340 C.3   310  1NG310      0.0188
     25  C25       62.1300   19.9090   42.8960 C.3   310  1NG310      0.0744
     26  C26       60.9980   24.6070   42.2880 C.ar  310  1NG310     -0.0026
     27  C27       60.4330   25.7920   42.7420 C.ar  310  1NG310      0.0188
@<TRIPOS>BOND
     1    23    22    1
     2    23    24    1
     3    22    21    1
     4    18    17    1
     5    18    19    1
     6    10     9    1
     7    10    11    1
     8    24    25    1
     9     9     8    1
    10    17    26   ar
    11    17    16   ar
    12    21    19    1
    13    21    25    1
    14    26    27   ar
    15    16    15   ar
    16    19    20    1
    17    27    14   ar
    18    15    14   ar
    19    11    12    1
    20    14     7    1
    21     8     7   ar
    22     8    13   ar
    23     7     6   ar
    24    12    13    1
    25    13     5   ar
    26     6     5   ar
    27     5     2    1
    28     3     2    1
    29     2     4    1
    30     2     1    1
