@<TRIPOS>MOLECULE
2xxh_GLU_A_1.pdb
 10 9 0 0 0
SMALL
GASTEIGER

@<TRIPOS>ATOM
      1  N         75.6670   27.1250   43.3010 N.3   301  GLU301     -0.1208
      2  CA        76.6980   26.0780   43.5530 C.3   301  GLU301      0.1949
      3  C         76.8070   25.7900   45.0320 C.2   301  GLU301      0.3819
      4  O         77.6540   24.9760   45.4030 O.co2 301  GLU301     -0.2441
      5  CB        78.0760   26.5040   43.0290 C.3   301  GLU301      0.0424
      6  CG        78.2230   26.3810   41.5110 C.3   301  GLU301      0.1161
      7  CD        78.2710   24.9380   41.0070 C.2   301  GLU301      0.3649
      8  OE1       78.5320   23.9960   41.7840 O.co2 301  GLU301     -0.2457
      9  OE2       78.0740   24.7570   39.7900 O.co2 301  GLU301     -0.2457
     10  OXT       76.0990   26.3890   45.8600 O.co2 301  GLU301     -0.2441
@<TRIPOS>BOND
     1     9     7   ar
     2     7     6    1
     3     7     8   ar
     4     6     5    1
     5     5     2    1
     6     1     2    1
     7     2     3    1
     8     3     4   ar
     9     3    10   ar
