@<TRIPOS>MOLECULE
2xxi_JAC_A_1.pdb
 27 29 0 0 0
SMALL
GASTEIGER

@<TRIPOS>ATOM
      1  C1        58.5560   29.7290   45.8730 C.3   1302  JAC1302     0.4363
      2  F1        58.3970   31.1140   45.9390 F     1302  JAC1302    -0.1644
      3  N1        59.8390   28.1450   44.4550 N.ar  1302  JAC1302    -0.1617
      4  O1        61.4380   32.1560   43.2640 O.3   1302  JAC1302    -0.3485
      5  C2        59.5140   29.3740   44.7660 C.ar  1302  JAC1302     0.1720
      6  F2        57.3410   29.0850   45.6250 F     1302  JAC1302    -0.1644
      7  N2        60.7420   28.2000   43.3810 N.ar  1302  JAC1302    -0.2339
      8  O2        61.5780   21.1930   40.4610 O.2   1302  JAC1302    -0.2749
      9  C3        60.9630   29.4870   43.0710 C.ar  1302  JAC1302     0.0628
     10  F3        59.0460   29.2710   47.0980 F     1302  JAC1302    -0.1644
     11  N3        62.7270   22.4150   41.9650 N.am  1302  JAC1302    -0.2754
     12  C4        61.8370   30.1020   41.9980 C.3   1302  JAC1302     0.0777
     13  C5        61.5620   31.6200   41.9490 C.3   1302  JAC1302     0.1489
     14  C6        60.1910   31.7450   43.8430 C.3   1302  JAC1302     0.1713
     15  C7        60.1940   30.2380   43.9140 C.ar  1302  JAC1302     0.0443
     16  C8        61.3080   27.0660   42.8060 C.ar  1302  JAC1302     0.0824
     17  C9        62.6630   27.0420   42.5200 C.ar  1302  JAC1302     0.0189
     18  C10       63.2160   25.9080   41.9720 C.ar  1302  JAC1302    -0.0011
     19  C11       62.4270   24.7970   41.7150 C.ar  1302  JAC1302    -0.0022
     20  C12       63.0360   23.5590   41.1080 C.3   1302  JAC1302     0.1201
     21  C13       63.0740   22.3020   43.3850 C.3   1302  JAC1302     0.0942
     22  C14       63.1700   20.7820   43.6260 C.3   1302  JAC1302     0.0311
     23  C15       62.0960   20.2720   42.6410 C.3   1302  JAC1302     0.0870
     24  C16       62.0820   21.3190   41.5500 C.2   1302  JAC1302     0.2259
     25  C17       61.0780   24.8220   42.0120 C.ar  1302  JAC1302    -0.0011
     26  C18       60.5210   25.9550   42.5630 C.ar  1302  JAC1302     0.0189
     27  C1        65.0290   22.8410   45.8980 C.3   1302  JAC1302     0.0000
@<TRIPOS>BOND
     1     8    24    2
     2    20    19    1
     3    20    11    1
     4    24    11   am
     5    24    23    1
     6    19    18   ar
     7    19    25   ar
     8    13    12    1
     9    13     4    1
    10    11    21    1
    11    18    17   ar
    12    12     9    1
    13    25    26   ar
    14    17    16   ar
    15    26    16   ar
    16    23    22    1
    17    16     7    1
    18     9     7   ar
    19     9    15   ar
    20     4    14    1
    21     7     3   ar
    22    21    22    1
    23    14    15    1
    24    15     5   ar
    25     3     5   ar
    26     5     1    1
    27     6     1    1
    28     1     2    1
    29     1    10    1
