@<TRIPOS>MOLECULE
2xxi_GLU_A_1.pdb
 10 9 0 0 0
SMALL
GASTEIGER

@<TRIPOS>ATOM
      1  N         75.7150   27.2050   43.2610 N.3   301  GLU301     -0.1208
      2  CA        76.7360   26.1460   43.4670 C.3   301  GLU301      0.1949
      3  C         76.8600   25.8620   44.9510 C.2   301  GLU301      0.3819
      4  O         77.7080   25.0560   45.3550 O.co2 301  GLU301     -0.2441
      5  CB        78.0910   26.5610   42.8840 C.3   301  GLU301      0.0424
      6  CG        78.2160   26.4210   41.3690 C.3   301  GLU301      0.1161
      7  CD        78.2960   24.9750   40.8920 C.2   301  GLU301      0.3649
      8  OE1       78.5670   24.0610   41.7140 O.co2 301  GLU301     -0.2457
      9  OE2       78.1010   24.7620   39.6710 O.co2 301  GLU301     -0.2457
     10  OXT       76.1140   26.4490   45.7750 O.co2 301  GLU301     -0.2441
@<TRIPOS>BOND
     1     9     7   ar
     2     7     6    1
     3     7     8   ar
     4     6     5    1
     5     5     2    1
     6     1     2    1
     7     2     3    1
     8     3     4   ar
     9     3    10   ar
