@<TRIPOS>MOLECULE
2xxj_NAD_B_1.pdb
 44 48 0 0 0
SMALL
GASTEIGER

@<TRIPOS>ATOM
      1  PA        -4.3090   31.8620   32.2400 P.3   1311  NAD1311     0.2189
      2  O1A       -4.8680   33.2620   32.6390 O.3   1311  NAD1311    -0.4371
      3  O2A       -2.7990   31.6450   31.9610 O.2   1311  NAD1311    -0.5170
      4  O5B       -5.2880   30.6240   32.4260 O.3   1311  NAD1311    -0.3112
      5  C5B       -6.6340   30.8270   32.7300 C.3   1311  NAD1311     0.1813
      6  C4B       -7.6890   30.2880   31.7860 C.3   1311  NAD1311     0.1821
      7  O4B       -8.9230   30.0080   32.4250 O.3   1311  NAD1311    -0.3135
      8  C3B       -7.9990   31.2570   30.6890 C.3   1311  NAD1311     0.2184
      9  O3B       -7.5960   30.7340   29.4740 O.3   1311  NAD1311    -0.2174
     10  C2B       -9.4450   31.4500   30.7340 C.3   1311  NAD1311     0.2570
     11  O2B      -10.0020   31.5500   29.4640 O.3   1311  NAD1311    -0.2130
     12  C1B       -9.8970   30.2110   31.4570 C.3   1311  NAD1311     0.3186
     13  N9A      -11.2350   30.3140   32.0110 N.pl3 1311  NAD1311    -0.1439
     14  C8A      -11.7230   31.3090   32.7760 C.3   1311  NAD1311     0.3377
     15  N7A      -12.9990   31.0060   33.0920 N.2   1311  NAD1311    -0.2095
     16  C5A      -13.3180   29.8310   32.5260 C.2   1311  NAD1311     0.2526
     17  C6A      -14.4600   29.0120   32.4920 C.2   1311  NAD1311     0.4393
     18  N6A      -15.6460   29.4180   33.1700 N.pl3 1311  NAD1311     0.2180
     19  N1A      -14.4510   27.8520   31.8150 N.2   1311  NAD1311     0.0021
     20  C2A      -13.3460   27.4610   31.1620 C.3   1311  NAD1311     0.5254
     21  N3A      -12.2270   28.2140   31.1660 N.2   1311  NAD1311    -0.0055
     22  C4A      -12.1940   29.3820   31.8250 C.2   1311  NAD1311     0.3518
     23  O3        -3.8990   31.7190   33.7930 O.3   1311  NAD1311    -0.2703
     24  PN        -2.9090   30.6020   34.3790 P.3   1311  NAD1311     0.2189
     25  O1N       -3.0260   29.3530   33.5610 O.2   1311  NAD1311    -0.5170
     26  O2N       -1.4810   31.0630   34.3150 O.3   1311  NAD1311    -0.4371
     27  O5D       -3.2110   30.2800   35.8850 O.3   1311  NAD1311    -0.3112
     28  C5D       -4.3410   29.5620   36.2790 C.3   1311  NAD1311     0.1813
     29  C4D       -4.5840   29.5340   37.7770 C.3   1311  NAD1311     0.1799
     30  O4D       -3.6930   28.6500   38.3490 O.3   1311  NAD1311    -0.3327
     31  C3D       -4.3600   30.8740   38.4460 C.3   1311  NAD1311     0.2158
     32  O3D       -5.2640   31.0890   39.4520 O.3   1311  NAD1311    -0.2175
     33  C2D       -3.0150   30.8130   39.0350 C.3   1311  NAD1311     0.2309
     34  O2D       -2.8780   31.6300   40.1320 O.3   1311  NAD1311    -0.2158
     35  C1D       -2.9860   29.3760   39.4290 C.3   1311  NAD1311     0.2263
     36  N1N       -1.6460   28.7540   39.8350 N.pl3 1311  NAD1311    -0.2787
     37  C2N       -1.6690   27.9150   40.8750 C.3   1311  NAD1311     0.1244
     38  C3N       -0.5140   27.2840   41.3110 C.2   1311  NAD1311     0.0544
     39  C7N       -0.5910   26.3440   42.4730 C.2   1311  NAD1311     0.2818
     40  O7N       -1.6920   25.9690   42.8910 O.2   1311  NAD1311    -0.2670
     41  N7N        0.6210   25.8450   43.0380 N.am  1311  NAD1311    -0.0839
     42  C4N        0.6760   27.5400   40.6170 C.2   1311  NAD1311     0.0033
     43  C5N        0.6650   28.4130   39.5230 C.2   1311  NAD1311     0.0157
     44  C6N       -0.5360   29.0240   39.1430 C.2   1311  NAD1311     0.0633
@<TRIPOS>BOND
     1    11    10    1
     2     9     8    1
     3     8    10    1
     4     8     6    1
     5    10    12    1
     6    20    21    1
     7    20    19    1
     8    21    22    2
     9    12    13    1
    10    12     7    1
    11     6     7    1
    12     6     5    1
    13    19    17    2
    14    22    13    1
    15    22    16    1
    16     3     1    2
    17    13    14    1
    18     1     4    1
    19     1     2    1
    20     1    23    1
    21     4     5    1
    22    17    16    1
    23    17    18    1
    24    16    15    2
    25    14    15    1
    26    25    24    2
    27    23    24    1
    28    26    24    1
    29    24    27    1
    30    27    28    1
    31    28    29    1
    32    29    30    1
    33    29    31    1
    34    30    35    1
    35    31    33    1
    36    31    32    1
    37    33    35    1
    38    33    34    1
    39    44    43    2
    40    44    36    1
    41    35    36    1
    42    43    42    1
    43    36    37    1
    44    42    38    2
    45    37    38    1
    46    38    39    1
    47    39    40    2
    48    39    41   am
