@<TRIPOS>MOLECULE
2xxk_SLB_A_1.pdb
 21 21 0 0 0
SMALL
GASTEIGER

@<TRIPOS>ATOM
      1  C1         7.8250   -9.4430  -11.2200 C.2   1309  SLB1309     0.4179
      2  C2         9.0960   -9.1460  -11.9730 C.3   1309  SLB1309     0.3155
      3  C3        10.2180   -8.6750  -11.0610 C.3   1309  SLB1309     0.1056
      4  C4        11.4030   -8.1990  -11.9280 C.3   1309  SLB1309     0.1798
      5  C5        10.8940   -7.1020  -12.8560 C.3   1309  SLB1309     0.1554
      6  C6         9.7920   -7.6910  -13.7060 C.3   1309  SLB1309     0.1734
      7  C7         9.1690   -6.7040  -14.6910 C.3   1309  SLB1309     0.2135
      8  C8         8.0050   -7.3480  -15.4620 C.3   1309  SLB1309     0.2173
      9  C9         7.4300   -6.3860  -16.4870 C.3   1309  SLB1309     0.2175
     10  C10       12.5270   -5.3820  -13.5720 C.2   1309  SLB1309     0.2420
     11  C11       13.5970   -4.9980  -14.5270 C.3   1309  SLB1309     0.0964
     12  N5        11.9810   -6.6030  -13.7100 N.am  1309  SLB1309    -0.2020
     13  O1A        7.4180  -10.6480  -11.1450 O.co2 1309  SLB1309    -0.2401
     14  O1B        7.2490   -8.4610  -10.6920 O.co2 1309  SLB1309    -0.2401
     15  O2         9.5250  -10.3040  -12.6900 O.3   1309  SLB1309    -0.1830
     16  O4        12.4320   -7.7050  -11.0560 O.3   1309  SLB1309    -0.2210
     17  O6         8.7300   -8.1650  -12.9170 O.3   1309  SLB1309    -0.3220
     18  O7         8.6590   -5.5600  -13.9950 O.3   1309  SLB1309    -0.2176
     19  O8         8.4490   -8.5670  -16.0830 O.3   1309  SLB1309    -0.2175
     20  O9         8.3910   -5.9460  -17.4580 O.3   1309  SLB1309    -0.2175
     21  O10       12.1370   -4.5940  -12.6930 O.2   1309  SLB1309    -0.2733
@<TRIPOS>BOND
     1    20     9    1
     2     9     8    1
     3    19     8    1
     4     8     7    1
     5     7    18    1
     6     7     6    1
     7    11    10    1
     8    12    10   am
     9    12     5    1
    10     6    17    1
    11     6     5    1
    12    10    21    2
    13    17     2    1
    14     5     4    1
    15    15     2    1
    16     2     1    1
    17     2     3    1
    18     4     3    1
    19     4    16    1
    20     1    13   ar
    21     1    14   ar
