@<TRIPOS>MOLECULE
2xxl_FUC_A_1.pdb
 10 10 0 0 0
SMALL
GASTEIGER

@<TRIPOS>ATOM
      1  C1        18.5490   12.7080   -0.8650 C.3   1382  FUC1382     0.1776
      2  C2        18.7920   11.3930   -1.6700 C.3   1382  FUC1382     0.2141
      3  C3        20.0150   10.7290   -1.0740 C.3   1382  FUC1382     0.2172
      4  C4        19.8920   10.4700    0.4580 C.3   1382  FUC1382     0.2116
      5  C5        19.5560   11.8040    1.1720 C.3   1382  FUC1382     0.1483
      6  C6        19.2780   11.6580    2.7050 C.3   1382  FUC1382     0.0349
      7  O2        19.0660   11.7470   -3.0190 O.3   1382  FUC1382    -0.2176
      8  O3        20.2950    9.4860   -1.7900 O.3   1382  FUC1382    -0.2175
      9  O4        18.7730    9.5720    0.6700 O.3   1382  FUC1382    -0.2177
     10  O5        18.4030   12.4590    0.5300 O.3   1382  FUC1382    -0.3508
@<TRIPOS>BOND
     1     7     2    1
     2     8     3    1
     3     2     3    1
     4     2     1    1
     5     3     4    1
     6     1    10    1
     7     4     9    1
     8     4     5    1
     9    10     5    1
    10     5     6    1
