@<TRIPOS>MOLECULE
2xxq_ZTP_A_1.pdb
 49 48 0 0 0
SMALL
GASTEIGER

@<TRIPOS>ATOM
      1  C1       -13.8320   37.2340  -17.7050 C.3   1489  ZTP1489     0.0260
      2  O1       -10.7350   22.6520  -38.2940 O.3   1489  ZTP1489    -0.3089
      3  P1       -10.3150   22.0030  -39.7370 P.3   1489  ZTP1489     0.2233
      4  C2       -13.4730   38.6940  -17.9600 C.2   1489  ZTP1489    -0.0478
      5  O2       -11.6010   22.1940  -40.7080 O.2   1489  ZTP1489    -0.5169
      6  P2       -10.7790   19.1760  -39.3900 P.3   1489  ZTP1489     0.5373
      7  C3       -14.2600   39.4360  -19.0240 C.3   1489  ZTP1489     0.0260
      8  O3        -9.0080   22.7550  -40.3690 O.3   1489  ZTP1489    -0.4370
      9  C4       -12.4570   39.3270  -17.2410 C.2   1489  ZTP1489    -0.0342
     10  O4        -9.8310   20.4830  -39.4810 O.3   1489  ZTP1489    -0.2261
     11  C5       -11.9930   40.6360  -17.3550 C.3   1489  ZTP1489     0.0297
     12  O5       -11.3630   18.9400  -40.8830 O.2   1489  ZTP1489    -0.2221
     13  C6       -10.9610   40.7690  -18.5030 C.3   1489  ZTP1489     0.0263
     14  O6       -12.0480   19.6010  -38.4820 O.3   1489  ZTP1489    -0.1143
     15  C7        -9.5000   40.4780  -18.0850 C.2   1489  ZTP1489    -0.0478
     16  O7       -10.0280   18.0330  -38.8430 O.3   1489  ZTP1489    -0.1143
     17  C8        -8.8640   41.3100  -16.9770 C.3   1489  ZTP1489     0.0260
     18  C9        -8.7180   39.5010  -18.7110 C.2   1489  ZTP1489    -0.0342
     19  C10       -9.0940   38.6440  -19.7440 C.3   1489  ZTP1489     0.0297
     20  C11       -8.6750   37.1840  -19.5050 C.3   1489  ZTP1489     0.0263
     21  C12       -9.7670   36.2780  -18.8630 C.2   1489  ZTP1489    -0.0478
     22  C13       -9.5210   35.7230  -17.4620 C.3   1489  ZTP1489     0.0260
     23  C14      -10.9650   35.8690  -19.4730 C.2   1489  ZTP1489    -0.0342
     24  C15      -11.5090   36.1470  -20.7310 C.3   1489  ZTP1489     0.0297
     25  C16      -11.7250   34.8580  -21.5640 C.3   1489  ZTP1489     0.0263
     26  C17      -10.5920   34.6400  -22.5820 C.2   1489  ZTP1489    -0.0478
     27  C18       -9.1580   34.8970  -22.1360 C.3   1489  ZTP1489     0.0260
     28  C19      -10.8020   34.1840  -23.8900 C.2   1489  ZTP1489    -0.0342
     29  C20      -11.9910   33.8340  -24.5240 C.3   1489  ZTP1489     0.0297
     30  C21      -11.7100   33.2450  -25.9180 C.3   1489  ZTP1489     0.0263
     31  C22      -11.7820   31.7220  -25.9510 C.2   1489  ZTP1489    -0.0478
     32  C23      -12.0140   30.9100  -24.6740 C.3   1489  ZTP1489     0.0260
     33  C24      -11.6580   31.0240  -27.1550 C.2   1489  ZTP1489    -0.0342
     34  C25      -11.4110   31.5020  -28.4310 C.3   1489  ZTP1489     0.0297
     35  C26      -10.5970   30.4230  -29.1680 C.3   1489  ZTP1489     0.0263
     36  C27      -10.7780   30.4400  -30.6810 C.2   1489  ZTP1489    -0.0478
     37  C28      -10.3740   31.6960  -31.4510 C.3   1489  ZTP1489     0.0260
     38  C29      -11.2380   29.3210  -31.3950 C.2   1489  ZTP1489    -0.0342
     39  C30      -11.6270   28.0690  -30.9180 C.3   1489  ZTP1489     0.0297
     40  C31      -12.1910   27.2210  -32.0620 C.3   1489  ZTP1489     0.0263
     41  C32      -11.9260   25.7310  -31.8960 C.2   1489  ZTP1489    -0.0478
     42  C33      -12.3690   24.9860  -30.6490 C.3   1489  ZTP1489     0.0260
     43  C34      -11.3150   24.9910  -32.8990 C.2   1489  ZTP1489    -0.0342
     44  C35      -10.8310   25.3810  -34.1470 C.3   1489  ZTP1489     0.0297
     45  C36       -9.7910   24.3420  -34.5600 C.3   1489  ZTP1489     0.0264
     46  C37       -9.1990   24.6120  -35.9450 C.2   1489  ZTP1489    -0.0454
     47  C38       -8.3820   25.8600  -36.1870 C.3   1489  ZTP1489     0.0261
     48  C39       -9.2540   23.7090  -36.9960 C.2   1489  ZTP1489    -0.0024
     49  C40       -9.9070   22.5060  -37.1560 C.3   1489  ZTP1489     0.1747
@<TRIPOS>BOND
     1    12     6    2
     2     5     3    2
     3     8     3    1
     4     3    10    1
     5     3     2    1
     6    10     6    1
     7     6    16    1
     8     6    14    1
     9     2    49    1
    10    49    48    1
    11    48    46    2
    12    47    46    1
    13    46    45    1
    14    45    44    1
    15    44    43    1
    16    43    41    2
    17    40    41    1
    18    40    39    1
    19    41    42    1
    20    37    36    1
    21    38    39    1
    22    38    36    2
    23    36    35    1
    24    35    34    1
    25    34    33    1
    26    33    31    2
    27    31    30    1
    28    31    32    1
    29    30    29    1
    30    29    28    1
    31    28    26    2
    32    26    27    1
    33    26    25    1
    34    25    24    1
    35    24    23    1
    36    19    20    1
    37    19    18    1
    38    20    21    1
    39    23    21    2
    40     7     4    1
    41    21    22    1
    42    18    15    2
    43    13    15    1
    44    13    11    1
    45    15    17    1
    46     4     1    1
    47     4     9    2
    48    11     9    1
