@<TRIPOS>MOLECULE
2xxr_GLU_A_1.pdb
 10 9 0 0 0
SMALL
GASTEIGER

@<TRIPOS>ATOM
      1  N        -28.4680   34.6740    7.9860 N.3   900  GLU900     -0.1208
      2  CA       -28.3070   35.4310    6.7400 C.3   900  GLU900      0.1949
      3  C        -29.4270   36.4460    6.5720 C.2   900  GLU900      0.3819
      4  O        -30.1580   36.7690    7.5260 O.co2 900  GLU900     -0.2441
      5  CB       -28.2140   34.4990    5.5230 C.3   900  GLU900      0.0424
      6  CG       -26.8610   33.7830    5.4110 C.3   900  GLU900      0.1161
      7  CD       -25.7330   34.7280    5.0260 C.2   900  GLU900      0.3649
      8  OE1      -26.0360   35.7930    4.4330 O.co2 900  GLU900     -0.2457
      9  OE2      -24.5430   34.3740    5.2600 O.co2 900  GLU900     -0.2457
     10  OXT      -29.5940   36.9880    5.4790 O.co2 900  GLU900     -0.2441
@<TRIPOS>BOND
     1     8     7   ar
     2     7     9   ar
     3     7     6    1
     4     6     5    1
     5    10     3   ar
     6     5     2    1
     7     3     2    1
     8     3     4   ar
     9     2     1    1
