@<TRIPOS>MOLECULE
2xxt_KAI_A_1.pdb
 15 15 0 0 0
SMALL
GASTEIGER

@<TRIPOS>ATOM
      1  N         19.6280  -35.0590   -7.8200 N.3   900  KAI900     -0.2084
      2  CD        19.2870  -33.7350   -7.2440 C.3   900  KAI900      0.0893
      3  CD1       19.2390  -31.4060   -5.5370 C.3   900  KAI900      0.0000
      4  CD2       18.9970  -32.8560   -3.4640 C.3   900  KAI900      0.0000
      5  CA        20.0470  -35.9240   -6.7150 C.3   900  KAI900      0.1762
      6  CB        20.1910  -35.0320   -5.4970 C.3   900  KAI900      0.0397
      7  CB1       21.5610  -34.3610   -5.4130 C.3   900  KAI900      0.1160
      8  CG        19.1930  -33.9410   -5.7390 C.3   900  KAI900      0.0199
      9  CG1       22.6780  -35.2570   -4.9220 C.2   900  KAI900      0.3649
     10  CG2       19.5660  -32.7320   -4.8780 C.3   900  KAI900      0.0015
     11  C         18.9860  -36.9550   -6.4890 C.2   900  KAI900      0.3803
     12  O         18.1420  -37.1950   -7.3750 O.co2 900  KAI900     -0.2441
     13  OD1       23.8450  -34.8180   -5.0600 O.co2 900  KAI900     -0.2457
     14  OD2       22.4320  -36.3780   -4.4040 O.co2 900  KAI900     -0.2457
     15  OXT       18.9350  -37.5610   -5.4080 O.co2 900  KAI900     -0.2441
@<TRIPOS>BOND
     1     1     2    1
     2     1     5    1
     3    12    11   ar
     4     2     8    1
     5     5    11    1
     6     5     6    1
     7    11    15   ar
     8     8     6    1
     9     8    10    1
    10     3    10    1
    11     6     7    1
    12     7     9    1
    13    13     9   ar
    14     9    14   ar
    15    10     4    1
