@<TRIPOS>MOLECULE
2xxu_GLU_A_1.pdb
 10 9 0 0 0
SMALL
GASTEIGER

@<TRIPOS>ATOM
      1  N        -28.4480   34.2870    8.0230 N.3   900  GLU900     -0.1208
      2  CA       -28.2720   35.0300    6.7760 C.3   900  GLU900      0.1949
      3  C        -29.4010   36.0340    6.6090 C.2   900  GLU900      0.3819
      4  O        -30.1500   36.3160    7.5570 O.co2 900  GLU900     -0.2441
      5  CB       -28.1850   34.0820    5.5740 C.3   900  GLU900      0.0424
      6  CG       -26.8460   33.3770    5.4360 C.3   900  GLU900      0.1161
      7  CD       -25.7100   34.3240    5.0590 C.2   900  GLU900      0.3649
      8  OE1      -25.9990   35.4020    4.4890 O.co2 900  GLU900     -0.2457
      9  OE2      -24.5310   33.9750    5.3120 O.co2 900  GLU900     -0.2457
     10  OXT      -29.5660   36.5970    5.5210 O.co2 900  GLU900     -0.2441
@<TRIPOS>BOND
     1     8     7   ar
     2     7     9   ar
     3     7     6    1
     4     6     5    1
     5    10     3   ar
     6     5     2    1
     7     3     2    1
     8     3     4   ar
     9     2     1    1
