@<TRIPOS>MOLECULE
2xxv_KAI_A_1.pdb
 15 15 0 0 0
SMALL
GASTEIGER

@<TRIPOS>ATOM
      1  N        -28.7110   34.4800    7.8990 N.3   900  KAI900     -0.2084
      2  CD       -29.0990   33.1460    7.3690 C.3   900  KAI900      0.0893
      3  CD1      -29.0030   30.7340    5.6970 C.3   900  KAI900      0.0000
      4  CD2      -29.2680   32.1850    3.6010 C.3   900  KAI900      0.0000
      5  CA       -28.3340   35.3200    6.7590 C.3   900  KAI900      0.1762
      6  CB       -28.1360   34.3840    5.5820 C.3   900  KAI900      0.0397
      7  CB1      -26.7490   33.7400    5.6000 C.3   900  KAI900      0.1160
      8  CG       -29.1690   33.3110    5.8580 C.3   900  KAI900      0.0199
      9  CG1      -25.6490   34.6380    5.0690 C.2   900  KAI900      0.3649
     10  CG2      -28.7640   32.0830    5.0400 C.3   900  KAI900      0.0015
     11  C        -29.4240   36.3260    6.5180 C.2   900  KAI900      0.3803
     12  O        -30.2420   36.6040    7.4170 O.co2 900  KAI900     -0.2441
     13  OD1      -24.4390   34.3000    5.2220 O.co2 900  KAI900     -0.2457
     14  OD2      -25.9820   35.6730    4.4670 O.co2 900  KAI900     -0.2457
     15  OXT      -29.5070   36.9170    5.4320 O.co2 900  KAI900     -0.2441
@<TRIPOS>BOND
     1     4    10    1
     2    14     9   ar
     3    10     3    1
     4    10     8    1
     5     9    13   ar
     6     9     7    1
     7    15    11   ar
     8     6     7    1
     9     6     8    1
    10     6     5    1
    11     8     2    1
    12    11     5    1
    13    11    12   ar
    14     5     1    1
    15     2     1    1
