@<TRIPOS>MOLECULE
2xxw_GLU_A_1.pdb
 10 9 0 0 0
SMALL
GASTEIGER

@<TRIPOS>ATOM
      1  N        -21.9170   -5.4720  -22.9830 N.3   900  GLU900     -0.1208
      2  CA       -22.5870   -6.1030  -21.8560 C.3   900  GLU900      0.1949
      3  C        -24.0640   -5.7230  -21.7950 C.2   900  GLU900      0.3819
      4  O        -24.6500   -5.3150  -22.7930 O.co2 900  GLU900     -0.2441
      5  CB       -21.8870   -5.7400  -20.5460 C.3   900  GLU900      0.0424
      6  CG       -20.6030   -6.5140  -20.2960 C.3   900  GLU900      0.1161
      7  CD       -20.8590   -7.9100  -19.7620 C.2   900  GLU900      0.3649
      8  OE1      -21.9670   -8.1540  -19.2380 O.co2 900  GLU900     -0.2457
      9  OE2      -19.9480   -8.7600  -19.8610 O.co2 900  GLU900     -0.2457
     10  OXT      -24.7140   -5.8220  -20.7530 O.co2 900  GLU900     -0.2441
@<TRIPOS>BOND
     1     1     2    1
     2     4     3   ar
     3     2     3    1
     4     2     5    1
     5     3    10   ar
     6     5     6    1
     7     6     7    1
     8     9     7   ar
     9     7     8   ar
