@<TRIPOS>MOLECULE
2xxx_GLU_A_1.pdb
 10 9 0 0 0
SMALL
GASTEIGER

@<TRIPOS>ATOM
      1  N        -11.4790    0.7120  -22.9020 N.3   900  GLU900     -0.1208
      2  CA       -10.1610    1.1400  -23.3700 C.3   900  GLU900      0.1949
      3  C         -9.7380    2.4490  -22.7130 C.2   900  GLU900      0.3819
      4  O        -10.3190    2.8570  -21.7030 O.co2 900  GLU900     -0.2441
      5  CB       -10.1410    1.2650  -24.8980 C.3   900  GLU900      0.0424
      6  CG       -10.1100   -0.0800  -25.6210 C.3   900  GLU900      0.1161
      7  CD        -8.7990   -0.8320  -25.4170 C.2   900  GLU900      0.3649
      8  OE1       -7.7760   -0.1750  -25.1480 O.co2 900  GLU900     -0.2457
      9  OE2       -8.7890   -2.0790  -25.5320 O.co2 900  GLU900     -0.2457
     10  OXT       -8.8130    3.1200  -23.1730 O.co2 900  GLU900     -0.2441
@<TRIPOS>BOND
     1     6     7    1
     2     6     5    1
     3     9     7   ar
     4     7     8   ar
     5     5     2    1
     6     2     1    1
     7     2     3    1
     8    10     3   ar
     9     3     4   ar
