@<TRIPOS>MOLECULE
2xxy_KAI_A_1.pdb
 15 15 0 0 0
SMALL
GASTEIGER

@<TRIPOS>ATOM
      1  N        -11.3230    1.2050  -23.4320 N.3   900  KAI900     -0.2084
      2  CD       -12.1350    1.5120  -24.6270 C.3   900  KAI900      0.0893
      3  CD1      -13.0610    1.3640  -27.2440 C.3   900  KAI900      0.0000
      4  CD2      -11.1090    2.6620  -28.1300 C.3   900  KAI900      0.0000
      5  CA        -9.9250    1.4380  -23.7630 C.3   900  KAI900      0.1762
      6  CB        -9.8270    1.4410  -25.2760 C.3   900  KAI900      0.0397
      7  CB1       -9.7360    0.0490  -25.8810 C.3   900  KAI900      0.1160
      8  CG       -11.1600    2.0150  -25.6880 C.3   900  KAI900      0.0199
      9  CG1       -8.3770   -0.6010  -25.7820 C.2   900  KAI900      0.3649
     10  CG2      -11.5610    1.6200  -27.1120 C.3   900  KAI900      0.0015
     11  C         -9.5530    2.7700  -23.1780 C.2   900  KAI900      0.3803
     12  O        -10.1160    3.2090  -22.1730 O.co2 900  KAI900     -0.2441
     13  OD1       -8.3770   -1.8530  -25.7920 O.co2 900  KAI900     -0.2457
     14  OD2       -7.3250    0.0930  -25.7260 O.co2 900  KAI900     -0.2457
     15  OXT       -8.6720    3.4560  -23.6920 O.co2 900  KAI900     -0.2441
@<TRIPOS>BOND
     1     4    10    1
     2     3    10    1
     3    10     8    1
     4     7     9    1
     5     7     6    1
     6    13     9   ar
     7     9    14   ar
     8     8     6    1
     9     8     2    1
    10     6     5    1
    11     2     1    1
    12     5     1    1
    13     5    11    1
    14    15    11   ar
    15    11    12   ar
