@<TRIPOS>MOLECULE
2xxz_8XQ_A_1.pdb
 14 15 0 0 0
SMALL
GASTEIGER

@<TRIPOS>ATOM
      1  OAA       48.1870   44.4990    6.3330 O.co2 3001  8XQ3001    -0.2406
      2  OAB       49.0630   45.7610    4.7360 O.co2 3001  8XQ3001    -0.2406
      3  OAC       43.7160   44.4370    1.7110 O.3   3001  8XQ3001    -0.2850
      4  CAD       43.9940   45.0160    6.7060 C.ar  3001  8XQ3001     0.0207
      5  CAE       42.9890   44.8470    5.7710 C.ar  3001  8XQ3001     0.0989
      6  CAF       46.0310   44.5800    2.1230 C.ar  3001  8XQ3001     0.0438
      7  CAG       47.1100   44.7370    3.0140 C.ar  3001  8XQ3001     0.0100
      8  CAH       45.3090   45.0380    6.2360 C.ar  3001  8XQ3001     0.0034
      9  NAI       43.2540   44.7080    4.4790 N.ar  3001  8XQ3001    -0.2406
     10  CAJ       48.1520   45.0460    5.2130 C.2   3001  8XQ3001     0.3878
     11  CAK       44.7250   44.5750    2.6150 C.ar  3001  8XQ3001     0.2131
     12  CAL       46.8990   44.8850    4.3570 C.ar  3001  8XQ3001     0.0814
     13  CAM       45.5780   44.8800    4.8780 C.ar  3001  8XQ3001     0.0272
     14  CAN       44.4970   44.7340    3.9950 C.ar  3001  8XQ3001     0.1203
@<TRIPOS>BOND
     1     3    11    1
     2     6    11   ar
     3     6     7   ar
     4    11    14   ar
     5     7    12   ar
     6    14     9   ar
     7    14    13   ar
     8    12    13   ar
     9    12    10    1
    10     9     5   ar
    11     2    10   ar
    12    13     8   ar
    13    10     1   ar
    14     5     4   ar
    15     8     4   ar
