@<TRIPOS>MOLECULE
2xy3_DUP_A_1.pdb
 28 29 0 0 0
SMALL
GASTEIGER

@<TRIPOS>ATOM
      1  O4        -6.7940   -5.3100  -38.5450 O.2   1130  DUP1130    -0.2085
      2  C4        -6.3890   -6.3920  -38.0520 C.1   1130  DUP1130     0.2182
      3  C5        -5.1070   -6.4700  -37.4820 C.2   1130  DUP1130     0.1242
      4  C6        -4.6620   -7.6720  -36.9340 C.2   1130  DUP1130     0.0928
      5  N3        -7.1800   -7.4930  -38.0550 N.2   1130  DUP1130    -0.2452
      6  C2        -6.7120   -8.6300  -37.5180 C.1   1130  DUP1130     0.2844
      7  O2        -7.4650   -9.6100  -37.5330 O.2   1130  DUP1130    -0.1918
      8  N1        -5.4680   -8.7430  -36.9740 N.am  1130  DUP1130    -0.1790
      9  C1'       -5.0330  -10.0480  -36.3990 C.3   1130  DUP1130     0.2090
     10  C2'       -3.6380  -10.4760  -36.8130 C.3   1130  DUP1130     0.0874
     11  C3'       -2.8130  -10.4660  -35.5260 C.3   1130  DUP1130     0.1857
     12  O3'       -1.8640  -11.5350  -35.5850 O.3   1130  DUP1130    -0.2203
     13  O4'       -5.0120   -9.9760  -34.9740 O.3   1130  DUP1130    -0.3339
     14  C4'       -3.8480  -10.5910  -34.4120 C.3   1130  DUP1130     0.1774
     15  C5'       -3.5940   -9.8470  -33.0960 C.3   1130  DUP1130     0.1848
     16  O5'       -2.8640  -10.5620  -32.0830 O.3   1130  DUP1130    -0.2775
     17  PA        -1.4720   -9.9240  -31.6190 P.3   1130  DUP1130     0.4623
     18  O1A       -1.7970   -8.5100  -31.2170 O.2   1130  DUP1130    -0.2354
     19  O2A       -0.7150  -10.7420  -30.6130 O.3   1130  DUP1130    -0.1255
     20  N3A       -0.6330  -10.0650  -33.0690 N.3   1130  DUP1130    -0.0179
     21  PB         0.5840   -9.0090  -33.4250 P.3   1130  DUP1130     0.4700
     22  O1B        0.2900   -8.2190  -34.6400 O.2   1130  DUP1130    -0.2350
     23  O2B        0.7820   -8.2000  -32.1760 O.3   1130  DUP1130    -0.1252
     24  O3B        1.9120   -9.8520  -33.7430 O.3   1130  DUP1130    -0.1901
     25  PG         3.3880   -9.6330  -33.0730 P.3   1130  DUP1130     0.5397
     26  O2G        3.1620   -9.6820  -31.5910 O.3   1130  DUP1130    -0.1143
     27  O1G        3.9650  -10.9240  -33.6430 O.2   1130  DUP1130    -0.2220
     28  O3G        3.9880   -8.3340  -33.6370 O.3   1130  DUP1130    -0.1143
@<TRIPOS>BOND
     1     1     2    2
     2     5     2    2
     3     5     6    2
     4     2     3    1
     5     7     6    2
     6     6     8   am
     7     3     4    2
     8     8     4    1
     9     8     9    1
    10    10     9    1
    11    10    11    1
    12     9    13    1
    13    12    11    1
    14    11    14    1
    15    13    14    1
    16    22    21    2
    17    14    15    1
    18    24    21    1
    19    24    25    1
    20    27    25    2
    21    28    25    1
    22    21    20    1
    23    21    23    1
    24    15    16    1
    25    25    26    1
    26    20    17    1
    27    16    17    1
    28    17    18    2
    29    17    19    1
