@<TRIPOS>MOLECULE
2xy9_FUC_A_1.pdb
 10 10 0 0 0
SMALL
GASTEIGER

@<TRIPOS>ATOM
      1  C1        23.8460   22.6560   -6.2270 C.3   1632  FUC1632     0.1776
      2  C2        24.8060   23.1900   -5.1590 C.3   1632  FUC1632     0.2141
      3  C3        24.1240   24.2360   -4.2740 C.3   1632  FUC1632     0.2172
      4  C4        22.7810   23.7220   -3.7590 C.3   1632  FUC1632     0.2116
      5  C5        21.9310   23.2100   -4.9240 C.3   1632  FUC1632     0.1483
      6  C6        20.5760   22.6740   -4.4710 C.3   1632  FUC1632     0.0349
      7  O2        25.9550   23.7460   -5.7590 O.3   1632  FUC1632    -0.2176
      8  O3        24.9670   24.5650   -3.1930 O.3   1632  FUC1632    -0.2175
      9  O4        23.0080   22.6780   -2.8360 O.3   1632  FUC1632    -0.2177
     10  O5        22.6450   22.2020   -5.6230 O.3   1632  FUC1632    -0.3508
@<TRIPOS>BOND
     1     1    10    1
     2     1     2    1
     3     7     2    1
     4    10     5    1
     5     2     3    1
     6     5     6    1
     7     5     4    1
     8     3     4    1
     9     3     8    1
    10     4     9    1
