@<TRIPOS>MOLECULE
2xya_7L4_A_1.pdb
 17 19 0 0 0
SMALL
GASTEIGER

@<TRIPOS>ATOM
      1  C1         6.8670   33.0100   22.1270 C.ar  1181  7L41181     0.0000
      2  C2         6.4070   31.8810   22.7880 C.ar  1181  7L41181     0.0001
      3  C3         6.8980   30.6140   22.4660 C.ar  1181  7L41181     0.0025
      4  C4         7.8700   30.4790   21.4780 C.ar  1181  7L41181     0.0297
      5  C5         8.3360   31.6020   20.8030 C.ar  1181  7L41181     0.0025
      6  C6         7.8390   32.8550   21.1350 C.ar  1181  7L41181     0.0001
      7  C7         8.4060   29.1490   21.1310 C.2   1181  7L41181     0.1339
      8  C8         7.5020   28.0860   20.9130 C.2   1181  7L41181     0.0702
      9  C9         8.0050   26.8570   20.5720 C.2   1181  7L41181     0.1860
     10  C10        9.4070   26.6950   20.4450 C.3   1181  7L41181     0.1360
     11  C11        9.9590   25.4580   20.1160 C.2   1181  7L41181    -0.0117
     12  C12       11.3200   25.3100   20.0000 C.2   1181  7L41181    -0.0037
     13  C13       12.1600   26.3940   20.2430 C.2   1181  7L41181     0.0020
     14  C14       11.6390   27.6220   20.5520 C.2   1181  7L41181     0.0283
     15  C15       10.2600   27.8030   20.6700 C.2   1181  7L41181     0.1200
     16  N16        9.7290   28.9950   21.0010 N.2   1181  7L41181    -0.4054
     17  O17        7.1750   25.7980   20.3820 O.2   1181  7L41181    -0.2905
@<TRIPOS>BOND
     1    12    11    2
     2    12    13    1
     3    11    10    1
     4    13    14    2
     5    17     9    1
     6    10     9    1
     7    10    15    1
     8    14    15    1
     9     9     8    2
    10    15    16    2
    11     5     6   ar
    12     5     4   ar
    13     8     7    1
    14    16     7    2
    15     7     4    1
    16     6     1   ar
    17     4     3   ar
    18     1     2   ar
    19     3     2   ar
