@<TRIPOS>MOLECULE
2xyd_FUC_B_1.pdb
 10 10 0 0 0
SMALL
GASTEIGER

@<TRIPOS>ATOM
      1  C1        21.9150   15.8440   -1.8590 C.3   1613  FUC1613     0.1776
      2  C2        21.2490   15.4740   -3.1830 C.3   1613  FUC1613     0.2141
      3  C3        19.9380   16.2250   -3.4140 C.3   1613  FUC1613     0.2172
      4  C4        20.0130   17.7140   -3.0470 C.3   1613  FUC1613     0.2116
      5  C5        20.6960   17.9110   -1.6840 C.3   1613  FUC1613     0.1483
      6  C6        20.8460   19.3870   -1.3070 C.3   1613  FUC1613     0.0349
      7  O2        20.9780   14.0910   -3.1860 O.3   1613  FUC1613    -0.2176
      8  O3        19.5760   16.0790   -4.7690 O.3   1613  FUC1613    -0.2175
      9  O4        20.6880   18.4350   -4.0630 O.3   1613  FUC1613    -0.2177
     10  O5        21.9610   17.2530   -1.6570 O.3   1613  FUC1613    -0.3508
@<TRIPOS>BOND
     1     8     3    1
     2     9     4    1
     3     3     2    1
     4     3     4    1
     5     7     2    1
     6     2     1    1
     7     4     5    1
     8     1    10    1
     9     5    10    1
    10     5     6    1
