@<TRIPOS>MOLECULE
2xyf_G40_B_1.pdb
 50 52 0 0 0
SMALL
GASTEIGER

@<TRIPOS>ATOM
      1  C1        11.9580   24.2700    4.5810 C.3   1200  G401200     0.1999
      2  C2        10.7740   24.2380    5.6010 C.2   1200  G401200     0.2696
      3  O3        10.4900   23.2320    6.2550 O.2   1200  G401200    -0.2707
      4  N4        10.0730   25.3900    5.6720 N.am  1200  G401200    -0.1957
      5  C5         8.8200   25.7530    6.5120 C.3   1200  G401200     0.1726
      6  C6         9.0310   26.3130    8.0550 C.3   1200  G401200     0.0270
      7  C7         7.6680   26.6270    8.7670 C.3   1200  G401200     0.0022
      8  C8         9.8380   27.6180    8.1010 C.3   1200  G401200     0.0022
      9  C9         5.7060   26.8640    4.7110 C.3   1200  G401200     0.1386
     10  N10        6.7880   26.2390    5.4790 N.am  1200  G401200    -0.2021
     11  C11        8.0450   26.7370    5.6610 C.2   1200  G401200     0.2613
     12  O12        8.4530   27.8020    5.1940 O.2   1200  G401200    -0.2715
     13  C13        9.8020   25.3110    8.9220 C.3   1200  G401200     0.0022
     14  C15       11.4280   23.6030    3.2360 C.3   1200  G401200     0.0657
     15  C16       10.0480   24.1430    2.7250 C.ar  1200  G401200    -0.0192
     16  C17        8.8700   23.2740    2.8490 C.ar  1200  G401200    -0.0042
     17  C18        7.5720   23.7370    2.4020 C.ar  1200  G401200    -0.0003
     18  C19        7.4300   25.0670    1.8270 C.ar  1200  G401200    -0.0000
     19  C20        8.5880   25.9330    1.6990 C.ar  1200  G401200    -0.0003
     20  C21        9.8900   25.4700    2.1470 C.ar  1200  G401200    -0.0042
     21  O22       12.3340   25.6130    4.2700 O.3   1200  G401200    -0.2159
     22  C23       13.3130   23.6360    4.9970 C.3   1200  G401200     0.0413
     23  C24       13.8590   24.0420    6.3940 C.3   1200  G401200     0.0222
     24  C25       15.3250   23.6920    6.5870 C.3   1200  G401200     0.0944
     25  N26       15.4570   22.3730    7.1160 N.3   1200  G401200    -0.1799
     26  C27       16.3850   22.3780    8.2360 C.3   1200  G401200     0.1202
     27  C28       16.5950   21.0420    8.9500 C.ar  1200  G401200    -0.0045
     28  C29       15.4270   20.2830    9.3630 C.ar  1200  G401200    -0.0029
     29  C30       15.5930   19.0250   10.0330 C.ar  1200  G401200    -0.0003
     30  C31       16.9300   18.5070   10.3020 C.ar  1200  G401200     0.0005
     31  C32       18.1110   19.2650    9.8870 C.ar  1200  G401200    -0.0003
     32  C33       17.9370   20.5460    9.2020 C.ar  1200  G401200    -0.0029
     33  C35       15.3210   18.9100    3.4060 C.3   1200  G401200     0.0271
     34  C36       19.9120   17.6810    6.7600 C.3   1200  G401200     0.2574
     35  O37       18.5230   18.0050    6.6080 O.3   1200  G401200    -0.4294
     36  C38       18.1380   18.9590    5.6360 C.2   1200  G401200     0.4216
     37  O39       18.9230   19.7070    5.0590 O.2   1200  G401200    -0.2245
     38  N40       16.8170   18.8940    5.4740 N.am  1200  G401200    -0.1610
     39  C41       16.0370   19.7400    4.5370 C.3   1200  G401200     0.1773
     40  C42       15.2970   20.5440    5.6090 C.2   1200  G401200     0.2764
     41  N43       15.9710   21.5770    6.1550 N.am  1200  G401200    -0.1258
     42  O44       14.1340   20.2400    5.9480 O.2   1200  G401200    -0.2701
     43  C45       16.3920   18.2540    2.5250 C.3   1200  G401200     0.0022
     44  C46       14.5100   19.7770    2.4660 C.3   1200  G401200     0.0022
     45  C47       14.4770   17.7720    3.9700 C.3   1200  G401200     0.0022
     46  S54       16.3440   14.8340   12.0850 S.2   1200  G401200    -0.0859
     47  C55       15.9230   16.3060   11.1870 C.ar  1200  G401200     0.0354
     48  C56       17.0290   17.2120   11.0100 C.ar  1200  G401200     0.0070
     49  C57       18.2330   16.6900   11.6210 C.ar  1200  G401200     0.0075
     50  C58       18.0200   15.4290   12.2320 C.ar  1200  G401200     0.0355
@<TRIPOS>BOND
     1    19    18   ar
     2    19    20   ar
     3    18    17   ar
     4    20    15   ar
     5    17    16   ar
     6    44    33    1
     7    43    33    1
     8    15    16   ar
     9    15    14    1
    10    14     1    1
    11    33    45    1
    12    33    39    1
    13    21     1    1
    14    39    38    1
    15    39    40    1
    16     1    22    1
    17     1     2    1
    18     9    10    1
    19    22    23    1
    20    37    36    2
    21    12    11    2
    22    38    36   am
    23    10    11   am
    24     2     4   am
    25     2     3    2
    26    40    42    2
    27    40    41   am
    28    36    35    1
    29    11     5    1
    30     4     5    1
    31    41    25    1
    32    23    24    1
    33     5     6    1
    34    24    25    1
    35    35    34    1
    36    25    26    1
    37     6     8    1
    38     6     7    1
    39     6    13    1
    40    26    27    1
    41    27    32   ar
    42    27    28   ar
    43    32    31   ar
    44    28    29   ar
    45    31    30   ar
    46    29    30   ar
    47    30    48    1
    48    48    47   ar
    49    48    49   ar
    50    47    46   ar
    51    49    50   ar
    52    46    50   ar
