@<TRIPOS>MOLECULE
2xyg_TQ8_A_1.pdb
 22 23 0 0 0
SMALL
GASTEIGER

@<TRIPOS>ATOM
      1  C1        36.4720   36.8960   31.6330 C.3   1176  TQ81176     0.1590
      2  N2        37.8720   37.1630   31.9710 N.3   1176  TQ81176    -0.0714
      3  C3        36.1990   37.2900   30.1660 C.3   1176  TQ81176     0.0532
      4  C4        36.1360   35.4320   31.8190 C.2   1176  TQ81176     0.1690
      5  O5        34.9850   35.0340   31.6720 O.2   1176  TQ81176    -0.2945
      6  C6        35.0460   38.2850   30.0970 C.ar  1176  TQ81176    -0.0203
      7  C7        35.1660   39.4380   29.2880 C.ar  1176  TQ81176    -0.0042
      8  C8        33.8440   38.0700   30.8370 C.ar  1176  TQ81176    -0.0042
      9  C9        34.1070   40.3680   29.2120 C.ar  1176  TQ81176    -0.0003
     10  C10       32.7870   38.9970   30.7620 C.ar  1176  TQ81176    -0.0003
     11  C11       32.9220   40.1450   29.9500 C.ar  1176  TQ81176    -0.0000
     12  S12       38.4900   37.6950   33.3990 S.O2  1176  TQ81176     0.0772
     13  O13       39.9270   37.8470   33.2130 O.2   1176  TQ81176    -0.1516
     14  O14       38.1060   36.7790   34.4460 O.2   1176  TQ81176    -0.1516
     15  C15       36.4740   41.8280   33.9180 C.ar  1176  TQ81176    -0.0218
     16  C16       37.1590   41.5090   32.7110 C.ar  1176  TQ81176    -0.0029
     17  C17       37.7790   40.2430   32.5460 C.ar  1176  TQ81176     0.0196
     18  C18       37.7170   39.2840   33.5950 C.ar  1176  TQ81176     0.1235
     19  C19       37.0350   39.6010   34.8020 C.ar  1176  TQ81176     0.0196
     20  C20       36.4170   40.8650   34.9640 C.ar  1176  TQ81176    -0.0029
     21  C21       35.8160   43.1990   34.0670 C.3   1176  TQ81176     0.0310
     22  C22       37.2380   34.4580   32.0620 C.3   1176  TQ81176     0.0738
@<TRIPOS>BOND
     1     9     7   ar
     2     9    11   ar
     3     7     6   ar
     4    11    10   ar
     5     6     3    1
     6     6     8   ar
     7     3     1    1
     8    10     8   ar
     9     1     4    1
    10     1     2    1
    11     5     4    2
    12     4    22    1
    13     2    12    1
    14    17    16   ar
    15    17    18   ar
    16    16    15   ar
    17    13    12    2
    18    12    18    1
    19    12    14    2
    20    18    19   ar
    21    15    21    1
    22    15    20   ar
    23    19    20   ar
