@<TRIPOS>MOLECULE
2xyj_WLM_A_1.pdb
 32 34 0 0 0
SMALL
GASTEIGER

@<TRIPOS>ATOM
      1  C1        -2.5760  -11.0060   52.5250 C.ar  1441  WLM1441     0.0898
      2  C2        -1.5230  -11.5560   53.2560 C.ar  1441  WLM1441     0.1431
      3  C3        -3.4710  -11.8420   51.8710 C.ar  1441  WLM1441     0.0190
      4  C4        -2.8130   -9.5580   52.4100 C.2   1441  WLM1441     0.2678
      5  C5        -1.3790  -12.9570   53.3140 C.ar  1441  WLM1441     0.0379
      6  O6        -0.6490  -10.6890   53.9020 O.3   1441  WLM1441    -0.4713
      7  C7        -3.3100  -13.2040   51.9580 C.ar  1441  WLM1441     0.0580
      8  N8        -1.9120   -8.7280   52.9630 N.am  1441  WLM1441    -0.2012
      9  O9        -3.8130   -9.1310   51.8380 O.2   1441  WLM1441    -0.2683
     10  C10       -2.2770  -13.7800   52.6630 C.ar  1441  WLM1441     0.0145
     11  C11        0.3780  -11.2760   54.6830 C.3   1441  WLM1441     0.2525
     12 CL         -4.4460  -14.2070   51.1660 Cl    1441  WLM1441    -0.0822
     13  C13       -2.0330   -7.2910   52.7960 C.3   1441  WLM1441     0.1201
     14  C14       -1.3410   -6.5660   53.9580 C.3   1441  WLM1441     0.0498
     15  C15        0.1580   -6.7770   53.9780 C.ar  1441  WLM1441    -0.0203
     16  C16        0.7640   -7.5570   54.9680 C.ar  1441  WLM1441    -0.0028
     17  C17        0.9650   -6.1940   53.0030 C.ar  1441  WLM1441    -0.0028
     18  C18        2.1480   -7.7300   55.0020 C.ar  1441  WLM1441     0.0199
     19  C19        2.3450   -6.3570   53.0320 C.ar  1441  WLM1441     0.0199
     20  C20        2.9390   -7.1220   54.0290 C.ar  1441  WLM1441     0.1271
     21  S21        4.7170   -7.2770   54.0820 S.O2  1441  WLM1441     0.0947
     22  N22        5.3490   -7.8350   52.5610 N.pl3 1441  WLM1441    -0.0685
     23  O23        5.1090   -8.2680   55.0580 O.2   1441  WLM1441    -0.1482
     24  O24        5.2590   -5.9510   54.1770 O.2   1441  WLM1441    -0.1482
     25  C25        5.0910   -9.2090   52.2690 C.ar  1441  WLM1441     0.2237
     26  S26        4.6450  -10.4310   53.4310 S.2   1441  WLM1441    -0.0318
     27  N27        5.1910   -9.6850   51.0450 N.ar  1441  WLM1441    -0.1226
     28  C28        4.5370  -11.5280   52.0750 C.ar  1441  WLM1441     0.1120
     29  N29        4.8650  -11.0150   50.9500 N.ar  1441  WLM1441    -0.1439
     30  C30        4.0590  -12.9800   52.2060 C.3   1441  WLM1441     0.0484
     31  C31        3.9650  -13.4460   53.6630 C.3   1441  WLM1441     0.0069
     32  C32        4.8270  -13.9180   51.2530 C.3   1441  WLM1441     0.0069
@<TRIPOS>BOND
     1    29    27   ar
     2    29    28   ar
     3    27    25   ar
     4    12     7    1
     5    32    30    1
     6     9     4    2
     7     3     7   ar
     8     3     1   ar
     9     7    10   ar
    10    28    30    1
    11    28    26   ar
    12    30    31    1
    13    25    22    1
    14    25    26   ar
    15     4     1    1
    16     4     8   am
    17     1     2   ar
    18    22    21    1
    19    10     5   ar
    20    13     8    1
    21    13    14    1
    22    17    19   ar
    23    17    15   ar
    24    19    20   ar
    25     2     5   ar
    26     2     6    1
    27     6    11    1
    28    14    15    1
    29    15    16   ar
    30    20    21    1
    31    20    18   ar
    32    21    24    2
    33    21    23    2
    34    16    18   ar
