@<TRIPOS>MOLECULE
2xyk_HEM_A_1.pdb
 43 50 0 0 0
SMALL
GASTEIGER

@<TRIPOS>ATOM
      1  CHA      -23.3700    1.2220  -11.0880 C.2   700  HEM700      0.0000
      2  CHB      -20.7070   -2.7530  -12.2480 C.2   700  HEM700      0.0000
      3  CHC      -17.0190   -0.8720   -9.6540 C.2   700  HEM700      0.0000
      4  CHD      -19.2690    3.4080   -9.5740 C.2   700  HEM700      0.0000
      5  C1A      -22.9940   -0.0320  -11.5570 C.ar  700  HEM700      0.0000
      6  C2A      -23.8690   -1.0130  -12.1740 C.ar  700  HEM700      0.0000
      7  C3A      -23.1530   -2.1000  -12.4840 C.ar  700  HEM700      0.0000
      8  C4A      -21.7740   -1.8580  -12.0930 C.ar  700  HEM700      0.0000
      9  CMA      -23.6300   -3.4300  -13.1540 C.3   700  HEM700      0.0000
     10  CAA      -25.3830   -0.7700  -12.4000 C.3   700  HEM700      0.0000
     11  CBA      -25.5220    0.1430  -13.6430 C.3   700  HEM700      0.0000
     12  CGA      -26.7840    1.0050  -13.6770 C.2   700  HEM700      0.0000
     13  O1A      -27.5430    1.1440  -12.6730 O.co2 700  HEM700      0.0000
     14  O2A      -27.0450    1.5990  -14.7510 O.co2 700  HEM700      0.0000
     15  C1B      -19.4750   -2.6280  -11.6220 C.2   700  HEM700      0.0000
     16  C2B      -18.3790   -3.5910  -11.5780 C.2   700  HEM700      0.0000
     17  C3B      -17.3740   -3.0450  -10.8550 C.2   700  HEM700      0.0000
     18  C4B      -17.7960   -1.7270  -10.4240 C.2   700  HEM700      0.0000
     19  CMB      -18.3460   -4.9780  -12.2420 C.3   700  HEM700      0.0000
     20  CAB      -15.9880   -3.6440  -10.4950 C.2   700  HEM700      0.0000
     21  CBB      -15.8840   -4.6020   -9.5700 C.2   700  HEM700      0.0000
     22  C1C      -17.2730    0.4540   -9.4390 C.ar  700  HEM700      0.0000
     23  C2C      -16.3640    1.3990   -8.8480 C.ar  700  HEM700      0.0000
     24  C3C      -16.9650    2.5980   -8.8280 C.ar  700  HEM700      0.0000
     25  C4C      -18.2920    2.4310   -9.4050 C.ar  700  HEM700      0.0000
     26  CMC      -14.9540    0.9920   -8.3560 C.3   700  HEM700      0.0000
     27  CAC      -16.3720    3.9250   -8.2730 C.2   700  HEM700      0.0000
     28  CBC      -15.1820    4.3840   -8.7230 C.2   700  HEM700      0.0000
     29  C1D      -20.6070    3.2360   -9.8790 C.2   700  HEM700      0.0000
     30  C2D      -21.6630    4.2290   -9.7390 C.2   700  HEM700      0.0000
     31  C3D      -22.9350    3.5430  -10.2070 C.2   700  HEM700      0.0000
     32  C4D      -22.5400    2.2080  -10.5840 C.2   700  HEM700      0.0000
     33  CMD      -21.5110    5.6830   -9.2300 C.3   700  HEM700      0.0000
     34  CAD      -24.3620    4.1440  -10.2620 C.3   700  HEM700      0.0000
     35  CBD      -24.9490    3.8090   -8.8860 C.3   700  HEM700      0.0000
     36  CGD      -26.4210    4.1500   -8.8100 C.2   700  HEM700      0.0000
     37  O1D      -27.2730    3.3520   -9.2850 O.co2 700  HEM700      0.0000
     38  O2D      -26.7180    5.2370   -8.2760 O.co2 700  HEM700      0.0000
     39  NA       -21.7240   -0.5760  -11.5250 N.ar  700  HEM700      0.0000
     40  NB       -19.0670   -1.5020  -10.9220 N.2   700  HEM700      0.0000
     41  NC       -18.4400    1.1020   -9.7600 N.ar  700  HEM700      0.0000
     42  ND       -21.1680    2.0770  -10.3840 N.2   700  HEM700      0.0000
     43 FE        -20.1060    0.2920  -10.6130 Fe    700  HEM700      0.0000
@<TRIPOS>BOND
     1    14    12   ar
     2    12    11    1
     3    12    13   ar
     4    11    10    1
     5     9     7    1
     6     7     6   ar
     7     7     8   ar
     8    10     6    1
     9     2     8    2
    10     2    15    1
    11    19    16    1
    12     6     5   ar
    13     8    39   ar
    14    15    16    1
    15    15    40    2
    16    16    17    2
    17     5    39   ar
    18     5     1    2
    19    39    43    1
    20     1    32    1
    21    40    43    1
    22    40    18    1
    23    17    20    1
    24    17    18    1
    25    43    42    1
    26    43    41    1
    27    32    42    2
    28    32    31    1
    29    20    21    2
    30    18     3    2
    31    42    29    1
    32    34    31    1
    33    34    35    1
    34    31    30    2
    35    29    30    1
    36    29     4    2
    37    41    22   ar
    38    41    25   ar
    39    30    33    1
    40     3    22    1
    41     4    25    1
    42    22    23   ar
    43    25    24   ar
    44    37    36   ar
    45    35    36    1
    46    23    24   ar
    47    23    26    1
    48    24    27    1
    49    36    38   ar
    50    28    27    2
