@<TRIPOS>MOLECULE
2xyn_VX6_A_1.pdb
 33 37 0 0 0
SMALL
GASTEIGER

@<TRIPOS>ATOM
      1  N1       -51.2240   42.1360   -4.8280 N.3   547  VX6547     -0.2686
      2  C2       -51.7580   42.2110   -6.1940 C.3   547  VX6547      0.0939
      3  C3       -51.6330   43.5970   -6.8230 C.3   547  VX6547      0.1102
      4  N4       -51.9760   44.6770   -5.8840 N.pl3 547  VX6547     -0.2830
      5  C5       -51.6150   44.5170   -4.4570 C.3   547  VX6547      0.1102
      6  C6       -51.9470   43.1060   -3.9830 C.3   547  VX6547      0.0939
      7  C7       -51.4290   40.7620   -4.2950 C.3   547  VX6547      0.0897
      8  C8       -52.4560   45.9270   -6.3590 C.2   547  VX6547      0.1843
      9  C9       -52.2030   47.0700   -5.5970 C.3   547  VX6547      0.1825
     10  C10      -52.6510   48.3060   -6.0360 C.2   547  VX6547      0.3106
     11  N11      -53.3170   48.3800   -7.1790 N.2   547  VX6547     -0.2951
     12  C12      -53.5520   47.2930   -7.9260 C.1   547  VX6547      0.1763
     13  N13      -53.1220   46.0640   -7.5300 N.2   547  VX6547     -0.3233
     14  N14      -52.4080   49.3950   -5.3280 N.pl3 547  VX6547      0.0224
     15  C15      -52.7520   50.6360   -5.6910 C.2   547  VX6547      0.3768
     16  C17      -53.4740   51.0730   -6.7330 C.3   547  VX6547      0.1690
     17  C18      -53.4960   52.3960   -6.5730 C.2   547  VX6547      0.0959
     18  N19      -52.8220   52.7000   -5.4710 N.2   547  VX6547     -0.0426
     19  N20      -52.3810   51.6710   -4.9480 N.2   547  VX6547      0.0793
     20  C21      -54.1680   53.4520   -7.4550 C.3   547  VX6547      0.0520
     21  S23      -54.4410   47.4720   -9.4250 S.3   547  VX6547      0.0090
     22  C24      -54.8990   49.1220   -9.7610 C.ar  547  VX6547      0.0409
     23  C25      -54.0210   49.9980  -10.3630 C.ar  547  VX6547      0.0085
     24  C26      -54.3830   51.3100  -10.6610 C.ar  547  VX6547      0.0171
     25  C27      -55.6530   51.7860  -10.3680 C.ar  547  VX6547      0.0734
     26  C28      -56.5320   50.8670   -9.7920 C.ar  547  VX6547      0.0171
     27  C29      -56.1700   49.5560   -9.5000 C.ar  547  VX6547      0.0085
     28  N30      -56.0640   53.0670  -10.6490 N.am  547  VX6547     -0.1792
     29  C31      -55.2220   54.0660  -10.9320 C.2   547  VX6547      0.2451
     30  O32      -54.0190   53.9320  -11.0030 O.2   547  VX6547     -0.2730
     31  C33      -55.8010   55.4020  -11.3480 C.3   547  VX6547      0.0786
     32  C34      -56.8270   56.0930  -10.4400 C.3   547  VX6547      0.0096
     33  C35      -55.3700   56.5740  -10.4880 C.3   547  VX6547      0.0096
@<TRIPOS>BOND
     1    31    29    1
     2    31    33    1
     3    31    32    1
     4    30    29    2
     5    29    28   am
     6    24    25   ar
     7    24    23   ar
     8    28    25    1
     9    33    32    1
    10    25    26   ar
    11    23    22   ar
    12    26    27   ar
    13    22    27   ar
    14    22    21    1
    15    21    12    1
    16    12    13    2
    17    12    11    2
    18    13     8    2
    19    20    17    1
    20    11    10    2
    21     3     2    1
    22     3     4    1
    23    16    17    1
    24    16    15    1
    25    17    18    2
    26     8     4    1
    27     8     9    1
    28     2     1    1
    29    10     9    1
    30    10    14    1
    31     4     5    1
    32    15    14    1
    33    15    19    2
    34    18    19    1
    35     1     7    1
    36     1     6    1
    37     5     6    1
