@<TRIPOS>MOLECULE
2xyp_XVE_A_1.pdb
 22 23 0 0 0
SMALL
GASTEIGER

@<TRIPOS>ATOM
      1  C91       36.9040   34.9590   31.9480 C.3   1175  XVE1175     0.0741
      2  C1        35.6490   37.1670   32.5000 C.3   1175  XVE1175     0.1600
      3  C2        34.2260   37.8450   32.5400 C.3   1175  XVE1175     0.0557
      4  N3        36.5510   37.9180   31.6140 N.am  1175  XVE1175    -0.1626
      5  C92       35.6020   35.7150   32.0250 C.2   1175  XVE1175     0.1711
      6  C5        33.9040   38.9740   31.5260 C.ar  1175  XVE1175    -0.0200
      7  C6        37.5670   38.6980   32.0710 C.2   1175  XVE1175     0.4218
      8  O8        34.5660   35.1600   31.6970 O.2   1175  XVE1175    -0.2942
      9  C9        34.0320   38.8230   30.1070 C.ar  1175  XVE1175    -0.0042
     10  C10       33.4510   40.2280   32.0390 C.ar  1175  XVE1175    -0.0042
     11  O11       38.2460   39.2700   31.0340 O.3   1175  XVE1175    -0.4285
     12  O12       37.8440   38.8630   33.2590 O.2   1175  XVE1175    -0.2245
     13  C14       33.7180   39.8990   29.2340 C.ar  1175  XVE1175    -0.0003
     14  C15       33.1360   41.3040   31.1700 C.ar  1175  XVE1175    -0.0003
     15  C16       39.3720   40.1330   31.3620 C.3   1175  XVE1175     0.2368
     16  C17       33.2690   41.1440   29.7620 C.ar  1175  XVE1175    -0.0000
     17  C18       40.7350   39.4320   31.5650 C.ar  1175  XVE1175     0.0213
     18  C19       40.9290   38.0290   31.3360 C.ar  1175  XVE1175    -0.0007
     19  C20       41.8390   40.2180   32.0010 C.ar  1175  XVE1175    -0.0007
     20  C21       42.1990   37.4340   31.5410 C.ar  1175  XVE1175    -0.0002
     21  C22       43.1140   39.6190   32.2060 C.ar  1175  XVE1175    -0.0002
     22  C23       43.2950   38.2290   31.9770 C.ar  1175  XVE1175    -0.0000
@<TRIPOS>BOND
     1    13    16   ar
     2    13     9   ar
     3    16    14   ar
     4     9     6   ar
     5    11    15    1
     6    11     7    1
     7    14    10   ar
     8    18    20   ar
     9    18    17   ar
    10    15    17    1
    11     6    10   ar
    12     6     3    1
    13    20    22   ar
    14    17    19   ar
    15     4     7   am
    16     4     2    1
    17     8     5    2
    18     1     5    1
    19    22    21   ar
    20    19    21   ar
    21     5     2    1
    22     7    12    2
    23     2     3    1
