@<TRIPOS>MOLECULE
2xyq_SAH_A_1.pdb
 26 28 0 0 0
SMALL
GASTEIGER

@<TRIPOS>ATOM
      1  N         40.7710   61.4060   -4.4250 N.3   1293  SAH1293    -0.1208
      2  CA        41.1790   60.1970   -3.6480 C.3   1293  SAH1293     0.1952
      3  CB        41.4380   60.5610   -2.1860 C.3   1293  SAH1293     0.0422
      4  CG        42.5700   61.5700   -2.0450 C.3   1293  SAH1293     0.0597
      5  SD        43.2930   61.4830   -0.4380 S.3   1293  SAH1293    -0.1375
      6  C         40.0920   59.1620   -3.7350 C.2   1293  SAH1293     0.3819
      7  O         39.2160   59.2210   -4.6040 O.co2 1293  SAH1293    -0.2441
      8  OXT       40.0510   58.2270   -2.9310 O.co2 1293  SAH1293    -0.2441
      9  C5'       44.4370   62.8270   -0.5450 C.3   1293  SAH1293     0.0899
     10  C4'       45.4740   62.5290   -1.6250 C.3   1293  SAH1293     0.1630
     11  O4'       46.2440   63.6870   -1.9680 O.3   1293  SAH1293    -0.3153
     12  C3'       46.4620   61.4550   -1.1960 C.3   1293  SAH1293     0.2168
     13  O3'       46.2800   60.3210   -2.0440 O.3   1293  SAH1293    -0.2175
     14  C2'       47.8330   62.0720   -1.3990 C.3   1293  SAH1293     0.2569
     15  O2'       48.7610   61.1500   -1.9860 O.3   1293  SAH1293    -0.2130
     16  C1'       47.5550   63.2440   -2.3250 C.3   1293  SAH1293     0.3185
     17  N9        48.5800   64.3140   -2.1910 N.pl3 1293  SAH1293    -0.1439
     18  C8        48.7940   65.1020   -1.1190 C.3   1293  SAH1293     0.3377
     19  N7        49.8200   65.9670   -1.3430 N.2   1293  SAH1293    -0.2095
     20  C5        50.2760   65.7400   -2.5890 C.2   1293  SAH1293     0.2526
     21  C6        51.3400   66.2990   -3.4620 C.2   1293  SAH1293     0.4393
     22  N6        52.1390   67.3060   -3.0290 N.pl3 1293  SAH1293     0.2180
     23  N1        51.4840   65.7710   -4.7030 N.2   1293  SAH1293     0.0021
     24  C2        50.6960   64.7680   -5.1470 C.3   1293  SAH1293     0.5254
     25  N3        49.7110   64.2130   -4.4090 N.2   1293  SAH1293    -0.0055
     26  C4        49.4570   64.6470   -3.1450 C.2   1293  SAH1293     0.3518
@<TRIPOS>BOND
     1    24    23    1
     2    24    25    1
     3    23    21    2
     4     7     6   ar
     5     1     2    1
     6    25    26    2
     7     6     2    1
     8     6     8   ar
     9     2     3    1
    10    21    22    1
    11    21    20    1
    12    26    20    1
    13    26    17    1
    14    20    19    2
    15    16    17    1
    16    16    11    1
    17    16    14    1
    18    17    18    1
    19     3     4    1
    20     4     5    1
    21    13    12    1
    22    15    14    1
    23    11    10    1
    24    10    12    1
    25    10     9    1
    26    14    12    1
    27    19    18    1
    28     9     5    1
