@<TRIPOS>MOLECULE
2xyr_SFG_A_1.pdb
 27 29 0 0 0
SMALL
GASTEIGER

@<TRIPOS>ATOM
      1  N         40.7110   61.3490   -4.3110 N.3   1298  SFG1298    -0.1208
      2  CA        41.1200   60.0970   -3.6060 C.3   1298  SFG1298     0.1944
      3  C         39.9600   59.1410   -3.6520 C.2   1298  SFG1298     0.3819
      4  O         39.1880   59.1470   -4.6060 O.co2 1298  SFG1298    -0.2441
      5  OXT       39.7500   58.3140   -2.7670 O.co2 1298  SFG1298    -0.2441
      6  CB        41.5570   60.3950   -2.1710 C.3   1298  SFG1298     0.0321
      7  CG        42.6310   61.4820   -2.1190 C.3   1298  SFG1298     0.0212
      8  CD        43.4550   61.4620   -0.8310 C.3   1298  SFG1298     0.0944
      9  NE        42.5750   61.5870    0.3250 N.3   1298  SFG1298    -0.1328
     10  C5'       44.4560   62.6150   -0.8400 C.3   1298  SFG1298     0.0514
     11  C4'       45.6380   62.3420   -1.7650 C.3   1298  SFG1298     0.1537
     12  O4'       46.3810   63.5440   -2.0120 O.3   1298  SFG1298    -0.3161
     13  C3'       46.6370   61.3350   -1.2050 C.3   1298  SFG1298     0.2159
     14  O3'       46.6020   60.1750   -2.0270 O.3   1298  SFG1298    -0.2175
     15  C2'       47.9820   62.0130   -1.3270 C.3   1298  SFG1298     0.2569
     16  O2'       48.9750   61.1290   -1.8450 O.3   1298  SFG1298    -0.2130
     17  C1'       47.7180   63.1440   -2.3090 C.3   1298  SFG1298     0.3185
     18  N9        48.7340   64.2290   -2.2040 N.pl3 1298  SFG1298    -0.1439
     19  C8        49.0130   64.9800   -1.1320 C.3   1298  SFG1298     0.3377
     20  N7        50.0160   65.8400   -1.4350 N.2   1298  SFG1298    -0.2095
     21  C5        50.3620   65.6240   -2.7160 C.2   1298  SFG1298     0.2526
     22  C6        51.3120   66.1980   -3.5640 C.2   1298  SFG1298     0.4393
     23  N6        52.1180   67.2000   -3.1270 N.pl3 1298  SFG1298     0.2180
     24  N1        51.4260   65.7430   -4.8370 N.2   1298  SFG1298     0.0021
     25  C2        50.6250   64.7460   -5.2640 C.3   1298  SFG1298     0.5254
     26  N3        49.6970   64.1800   -4.4650 N.2   1298  SFG1298    -0.0055
     27  C4        49.5510   64.6040   -3.1900 C.2   1298  SFG1298     0.3518
@<TRIPOS>BOND
     1    25    24    1
     2    25    26    1
     3    24    22    2
     4     4     3   ar
     5    26    27    2
     6     1     2    1
     7     3     2    1
     8     3     5   ar
     9     2     6    1
    10    22    23    1
    11    22    21    1
    12    27    21    1
    13    27    18    1
    14    21    20    2
    15    17    18    1
    16    17    12    1
    17    17    15    1
    18    18    19    1
    19     6     7    1
    20     7     8    1
    21    14    13    1
    22    12    11    1
    23    16    15    1
    24    11    13    1
    25    11    10    1
    26    20    19    1
    27    15    13    1
    28    10     8    1
    29     8     9    1
