@<TRIPOS>MOLECULE
2xys_SY9_A_1.pdb
 25 31 0 0 0
SMALL
GASTEIGER

@<TRIPOS>ATOM
      1  CAV      -42.9440    7.4570  -16.9290 C.3   1206  SY91206     0.0634
      2  CAU      -41.9900    7.1990  -18.1010 C.3   1206  SY91206     0.0205
      3  CAT      -40.7140    6.5440  -17.5940 C.3   1206  SY91206     0.0247
      4  CAN      -41.0620    5.1650  -17.0300 C.3   1206  SY91206     0.0504
      5  CAK      -42.0570    5.2400  -15.8770 C.3   1206  SY91206     0.0873
      6  NAH      -42.7000    3.9170  -15.8410 N.am  1206  SY91206    -0.2601
      7  CAA      -44.0650    3.9930  -16.1040 C.ar  1206  SY91206     0.0498
      8  CAF      -44.9770    2.9560  -16.3080 C.ar  1206  SY91206     0.0146
      9  CAE      -46.2920    3.2310  -16.6460 C.ar  1206  SY91206     0.0013
     10  CAD      -46.6780    4.5540  -16.8200 C.ar  1206  SY91206    -0.0002
     11  CAC      -45.7620    5.5900  -16.6500 C.ar  1206  SY91206    -0.0030
     12  CAB      -44.4390    5.3160  -16.3360 C.ar  1206  SY91206    -0.0062
     13  CAG      -43.2320    6.2250  -16.0280 C.3   1206  SY91206     0.0520
     14  CAW      -43.5470    6.8790  -14.6840 C.3   1206  SY91206     0.0243
     15  CAX      -42.4180    7.8980  -14.6160 C.3   1206  SY91206     0.0728
     16  NAY      -42.3470    8.4640  -15.9910 N.3   1206  SY91206    -0.2702
     17  CAS      -40.9240    8.7590  -16.2420 C.3   1206  SY91206     0.0946
     18  CAR      -40.1910    7.4520  -16.5210 C.2   1206  SY91206    -0.0303
     19  CAQ      -39.0950    7.2170  -15.7090 C.2   1206  SY91206    -0.0015
     20  CAP      -38.3450    6.0510  -15.8310 C.3   1206  SY91206     0.1677
     21  OAO      -38.9960    4.7820  -15.5800 O.3   1206  SY91206    -0.3509
     22  CAM      -39.8690    4.2820  -16.5900 C.3   1206  SY91206     0.1266
     23  CAL      -40.3490    2.9870  -15.8440 C.3   1206  SY91206     0.1151
     24  CAI      -41.8680    2.8070  -15.9080 C.2   1206  SY91206     0.2318
     25  OAJ      -42.4320    1.5680  -15.9210 O.2   1206  SY91206    -0.2744
@<TRIPOS>BOND
     1     2     3    1
     2     2     1    1
     3     3     4    1
     4     3    18    1
     5     4    22    1
     6     4     5    1
     7     1    13    1
     8     1    16    1
     9    10    11   ar
    10    10     9   ar
    11    11    12   ar
    12     9     8   ar
    13    22    23    1
    14    22    21    1
    15    18    17    1
    16    18    19    2
    17    12     7   ar
    18    12    13    1
    19     8     7   ar
    20    17    16    1
    21     7     6    1
    22    13     5    1
    23    13    14    1
    24    16    15    1
    25    25    24    2
    26    24    23    1
    27    24     6   am
    28     5     6    1
    29    20    19    1
    30    20    21    1
    31    14    15    1
