@<TRIPOS>MOLECULE
2xyt_TC9_B_1.pdb
 45 51 0 0 0
SMALL
GASTEIGER

@<TRIPOS>ATOM
      1  N1        37.1400  117.7530   52.1260 N.3   1206  TC91206    -0.2685
      2  C2        36.8440  118.3230   50.8540 C.3   1206  TC91206     0.0771
      3  C3        37.9710  118.1530   49.8780 C.3   1206  TC91206     0.0435
      4  C4        38.8200  116.9350   50.1080 C.ar  1206  TC91206    -0.0203
      5  C5        38.5420  116.0150   51.1590 C.ar  1206  TC91206    -0.0081
      6  C6        37.3610  116.2610   52.0100 C.3   1206  TC91206     0.0843
      7  C7        39.9180  116.6730   49.2490 C.ar  1206  TC91206     0.0356
      8  C8        40.7210  115.5200   49.4640 C.ar  1206  TC91206     0.1726
      9  C9        40.4180  114.6170   50.5280 C.ar  1206  TC91206     0.1788
     10  C10       39.3190  114.8520   51.3870 C.ar  1206  TC91206     0.0374
     11  O11       41.2160  113.4540   50.6380 O.3   1206  TC91206    -0.4472
     12  C12       41.1230  112.7220   51.8480 C.ar  1206  TC91206     0.1837
     13  C13       42.2150  112.8570   52.7160 C.ar  1206  TC91206     0.2298
     14  C14       42.2790  112.1030   53.8660 C.ar  1206  TC91206     0.0449
     15  C15       41.2460  111.1790   54.1500 C.ar  1206  TC91206    -0.0008
     16  C16       40.1700  111.0120   53.2770 C.ar  1206  TC91206    -0.0207
     17  C17       40.0990  111.7890   52.1170 C.ar  1206  TC91206     0.0365
     18  C18       39.0430  110.0090   53.6880 C.3   1206  TC91206     0.0105
     19  C19       38.8970  108.6740   52.8710 C.3   1206  TC91206    -0.0238
     20  N20       39.6970  107.5350   53.3030 N.4   1206  TC91206     0.3914
     21  C21       39.1200  106.4860   54.1120 C.3   1206  TC91206    -0.0679
     22  C22       37.8260  106.7800   54.7930 C.3   1206  TC91206     0.0040
     23  C23       36.8790  107.4720   53.8900 C.ar  1206  TC91206    -0.0240
     24  C24       37.3660  108.3910   52.9160 C.ar  1206  TC91206    -0.0067
     25  C25       35.5020  107.2100   54.0320 C.ar  1206  TC91206     0.0357
     26  C26       34.6140  107.8630   53.2070 C.ar  1206  TC91206     0.1801
     27  C27       35.0870  108.7990   52.2200 C.ar  1206  TC91206     0.2629
     28  C28       36.4760  109.0740   52.0890 C.ar  1206  TC91206     0.1808
     29  O29       36.9550  109.9360   51.0690 O.3   1206  TC91206    -0.4506
     30  C30       36.7370  111.3110   51.2260 C.ar  1206  TC91206     0.1454
     31  C31       36.8750  112.1320   50.0800 C.ar  1206  TC91206     0.0372
     32  C32       36.6670  113.5090   50.1600 C.ar  1206  TC91206    -0.0011
     33  C33       36.3320  114.0900   51.3630 C.ar  1206  TC91206    -0.0203
     34  C34       36.2000  113.2720   52.5300 C.ar  1206  TC91206    -0.0011
     35  C35       36.3970  111.8960   52.4590 C.ar  1206  TC91206     0.0372
     36  C36       36.1050  115.5870   51.4220 C.3   1206  TC91206     0.0468
     37  O37       41.8020  115.2530   48.5980 O.3   1206  TC91206    -0.4684
     38  C38       42.5670  116.3090   48.0430 C.3   1206  TC91206     0.2526
     39  O39       43.1970  113.7730   52.3910 O.3   1206  TC91206    -0.2833
     40  O40       33.2670  107.6020   53.3540 O.3   1206  TC91206    -0.4681
     41  C41       32.8740  106.3610   53.7670 C.3   1206  TC91206     0.2526
     42  O42       34.1830  109.4830   51.4410 O.3   1206  TC91206    -0.2800
     43  C43       36.4320  118.5700   53.1010 C.3   1206  TC91206     0.0899
     44  C44       40.9110  108.0110   53.9990 C.3   1206  TC91206    -0.0953
     45  C45       40.1210  106.8000   52.0970 C.3   1206  TC91206    -0.0953
@<TRIPOS>BOND
     1    38    37    1
     2    37     8    1
     3     7     8   ar
     4     7     4   ar
     5     8     9   ar
     6     3     4    1
     7     3     2    1
     8    31    32   ar
     9    31    30   ar
    10     4     5   ar
    11    32    33   ar
    12     9    11    1
    13     9    10   ar
    14    11    12    1
    15     2     1    1
    16    29    30    1
    17    29    28    1
    18     5    10   ar
    19     5     6    1
    20    30    35   ar
    21    33    36    1
    22    33    34   ar
    23    36     6    1
    24    42    27    1
    25    12    17   ar
    26    12    13   ar
    27     6     1    1
    28    28    27   ar
    29    28    24   ar
    30    45    20    1
    31    17    16   ar
    32     1    43    1
    33    27    26   ar
    34    39    13    1
    35    35    34   ar
    36    13    14   ar
    37    19    24    1
    38    19    20    1
    39    19    18    1
    40    24    23   ar
    41    26    40    1
    42    26    25   ar
    43    16    18    1
    44    16    15   ar
    45    20    44    1
    46    20    21    1
    47    40    41    1
    48    14    15   ar
    49    23    25   ar
    50    23    22    1
    51    21    22    1
