@<TRIPOS>MOLECULE
2xyu_Q9G_A_1.pdb
 22 25 0 0 0
SMALL
GASTEIGER

@<TRIPOS>ATOM
      1  N01        3.0790   12.6700   19.5130 N.2   1898  Q9G1898    -0.3509
      2  C02        4.0690   13.5860   19.8440 C.1   1898  Q9G1898     0.1227
      3  C03        5.4280   13.3500   20.0960 C.3   1898  Q9G1898     0.2348
      4  C04        5.8600   11.9580   19.9890 C.2   1898  Q9G1898    -0.0192
      5  C05        4.9570   11.0010   19.6720 C.2   1898  Q9G1898     0.0019
      6  C06        3.5370   11.3820   19.4220 C.2   1898  Q9G1898     0.1377
      7  C07        2.5610   10.3110   19.0770 C.ar  1898  Q9G1898     0.0284
      8  C08        7.2960   11.5930   20.2440 C.3   1898  Q9G1898     0.0234
      9  C09        7.4430   10.1790   20.6780 C.3   1898  Q9G1898     0.0047
     10  C10        6.8230    9.2920   19.6680 C.3   1898  Q9G1898     0.0051
     11  C11        5.3610    9.5570   19.5550 C.3   1898  Q9G1898     0.0284
     12  N12        3.8730   14.9490   20.0050 N.2   1898  Q9G1898     0.0290
     13  N13        4.9730   15.6220   20.3220 N.2   1898  Q9G1898     0.0951
     14  C14        5.9390   14.6600   20.3890 C.2   1898  Q9G1898     0.4365
     15  N15        7.2900   14.9930   20.7220 N.pl3 1898  Q9G1898     0.2151
     16  C16        1.9070    9.6300   20.1040 C.ar  1898  Q9G1898     0.0319
     17  C17        0.9960    8.6390   19.8280 C.ar  1898  Q9G1898     0.1402
     18  F18        0.4120    8.0040   20.8550 F     1898  Q9G1898    -0.2042
     19  C19        0.6930    8.3030   18.5220 C.ar  1898  Q9G1898     0.0293
     20  C20        1.3180    8.9750   17.4820 C.ar  1898  Q9G1898    -0.0019
     21  C21        2.2600    9.9850   17.7440 C.ar  1898  Q9G1898    -0.0192
     22  C22        2.9400   10.7130   16.6300 C.3   1898  Q9G1898     0.0311
@<TRIPOS>BOND
     1    22    21    1
     2    20    21   ar
     3    20    19   ar
     4    21     7   ar
     5    19    17   ar
     6     7     6    1
     7     7    16   ar
     8     6     1    2
     9     6     5    1
    10     1     2    2
    11    11    10    1
    12    11     5    1
    13    10     9    1
    14     5     4    2
    15    17    16   ar
    16    17    18    1
    17     2    12    2
    18     2     3    1
    19     4     3    1
    20     4     8    1
    21    12    13    1
    22     3    14    1
    23     8     9    1
    24    13    14    2
    25    14    15    1
