@<TRIPOS>MOLECULE
2xyv_SAH_A_1.pdb
 26 28 0 0 0
SMALL
GASTEIGER

@<TRIPOS>ATOM
      1  N         41.0710   61.3920   -4.1910 N.3   1300  SAH1300    -0.1208
      2  CA        41.5180   60.1700   -3.4510 C.3   1300  SAH1300     0.1952
      3  CB        41.6970   60.5020   -1.9690 C.3   1300  SAH1300     0.0422
      4  CG        42.6900   61.6450   -1.7770 C.3   1300  SAH1300     0.0597
      5  SD        43.3610   61.5860   -0.1430 S.3   1300  SAH1300    -0.1375
      6  C         40.4740   59.0950   -3.6310 C.2   1300  SAH1300     0.3819
      7  O         39.7250   59.0940   -4.6220 O.co2 1300  SAH1300    -0.2441
      8  OXT       40.3200   58.2020   -2.7970 O.co2 1300  SAH1300    -0.2441
      9  C5'       44.5900   62.8530   -0.2580 C.3   1300  SAH1300     0.0899
     10  C4'       45.4970   62.5660   -1.4520 C.3   1300  SAH1300     0.1630
     11  O4'       46.1960   63.7380   -1.8870 O.3   1300  SAH1300    -0.3153
     12  C3'       46.5450   61.5090   -1.1320 C.3   1300  SAH1300     0.2168
     13  O3'       46.3650   60.4120   -2.0330 O.3   1300  SAH1300    -0.2175
     14  C2'       47.8770   62.1870   -1.3790 C.3   1300  SAH1300     0.2569
     15  O2'       48.8180   61.3170   -2.0220 O.3   1300  SAH1300    -0.2130
     16  C1'       47.5170   63.3560   -2.2790 C.3   1300  SAH1300     0.3185
     17  N9        48.5040   64.4570   -2.1320 N.pl3 1300  SAH1300    -0.1439
     18  C8        48.6320   65.2910   -1.0820 C.3   1300  SAH1300     0.3377
     19  N7        49.6480   66.1730   -1.2800 N.2   1300  SAH1300    -0.2095
     20  C5        50.1870   65.9060   -2.4860 C.2   1300  SAH1300     0.2526
     21  C6        51.2910   66.4570   -3.3130 C.2   1300  SAH1300     0.4393
     22  N6        52.0370   67.5010   -2.8740 N.pl3 1300  SAH1300     0.2180
     23  N1        51.5270   65.8840   -4.5190 N.2   1300  SAH1300     0.0021
     24  C2        50.7910   64.8430   -4.9690 C.3   1300  SAH1300     0.5254
     25  N3        49.7750   64.2920   -4.2690 N.2   1300  SAH1300    -0.0055
     26  C4        49.4320   64.7710   -3.0430 C.2   1300  SAH1300     0.3518
@<TRIPOS>BOND
     1    24    23    1
     2    24    25    1
     3     7     6   ar
     4    23    21    2
     5    25    26    2
     6     1     2    1
     7     6     2    1
     8     6     8   ar
     9     2     3    1
    10    21    22    1
    11    21    20    1
    12    26    20    1
    13    26    17    1
    14    20    19    2
    15    16    17    1
    16    16    11    1
    17    16    14    1
    18    17    18    1
    19    13    12    1
    20    15    14    1
    21     3     4    1
    22    11    10    1
    23     4     5    1
    24    10    12    1
    25    10     9    1
    26    14    12    1
    27    19    18    1
    28     9     5    1
