@<TRIPOS>MOLECULE
2xyw_08S_A_1.pdb
 34 37 0 0 0
SMALL
GASTEIGER

@<TRIPOS>ATOM
      1  C1        18.0170   -1.0850   41.6240 C.3   1441  08S1441     0.0069
      2  C2        20.1140   -1.8770   42.7420 C.3   1441  08S1441     0.0069
      3  C3        14.8540   -1.7880   36.1740 C.ar  1441  08S1441    -0.0028
      4  C4        14.8900   -4.1100   35.2210 C.ar  1441  08S1441    -0.0028
      5  C5        16.2370   -1.7640   36.1820 C.ar  1441  08S1441     0.0199
      6  C6        16.2900   -4.0340   35.2350 C.ar  1441  08S1441     0.0199
      7  C7        11.8650   -1.7870   45.1540 C.ar  1441  08S1441     0.0297
      8  C8        11.5010   -2.3630   43.9930 C.ar  1441  08S1441     0.0037
      9  C9        13.8530   -0.7400   43.9560 C.ar  1441  08S1441     0.0361
     10  C10       12.6960   -3.0870   35.6540 C.3   1441  08S1441     0.0498
     11  C11       12.3030   -3.5750   36.9500 C.3   1441  08S1441     0.1202
     12  C12       14.1690   -2.9800   35.6790 C.ar  1441  08S1441    -0.0203
     13  C13       16.9230   -2.8690   35.7100 C.ar  1441  08S1441     0.1271
     14  C14       12.9770   -1.0200   45.1210 C.ar  1441  08S1441     0.1406
     15  C15       12.2520   -2.1430   42.8100 C.ar  1441  08S1441     0.0174
     16  C16       13.4280   -1.3500   42.7270 C.ar  1441  08S1441     0.0327
     17  C17       11.8940   -2.6830   41.6390 C.ar  1441  08S1441     0.0685
     18  C18       12.5720   -2.4510   40.5140 C.ar  1441  08S1441     0.0950
     19  C19       19.4290   -2.4360   40.3780 C.ar  1441  08S1441     0.1120
     20  C20       19.1840   -3.5010   38.1940 C.ar  1441  08S1441     0.2237
     21  C21       19.5010   -1.4130   41.4380 C.3   1441  08S1441     0.0484
     22  C22       12.1050   -3.0040   39.2460 C.2   1441  08S1441     0.2716
     23  N23       19.5230   -3.7720   40.4470 N.ar  1441  08S1441    -0.1439
     24  N24       19.3750   -4.3950   39.1920 N.ar  1441  08S1441    -0.1226
     25  N25       12.7660   -2.7600   38.1240 N.am  1441  08S1441    -0.2009
     26  N26       19.0230   -3.9410   36.8380 N.pl3 1441  08S1441    -0.0685
     27  O27       11.1080   -3.6770   39.0920 O.2   1441  08S1441    -0.2678
     28  O28       19.0040   -1.5040   35.7550 O.2   1441  08S1441    -0.1482
     29  O29       18.9540   -3.3700   34.4100 O.2   1441  08S1441    -0.1482
     30  F30       13.1080   -0.6050   46.3370 F     1441  08S1441    -0.2042
     31  S31       13.9610   -1.4330   40.9760 S.2   1441  08S1441    -0.0814
     32  S32       19.1700   -1.8300   38.8240 S.2   1441  08S1441    -0.0318
     33  S33       18.6240   -2.8980   35.6920 S.O2  1441  08S1441     0.0947
     34 CL         10.5290   -3.5450   41.7370 Cl    1441  08S1441    -0.0816
@<TRIPOS>BOND
     1    29    33    2
     2     4     6   ar
     3     4    12   ar
     4     6    13   ar
     5    10    12    1
     6    10    11    1
     7    12     3   ar
     8    33    13    1
     9    33    28    2
    10    33    26    1
    11    13     5   ar
    12     3     5   ar
    13    26    20    1
    14    11    25    1
    15    25    22   am
    16    20    32   ar
    17    20    24   ar
    18    32    19   ar
    19    27    22    2
    20    24    23   ar
    21    22    18    1
    22    19    23   ar
    23    19    21    1
    24    18    31   ar
    25    18    17   ar
    26    31    16   ar
    27    21     1    1
    28    21     2    1
    29    17    34    1
    30    17    15   ar
    31    16    15   ar
    32    16     9   ar
    33    15     8   ar
    34     9    14   ar
    35     8     7   ar
    36    14     7   ar
    37    14    30    1
