@<TRIPOS>MOLECULE
2xyx_Z00_A_1.pdb
 32 34 0 0 0
SMALL
GASTEIGER

@<TRIPOS>ATOM
      1  C1        16.4750   -2.7110   35.8800 C.ar  1441  Z001441     0.1271
      2  S2        18.1900   -2.7500   35.5130 S.O2  1441  Z001441     0.0947
      3  O3        18.4860   -3.7560   34.5260 O.2   1441  Z001441    -0.1482
      4  O4        18.5940   -1.3590   35.4770 O.2   1441  Z001441    -0.1482
      5  N5        18.6580   -3.4450   36.9610 N.pl3 1441  Z001441    -0.0685
      6  C6        12.9190   -2.1460   38.6360 C.2   1441  Z001441     0.0789
      7  C7        12.4460   -2.5150   37.2460 C.3   1441  Z001441     0.0733
      8  C8        13.8000   -2.5640   36.6440 C.ar  1441  Z001441    -0.0161
      9  C9        14.2390   -3.6380   35.8470 C.ar  1441  Z001441    -0.0025
     10  C10       15.5840   -3.6980   35.4340 C.ar  1441  Z001441     0.0199
     11  C11       16.0470   -1.6660   36.6890 C.ar  1441  Z001441     0.0199
     12  C12       14.7220   -1.5920   37.0600 C.ar  1441  Z001441    -0.0025
     13  C13       19.0170   -2.8560   38.1180 C.ar  1441  Z001441     0.2237
     14  S14       18.9770   -1.2190   38.5760 S.2   1441  Z001441    -0.0318
     15  C15       19.4850   -1.7340   40.1380 C.ar  1441  Z001441     0.1120
     16  N16       19.6700   -3.0320   40.2390 N.ar  1441  Z001441    -0.1439
     17  N17       19.3880   -3.6840   39.0650 N.ar  1441  Z001441    -0.1226
     18  C18       19.6540   -0.7560   41.2630 C.3   1441  Z001441     0.0484
     19  C19       19.9590    0.6570   40.7470 C.3   1441  Z001441     0.0069
     20  C20       20.6700   -1.2520   42.2890 C.3   1441  Z001441     0.0069
     21  C21       11.2670   -1.9760   43.0710 C.ar  1441  Z001441     0.1045
     22  C22       12.1100   -1.0640   43.6450 C.ar  1441  Z001441     0.0915
     23  C23       12.2120   -1.6770   40.9770 C.ar  1441  Z001441     0.1727
     24  N24       11.3050   -2.2860   41.7740 N.ar  1441  Z001441    -0.2244
     25  C25       13.0980   -0.6790   41.4870 C.ar  1441  Z001441     0.0933
     26  C26       13.0220   -0.3890   42.8450 C.ar  1441  Z001441     0.0199
     27  N27       12.0810   -2.2140   39.7510 N.2   1441  Z001441    -0.2287
     28  C28       12.0040   -0.8140   45.0600 C.3   1441  Z001441     0.4200
     29  F29       12.7790    0.2230   45.4650 F     1441  Z001441    -0.1658
     30  F30       12.3680   -1.8880   45.8030 F     1441  Z001441    -0.1658
     31  F31       10.7190   -0.5450   45.3710 F     1441  Z001441    -0.1658
     32 CL         14.2900    0.2750   40.6340 Cl    1441  Z001441    -0.0791
@<TRIPOS>BOND
     1     3     2    2
     2    10     9   ar
     3    10     1   ar
     4     4     2    2
     5     2     1    1
     6     2     5    1
     7     9     8   ar
     8     1    11   ar
     9     8    12   ar
    10     8     7    1
    11    11    12   ar
    12     5    13    1
    13     7     6    1
    14    13    14   ar
    15    13    17   ar
    16    14    15   ar
    17     6    27    2
    18    17    16   ar
    19    27    23    1
    20    15    16   ar
    21    15    18    1
    22    32    25    1
    23    19    18    1
    24    23    25   ar
    25    23    24   ar
    26    18    20    1
    27    25    26   ar
    28    24    21   ar
    29    26    22   ar
    30    21    22   ar
    31    22    28    1
    32    28    31    1
    33    28    29    1
    34    28    30    1
