@<TRIPOS>MOLECULE
2xz3_MAL_A_1.pdb
 23 24 0 0 0
SMALL
GASTEIGER

@<TRIPOS>ATOM
      1  C1         6.7070   24.9160   84.1940 C.3   1488  MAL1488     0.2695
      2  C2         7.4730   23.7030   84.7010 C.3   1488  MAL1488     0.2406
      3  C3         7.5530   22.6310   83.6240 C.3   1488  MAL1488     0.2198
      4  C4         6.0970   22.3170   83.2020 C.3   1488  MAL1488     0.2144
      5  C5         5.3060   23.5790   82.7650 C.3   1488  MAL1488     0.1835
      6  C6         3.8130   23.3140   82.5960 C.3   1488  MAL1488     0.2142
      7  O2         8.7590   24.1440   85.1150 O.3   1488  MAL1488    -0.2149
      8  O3         8.1900   21.4790   84.1520 O.3   1488  MAL1488    -0.2174
      9  O4         6.1200   21.4010   82.1270 O.3   1488  MAL1488    -0.2176
     10  O5         5.3940   24.5690   83.7830 O.3   1488  MAL1488    -0.3256
     11  O6         3.2210   24.3490   81.8150 O.3   1488  MAL1488    -0.2176
     12  C1'        8.8730   29.2370   82.1360 C.3   1488  MAL1488     0.3023
     13  C2'        9.3110   28.7120   83.5140 C.3   1488  MAL1488     0.2433
     14  C3'        8.9570   27.2280   83.6710 C.3   1488  MAL1488     0.2168
     15  C4'        7.5580   26.8680   83.1400 C.3   1488  MAL1488     0.1804
     16  C5'        7.3580   27.3920   81.7180 C.3   1488  MAL1488     0.1804
     17  C6'        5.9370   27.0980   81.2050 C.3   1488  MAL1488     0.2141
     18  O2'       10.7270   28.8810   83.5980 O.3   1488  MAL1488    -0.2148
     19  O3'        9.1420   26.7660   85.0140 O.3   1488  MAL1488    -0.2175
     20  O5'        7.5830   28.7890   81.7310 O.3   1488  MAL1488    -0.3237
     21  O6'        5.8550   27.1970   79.8010 O.3   1488  MAL1488    -0.2176
     22  O1'        9.7920   28.8220   81.1920 O.3   1488  MAL1488    -0.1869
     23  O1         7.4490   25.4590   83.1400 O.3   1488  MAL1488    -0.3257
@<TRIPOS>BOND
     1    21    17    1
     2    22    12    1
     3    17    16    1
     4    16    20    1
     5    16    15    1
     6    20    12    1
     7    11     6    1
     8     9     4    1
     9    12    13    1
    10     6     5    1
    11     5     4    1
    12     5    10    1
    13    23    15    1
    14    23     1    1
    15    15    14    1
    16     4     3    1
    17    13    18    1
    18    13    14    1
    19     3     8    1
    20     3     2    1
    21    14    19    1
    22    10     1    1
    23     1     2    1
    24     2     7    1
