@<TRIPOS>MOLECULE
2xz5_ACH_A_1.pdb
 10 9 0 0 0
SMALL
GASTEIGER

@<TRIPOS>ATOM
      1  N1       -14.1190  -11.2150   36.2710 N.4   1210  ACH1210     0.3882
      2  C2       -12.7310  -11.9430   35.9630 C.3   1210  ACH1210    -0.0251
      3  C3       -11.7370  -11.7130   37.1520 C.3   1210  ACH1210     0.1864
      4  C5       -11.5480  -10.5960   39.8190 C.2   1210  ACH1210     0.3175
      5  O7       -10.4250  -10.0790   39.6430 O.2   1210  ACH1210    -0.2501
      6  C6       -12.3040  -10.8380   41.1740 C.3   1210  ACH1210     0.1212
      7  C9       -13.8990   -9.8940   35.9380 C.3   1210  ACH1210    -0.0958
      8  C8       -14.9400  -11.3870   37.5970 C.3   1210  ACH1210    -0.0958
      9  C10      -15.3520  -11.4060   35.5500 C.3   1210  ACH1210    -0.0958
     10  O4       -12.1060  -10.9070   38.5660 O.3   1210  ACH1210    -0.4508
@<TRIPOS>BOND
     1     9     1    1
     2     7     1    1
     3     2     1    1
     4     2     3    1
     5     1     8    1
     6     3    10    1
     7    10     4    1
     8     5     4    2
     9     4     6    1
