@<TRIPOS>MOLECULE
2xz7_PEP_A_1.pdb
 10 9 0 0 0
SMALL
GASTEIGER

@<TRIPOS>ATOM
      1  C1        29.5610    5.6780   21.6010 C.2   6080  PEP6080     0.4216
      2  O1        30.5300    5.0670   22.0920 O.co2 6080  PEP6080    -0.2371
      3  O2'       29.7560    6.4540   20.6460 O.co2 6080  PEP6080    -0.2371
      4  C2        28.1940    5.4850   22.1440 C.2   6080  PEP6080     0.2283
      5  C3        27.1490    6.1620   21.5940 C.2   6080  PEP6080     0.0477
      6  O2        27.9920    4.6320   23.1980 O.2   6080  PEP6080    -0.3930
      7  P         28.0920    5.2100   24.6510 P.3   6080  PEP6080     0.5889
      8  O1P       29.0630    4.3960   25.4730 O.3   6080  PEP6080    -0.1039
      9  O2P       28.5650    6.6440   24.5780 O.2   6080  PEP6080    -0.2114
     10  O3P       26.7400    5.1630   25.3200 O.3   6080  PEP6080    -0.1039
@<TRIPOS>BOND
     1     3     1   ar
     2     5     4    2
     3     1     2   ar
     4     1     4    1
     5     4     6    1
     6     6     7    1
     7     9     7    2
     8     7    10    1
     9     7     8    1
