@<TRIPOS>MOLECULE
2xzc_XOP_L_1.pdb
 18 20 0 0 0
SMALL
GASTEIGER

@<TRIPOS>ATOM
      1  C1       -12.9060    1.5270    1.2920 C.ar  1217  XOP1217     0.0489
      2  C2       -11.8570    2.3170    1.6600 C.ar  1217  XOP1217     0.0044
      3  C3       -11.6670    3.6280    1.2630 C.ar  1217  XOP1217     0.0002
      4  C4       -12.5740    4.2430    0.4530 C.ar  1217  XOP1217     0.0000
      5  C5       -13.6250    3.4950    0.0220 C.ar  1217  XOP1217     0.0002
      6  C6       -13.8110    2.1620    0.4440 C.ar  1217  XOP1217     0.0044
      7  C7       -14.4720   -2.1070    1.1660 C.3   1217  XOP1217     0.1243
      8  C8       -16.0110   -2.0160    1.0930 C.3   1217  XOP1217     0.0460
      9  C9       -16.5670   -2.1130   -0.3180 C.3   1217  XOP1217     0.0600
     10  N        -16.0610   -3.4150   -0.8790 N.3   1217  XOP1217    -0.2739
     11  O1       -11.7550   -0.7040    2.2020 O.3   1217  XOP1217    -0.1726
     12  O2       -13.7850   -0.8530    0.7600 O.3   1217  XOP1217    -0.3169
     13  P        -13.0300   -0.0960    1.8690 P.3   1217  XOP1217     0.2449
     14  C10      -15.9500   -1.1250   -1.3270 C.3   1217  XOP1217     0.0174
     15  C11      -14.6230   -1.7810   -1.8660 C.3   1217  XOP1217     0.0174
     16  C12      -14.6310   -3.1870   -1.2370 C.3   1217  XOP1217     0.0600
     17  C13      -13.8640   -3.0990    0.1120 C.3   1217  XOP1217     0.0460
     18  C14      -16.7630   -3.9470   -2.1260 C.3   1217  XOP1217     0.0896
@<TRIPOS>BOND
     1    18    10    1
     2    15    14    1
     3    15    16    1
     4    14     9    1
     5    16    10    1
     6    16    17    1
     7    10     9    1
     8     9     8    1
     9     5     6   ar
    10     5     4   ar
    11    17     7    1
    12     6     1   ar
    13     4     3   ar
    14    12     7    1
    15    12    13    1
    16     8     7    1
    17     3     2   ar
    18     1     2   ar
    19     1    13    1
    20    13    11    1
