@<TRIPOS>MOLECULE
2xzg_VH1_A_1.pdb
 27 30 0 0 0
SMALL
GASTEIGER

@<TRIPOS>ATOM
      1  CAJ       46.0830   -7.5620   26.2510 C.ar  1362  VH11362    -0.0012
      2  CAH       46.1750   -6.2670   26.7830 C.ar  1362  VH11362     0.0178
      3  CAQ       46.5190   -5.1940   25.9590 C.ar  1362  VH11362     0.0891
      4  NAA       46.5910   -3.9400   26.4740 N.pl3 1362  VH11362    -0.1281
      5  CAI       46.7920   -5.4120   24.6050 C.ar  1362  VH11362     0.0178
      6  CAK       46.7260   -6.7070   24.0820 C.ar  1362  VH11362    -0.0012
      7  CAR       46.3680   -7.7760   24.9120 C.ar  1362  VH11362    -0.0018
      8  CAP       46.2630   -9.1560   24.2810 C.3   1362  VH11362     0.1280
      9  NAZ       47.4900   -9.9620   24.3130 N.am  1362  VH11362    -0.2185
     10  CAU       48.4100   -9.8270   23.2980 C.2   1362  VH11362     0.2553
     11  OAC       48.1570   -9.0130   22.4290 O.2   1362  VH11362    -0.2695
     12  CAX       49.5740  -10.5970   23.2920 C.ar  1362  VH11362     0.0554
     13  CAY       49.7590  -11.5290   24.3490 C.ar  1362  VH11362     0.0088
     14  CAO       50.5050  -10.4670   22.2750 C.ar  1362  VH11362     0.0234
     15  CAS       51.6400  -11.2560   22.3080 C.ar  1362  VH11362     0.1125
     16  SBA       52.8450  -11.1720   21.0200 S.3   1362  VH11362     0.0421
     17  OAF       52.6130  -12.2710   20.1830 O.3   1362  VH11362    -0.0650
     18  OAE       54.1560  -11.4150   21.6630 O.3   1362  VH11362    -0.0650
     19  OAD       52.8090   -9.8950   20.2520 O.3   1362  VH11362    -0.0650
     20  CAN       51.8430  -12.1770   23.3420 C.ar  1362  VH11362     0.0189
     21  CAV       50.9090  -12.3400   24.3740 C.ar  1362  VH11362     0.0016
     22  CAL       51.1200  -13.2500   25.4260 C.ar  1362  VH11362     0.0000
     23  CAG       50.1860  -13.3960   26.4600 C.ar  1362  VH11362     0.0001
     24  CAM       49.0230  -12.5950   26.4200 C.ar  1362  VH11362     0.0045
     25  CAW       48.8090  -11.6690   25.3680 C.ar  1362  VH11362     0.0541
     26  CAT       47.6530  -10.8870   25.3300 C.2   1362  VH11362     0.2552
     27  OAB       46.7960  -10.9340   26.1950 O.2   1362  VH11362    -0.2695
@<TRIPOS>BOND
     1    17    16    1
     2    19    16    1
     3    16    18    1
     4    16    15    1
     5    14    15   ar
     6    14    12   ar
     7    15    20   ar
     8    11    10    2
     9    12    10    1
    10    12    13   ar
    11    10     9   am
    12    20    21   ar
    13     6     5   ar
    14     6     7   ar
    15     8     9    1
    16     8     7    1
    17     9    26   am
    18    13    21   ar
    19    13    25   ar
    20    21    22   ar
    21     5     3   ar
    22     7     1   ar
    23    26    25    1
    24    26    27    2
    25    25    24   ar
    26    22    23   ar
    27     3     4    1
    28     3     2   ar
    29     1     2   ar
    30    24    23   ar
