@<TRIPOS>MOLECULE
2xzi_KDM_A_1.pdb
 18 18 0 0 0
SMALL
GASTEIGER

@<TRIPOS>ATOM
      1  C1        49.1450   37.7820   43.0900 C.3   500  KDM500      0.3156
      2  C10       50.1250   38.2670   44.1510 C.2   500  KDM500      0.4179
      3  C2        49.2970   36.2660   42.8650 C.3   500  KDM500      0.1064
      4  C3        47.9900   35.5820   42.3680 C.3   500  KDM500      0.1902
      5  C4        46.9210   36.5470   41.8400 C.3   500  KDM500      0.2118
      6  C5        46.6040   37.6000   42.9310 C.3   500  KDM500      0.1838
      7  C6        45.7230   38.7520   42.4230 C.3   500  KDM500      0.2143
      8  C7        45.2950   39.6590   43.5910 C.3   500  KDM500      0.2174
      9  C9        44.4650   40.8300   43.0940 C.3   500  KDM500      0.2175
     10  O4        45.7330   35.8300   41.4180 O.3   500  KDM500     -0.2177
     11  O8        51.1520   37.5830   44.3730 O.co2 500  KDM500     -0.2401
     12  O9        49.8210   39.3460   44.7130 O.co2 500  KDM500     -0.2401
     13  O3        48.3430   34.6740   41.3240 O.3   500  KDM500     -0.2201
     14  O5        47.8100   38.1920   43.5200 O.3   500  KDM500     -0.3212
     15  O6        46.4630   39.5160   41.4670 O.3   500  KDM500     -0.2176
     16  O7        44.4950   38.9300   44.5330 O.3   500  KDM500     -0.2175
     17  O10       43.2380   40.2980   42.5680 O.3   500  KDM500     -0.2175
     18  O1        49.5090   38.4990   41.9040 O.3   500  KDM500     -0.1830
@<TRIPOS>BOND
     1    13     4    1
     2    10     5    1
     3    15     7    1
     4     5     4    1
     5     5     6    1
     6    18     1    1
     7     4     3    1
     8     7     6    1
     9     7     8    1
    10    17     9    1
    11     3     1    1
    12     6    14    1
    13     1    14    1
    14     1     2    1
    15     9     8    1
    16     8    16    1
    17     2    11   ar
    18     2    12   ar
