@<TRIPOS>MOLECULE
2xzj_KFN_A_1.pdb
 17 17 0 0 0
SMALL
GASTEIGER

@<TRIPOS>ATOM
      1  C10       50.5810   38.2160   44.0210 C.2   503  KFN503      0.4208
      2  C2        49.5310   36.2370   42.8770 C.2   503  KFN503      0.0526
      3  C3        48.3270   35.5250   42.2190 C.3   503  KFN503      0.2111
      4  C4        47.2700   36.5590   41.7430 C.3   503  KFN503      0.2286
      5  C5        47.0210   37.6200   42.8460 C.3   503  KFN503      0.2319
      6  C6        46.0360   38.7510   42.4390 C.3   503  KFN503      0.2270
      7  C7        45.6250   39.6490   43.6180 C.3   503  KFN503      0.2186
      8  C9        44.8950   40.8860   43.1220 C.3   503  KFN503      0.2175
      9  O4        46.0220   35.9290   41.3820 O.3   503  KFN503     -0.2160
     10  O9        51.6180   37.5390   44.1490 O.co2 503  KFN503     -0.2371
     11  O8        50.4130   39.3960   44.4430 O.co2 503  KFN503     -0.2371
     12  O3        48.8180   34.6690   41.1660 O.3   503  KFN503     -0.2153
     13  O5        48.2740   38.2900   43.2220 O.2   503  KFN503     -0.4675
     14  C20       49.4120   37.5490   43.3460 C.2   503  KFN503      0.2164
     15  O6        46.6790   39.5980   41.4880 O.3   503  KFN503     -0.2163
     16  O7        44.7860   38.9450   44.5310 O.3   503  KFN503     -0.2174
     17  O10       43.6340   40.5160   42.5310 O.3   503  KFN503     -0.2175
@<TRIPOS>BOND
     1    12     3    1
     2     9     4    1
     3    15     6    1
     4     4     3    1
     5     4     5    1
     6     3     2    1
     7     6     5    1
     8     6     7    1
     9    17     8    1
    10     5    13    1
    11     2    14    2
    12     8     7    1
    13    13    14    1
    14    14     1    1
    15     7    16    1
    16     1    10   ar
    17     1    11   ar
