@<TRIPOS>MOLECULE
2xzk_K99_A_1.pdb
 19 19 0 0 0
SMALL
GASTEIGER

@<TRIPOS>ATOM
      1  O1A       56.9750   42.7070   47.7010 O.co2 501  K99501     -0.2398
      2  C1        58.0920   42.4790   48.2340 C.2   501  K99501      0.4228
      3  O1B       58.3110   42.3800   49.4670 O.co2 501  K99501     -0.2398
      4  C2        59.3190   42.3470   47.3040 C.3   501  K99501      0.3531
      5  C3        60.3210   41.2920   47.8030 C.3   501  K99501      0.2604
      6  F1        61.5110   41.4700   47.1280 F     501  K99501     -0.2282
      7  C4        59.8260   39.8510   47.6020 C.3   501  K99501      0.2228
      8  O4        60.8510   38.9380   48.0000 O.3   501  K99501     -0.2172
      9  O6        58.9550   42.0070   45.9530 O.3   501  K99501     -0.3176
     10  C6        58.4290   40.6690   45.6910 C.3   501  K99501      0.1841
     11  C5        59.4490   39.6080   46.1400 C.3   501  K99501      0.2147
     12  O5        58.8830   38.3110   45.9880 O.3   501  K99501     -0.2176
     13  C7        57.9780   40.6830   44.2230 C.3   501  K99501      0.2143
     14  O7        59.1220   40.7820   43.3690 O.3   501  K99501     -0.2176
     15  C8        57.0580   41.9020   44.0000 C.3   501  K99501      0.2174
     16  O8        56.0260   41.8990   44.9970 O.3   501  K99501     -0.2175
     17  C9        56.4430   41.9610   42.5920 C.3   501  K99501      0.2175
     18  O9        55.7360   40.7540   42.3010 O.3   501  K99501     -0.2175
     19  F2        59.9360   43.5440   47.2820 F     501  K99501     -0.1943
@<TRIPOS>BOND
     1    18    17    1
     2    17    15    1
     3    14    13    1
     4    15    13    1
     5    15    16    1
     6    13    10    1
     7    10     9    1
     8    10    11    1
     9     9     4    1
    10    12    11    1
    11    11     7    1
    12     6     5    1
    13    19     4    1
    14     4     5    1
    15     4     2    1
    16     7     5    1
    17     7     8    1
    18     1     2   ar
    19     2     3   ar
