@<TRIPOS>MOLECULE
2xzk_FKD_A_1.pdb
 18 18 0 0 0
SMALL
GASTEIGER

@<TRIPOS>ATOM
      1  O1B       50.1400   39.3060   44.7200 O.co2 500  FKD500     -0.2429
      2  C1        50.3440   38.1660   44.2470 C.2   500  FKD500      0.3942
      3  O1A       51.4650   37.6540   44.1380 O.co2 500  FKD500     -0.2429
      4  C2        49.1170   37.3350   43.8440 C.3   500  FKD500      0.2534
      5  C3        49.4830   36.1850   42.8850 C.3   500  FKD500      0.2317
      6  F1        50.2380   36.7110   41.8770 F     500  FKD500     -0.2312
      7  C4        48.1950   35.5110   42.4050 C.3   500  FKD500      0.2199
      8  O4        48.5450   34.5690   41.3990 O.3   500  FKD500     -0.2173
      9  O6        48.1060   38.1910   43.3290 O.3   500  FKD500     -0.3401
     10  C6        46.8680   37.5970   42.9020 C.3   500  FKD500      0.1816
     11  C5        47.1850   36.5280   41.8440 C.3   500  FKD500      0.2145
     12  O5        45.9790   35.8760   41.4560 O.3   500  FKD500     -0.2176
     13  C7        45.9770   38.7640   42.4240 C.3   500  FKD500      0.2142
     14  O7        46.6330   39.4810   41.3790 O.3   500  FKD500     -0.2176
     15  C8        45.6970   39.7500   43.5790 C.3   500  FKD500      0.2174
     16  O8        44.9850   39.0760   44.6110 O.3   500  FKD500     -0.2175
     17  C9        44.8810   40.9690   43.1290 C.3   500  FKD500      0.2175
     18  O9        43.6400   40.5400   42.5750 O.3   500  FKD500     -0.2175
@<TRIPOS>BOND
     1    14    13    1
     2     8     7    1
     3    12    11    1
     4    11     7    1
     5    11    10    1
     6     6     5    1
     7     7     5    1
     8    13    10    1
     9    13    15    1
    10    18    17    1
    11     5     4    1
    12    10     9    1
    13    17    15    1
    14     9     4    1
    15    15    16    1
    16     4     2    1
    17     3     2   ar
    18     2     1   ar
