@<TRIPOS>MOLECULE
2xzl_ADP_A_1.pdb
 27 29 0 0 0
SMALL
GASTEIGER

@<TRIPOS>ATOM
      1  PB        16.1360   17.9830   24.7960 P.3   1854  ADP1854     0.5373
      2  O1B       15.1050   17.3730   23.8150 O.2   1854  ADP1854    -0.2221
      3  O2B       16.2070   17.1560   26.1170 O.3   1854  ADP1854    -0.1143
      4  O3B       15.7490   19.4210   25.1090 O.3   1854  ADP1854    -0.1143
      5  PA        18.6290   16.9060   24.5230 P.3   1854  ADP1854     0.2231
      6  O1A       18.1170   15.4530   24.2740 O.2   1854  ADP1854    -0.5169
      7  O2A       19.0070   17.0710   25.9780 O.3   1854  ADP1854    -0.4370
      8  O3A       17.5230   17.9590   24.1050 O.3   1854  ADP1854    -0.2261
      9  O5'       19.8600   17.1810   23.5650 O.3   1854  ADP1854    -0.3111
     10  C5'       19.6120   17.1700   22.1960 C.3   1854  ADP1854     0.1813
     11  C4'       20.7980   16.8780   21.3000 C.3   1854  ADP1854     0.1821
     12  O4'       21.7230   17.9750   20.9850 O.3   1854  ADP1854    -0.3135
     13  C3'       21.6980   15.7400   21.6580 C.3   1854  ADP1854     0.2184
     14  O3'       22.1340   14.8820   20.6730 O.3   1854  ADP1854    -0.2174
     15  C2'       22.6920   16.3960   22.5520 C.3   1854  ADP1854     0.2570
     16  O2'       23.8070   15.6710   22.9820 O.3   1854  ADP1854    -0.2130
     17  C1'       22.8650   17.8010   21.9490 C.3   1854  ADP1854     0.3186
     18  N9        23.2930   18.9670   22.6910 N.pl3 1854  ADP1854    -0.1439
     19  C8        22.5410   19.6800   23.7390 C.3   1854  ADP1854     0.3377
     20  N7        23.2870   20.6850   24.1650 N.2   1854  ADP1854    -0.2095
     21  C5        24.5530   20.6650   23.4070 C.2   1854  ADP1854     0.2526
     22  C6        25.7390   21.5230   23.4450 C.2   1854  ADP1854     0.4393
     23  N6        25.8070   22.6370   24.3480 N.pl3 1854  ADP1854     0.2180
     24  N1        26.8430   21.2610   22.5650 N.2   1854  ADP1854     0.0021
     25  C2        26.7870   20.1570   21.6520 C.3   1854  ADP1854     0.5254
     26  N3        25.6580   19.3340   21.6180 N.2   1854  ADP1854    -0.0055
     27  C4        24.5020   19.6100   22.5290 C.2   1854  ADP1854     0.3518
@<TRIPOS>BOND
     1    14    13    1
     2    12    11    1
     3    12    17    1
     4    11    13    1
     5    11    10    1
     6    26    25    1
     7    26    27    2
     8    25    24    1
     9    13    15    1
    10    17    15    1
    11    17    18    1
    12    10     9    1
    13    27    18    1
    14    27    21    1
    15    15    16    1
    16    24    22    2
    17    18    19    1
    18    21    22    1
    19    21    20    2
    20    22    23    1
    21     9     5    1
    22    19    20    1
    23     2     1    2
    24     8     5    1
    25     8     1    1
    26     6     5    2
    27     5     7    1
    28     1     4    1
    29     1     3    1
