@<TRIPOS>MOLECULE
2xzw_AKG_A_1.pdb
 10 9 0 0 0
SMALL
GASTEIGER

@<TRIPOS>ATOM
      1  C1        -8.8550  -21.4970  -24.2420 C.2   201  AKG201      0.4219
      2  O1        -8.8550  -21.4200  -25.4570 O.co2 201  AKG201     -0.2373
      3  O2        -7.8850  -21.0460  -23.6090 O.co2 201  AKG201     -0.2373
      4  C2       -10.0180  -22.0400  -23.5010 C.2   201  AKG201      0.2526
      5  O5       -10.0310  -21.8930  -22.2740 O.2   201  AKG201     -0.2843
      6  C3       -11.2110  -22.7220  -24.1550 C.3   201  AKG201      0.0881
      7  C4       -12.3560  -22.7760  -23.1010 C.3   201  AKG201      0.1224
      8  C5       -13.1340  -21.4380  -23.0890 C.2   201  AKG201      0.3653
      9  O3       -14.3690  -21.4370  -22.8490 O.co2 201  AKG201     -0.2456
     10  O4       -12.5700  -20.3260  -23.3190 O.co2 201  AKG201     -0.2456
@<TRIPOS>BOND
     1     2     1   ar
     2     1     3   ar
     3     1     4    1
     4     6     4    1
     5     6     7    1
     6     4     5    2
     7    10     8   ar
     8     7     8    1
     9     8     9   ar
