@<TRIPOS>MOLECULE
2xzw_ATP_A_1.pdb
 31 33 0 0 0
SMALL
GASTEIGER

@<TRIPOS>ATOM
      1  PG        -7.2700  -20.9880  -18.4380 P.3   200  ATP200      0.5373
      2  O1G       -6.2300  -22.0550  -18.3350 O.3   200  ATP200     -0.1143
      3  O2G       -7.8560  -20.6130  -17.1760 O.3   200  ATP200     -0.1143
      4  O3G       -8.2620  -21.0730  -19.5760 O.2   200  ATP200     -0.2221
      5  PB        -5.8940  -19.0550  -20.1920 P.3   200  ATP200      0.2277
      6  O1B       -6.0460  -20.0160  -21.2800 O.2   200  ATP200     -0.5168
      7  O2B       -4.5530  -18.4340  -20.0090 O.3   200  ATP200     -0.4368
      8  O3B       -6.3170  -19.6620  -18.7530 O.3   200  ATP200     -0.2258
      9  PA        -8.4460  -17.8950  -20.7730 P.3   200  ATP200      0.2189
     10  O1A       -9.3770  -17.5750  -19.6720 O.3   200  ATP200     -0.4371
     11  O2A       -8.7840  -19.0980  -21.6470 O.2   200  ATP200     -0.5170
     12  O3A       -6.9190  -17.7830  -20.3210 O.3   200  ATP200     -0.2700
     13  O5'       -8.5390  -16.6060  -21.7590 O.3   200  ATP200     -0.3112
     14  C5'       -9.7770  -15.9020  -21.9270 C.3   200  ATP200      0.1813
     15  C4'       -9.7420  -15.0520  -23.2050 C.3   200  ATP200      0.1821
     16  O4'       -8.7690  -14.0240  -22.9830 O.3   200  ATP200     -0.3135
     17  C3'       -9.2800  -15.7190  -24.5010 C.3   200  ATP200      0.2184
     18  O3'      -10.2820  -16.4300  -25.2180 O.3   200  ATP200     -0.2174
     19  C2'       -8.7740  -14.5640  -25.3360 C.3   200  ATP200      0.2570
     20  O2'       -9.9000  -13.7370  -25.7890 O.3   200  ATP200     -0.2130
     21  C1'       -8.0860  -13.7580  -24.2780 C.3   200  ATP200      0.3186
     22  N9        -6.6300  -13.9830  -24.0790 N.pl3 200  ATP200     -0.1439
     23  C8        -6.0390  -14.9340  -23.3500 C.3   200  ATP200      0.3377
     24  N7        -4.6830  -14.7600  -23.3630 N.2   200  ATP200     -0.2095
     25  C5        -4.4630  -13.6830  -24.1630 C.2   200  ATP200      0.2526
     26  C6        -3.2900  -12.9100  -24.6050 C.2   200  ATP200      0.4393
     27  N6        -2.0640  -13.3640  -24.2010 N.pl3 200  ATP200      0.2180
     28  N1        -3.4650  -11.8620  -25.4270 N.2   200  ATP200      0.0021
     29  C2        -4.6850  -11.3940  -25.7760 C.3   200  ATP200      0.5254
     30  N3        -5.7960  -12.0810  -25.4060 N.2   200  ATP200     -0.0055
     31  C4        -5.7340  -13.1750  -24.6170 C.2   200  ATP200      0.3518
@<TRIPOS>BOND
     1    20    19    1
     2    29    28    1
     3    29    30    1
     4    28    26    2
     5    30    31    2
     6    19    17    1
     7    19    21    1
     8    18    17    1
     9    31    25    1
    10    31    22    1
    11    26    27    1
    12    26    25    1
    13    17    15    1
    14    21    22    1
    15    21    16    1
    16    25    24    2
    17    22    23    1
    18    24    23    1
    19    15    16    1
    20    15    14    1
    21    14    13    1
    22    13     9    1
    23    11     9    2
    24     6     5    2
    25     9    12    1
    26     9    10    1
    27    12     5    1
    28     5     7    1
    29     5     8    1
    30     4     1    2
    31     8     1    1
    32     1     2    1
    33     1     3    1
