@<TRIPOS>MOLECULE
2y00_Y01_A_1.pdb
 35 38 0 0 0
SMALL
GASTEIGER

@<TRIPOS>ATOM
      1  CAA       -8.7120   -5.7130   23.7900 C.3   401  Y01401      0.0000
      2  CBA       -9.0540   -5.9900   22.3280 C.3   401  Y01401      0.0000
      3  CAB       -8.6980   -7.4330   21.9920 C.3   401  Y01401      0.0000
      4  CAN       -8.3460   -4.9990   21.3840 C.3   401  Y01401      0.0000
      5  CAJ       -9.2740   -3.8890   20.9020 C.3   401  Y01401      0.0000
      6  CAO       -8.5050   -2.7820   20.1530 C.3   401  Y01401      0.0000
      7  CBB       -9.0480   -2.5530   18.7220 C.3   401  Y01401      0.0000
      8  CAC      -10.5080   -2.0720   18.7530 C.3   401  Y01401      0.0000
      9  CBE       -8.2320   -1.5630   17.8290 C.3   401  Y01401      0.0000
     10  CAP       -7.3400   -0.5400   18.5870 C.3   401  Y01401      0.0000
     11  CAQ       -6.2360   -0.1470   17.5620 C.3   401  Y01401      0.0000
     12  CBG       -6.6560   -0.9240   16.2790 C.3   401  Y01401      0.0003
     13  CBI       -7.2460   -2.2090   16.8330 C.3   401  Y01401      0.0000
     14  CAE       -6.1880   -3.0810   17.5440 C.3   401  Y01401      0.0000
     15  CAU       -7.9430   -2.9170   15.6540 C.3   401  Y01401      0.0000
     16  CAS       -6.9690   -3.2260   14.4840 C.3   401  Y01401      0.0003
     17  CBF       -6.1010   -2.0290   14.0220 C.3   401  Y01401      0.0038
     18  CBD       -5.5710   -1.2020   15.2190 C.3   401  Y01401      0.0046
     19  CAK       -4.9010    0.1090   14.7530 C.3   401  Y01401      0.0254
     20  CAI       -4.1060   -0.0590   13.6150 C.2   401  Y01401     -0.0345
     21  CAZ       -4.0650   -1.1680   12.7650 C.2   401  Y01401     -0.0455
     22  CAV       -3.1220   -1.1170   11.5340 C.3   401  Y01401      0.0653
     23  CBH       -4.9280   -2.4270   13.0840 C.3   401  Y01401      0.0151
     24  CAD       -4.0470   -3.4410   13.7890 C.3   401  Y01401      0.0040
     25  CAT       -5.4090   -3.0190   11.7500 C.3   401  Y01401      0.0074
     26  CAR       -4.3180   -3.0660   10.6750 C.3   401  Y01401      0.0443
     27  CBC       -3.9170   -1.6190   10.3130 C.3   401  Y01401      0.1728
     28  OAW       -3.3900   -1.3620    8.9290 O.3   401  Y01401     -0.4519
     29  CAY       -2.4150   -2.1430    8.4070 C.2   401  Y01401      0.3175
     30  OAG       -1.6570   -2.7780    9.1420 O.2   401  Y01401     -0.2501
     31  CAM       -2.2420   -2.1930    6.8880 C.3   401  Y01401      0.1213
     32  CAL       -0.7750   -1.9400    6.5650 C.3   401  Y01401      0.1257
     33  CAX       -0.2970   -2.6790    5.3270 C.2   401  Y01401      0.3654
     34  OAH       -0.2260   -3.9300    5.3660 O.co2 401  Y01401     -0.2456
     35  OAF        0.0450   -1.9540    4.3790 O.co2 401  Y01401     -0.2456
@<TRIPOS>BOND
     1    35    33   ar
     2    33    34   ar
     3    33    32    1
     4    32    31    1
     5    31    29    1
     6    29    28    1
     7    29    30    2
     8    28    27    1
     9    27    26    1
    10    27    22    1
    11    26    25    1
    12    22    21    1
    13    25    23    1
    14    21    23    1
    15    21    20    2
    16    23    24    1
    17    23    17    1
    18    20    19    1
    19    17    16    1
    20    17    18    1
    21    16    15    1
    22    19    18    1
    23    18    12    1
    24    15    13    1
    25    12    13    1
    26    12    11    1
    27    13    14    1
    28    13     9    1
    29    11    10    1
    30     9    10    1
    31     9     7    1
    32     7     8    1
    33     7     6    1
    34     6     5    1
    35     5     4    1
    36     4     2    1
    37     3     2    1
    38     2     1    1
