@<TRIPOS>MOLECULE
2y00_2CV_A_1.pdb
 26 25 0 0 0
SMALL
GASTEIGER

@<TRIPOS>ATOM
      1  C9       -10.6400  -16.0570   28.2530 C.3   501  2CV501      0.0000
      2  C12      -11.0040  -16.4860   29.6910 C.3   501  2CV501      0.0000
      3  C15      -10.0760  -17.5820   30.2580 C.3   501  2CV501      0.0000
      4  C18      -10.6120  -18.0410   31.5940 C.3   501  2CV501      0.0000
      5  C21      -10.0210  -19.3930   32.0230 C.3   501  2CV501      0.0005
      6  C24      -10.2180  -19.6020   33.5360 C.3   501  2CV501      0.0096
      7  C27      -10.1100  -21.0630   33.9770 C.3   501  2CV501      0.0853
      8  C30      -10.8770  -21.3150   35.2880 C.2   501  2CV501      0.2258
      9  N33      -11.5830  -22.4690   35.3820 N.am  501  2CV501     -0.2741
     10  O34      -10.8570  -20.4410   36.1530 O.2   501  2CV501     -0.2749
     11  C35      -11.4970  -23.5080   34.3390 C.3   501  2CV501      0.1290
     12  C36      -12.3710  -22.9340   36.5740 C.3   501  2CV501      0.1290
     13  C37      -12.9210  -21.9170   37.6050 C.3   501  2CV501      0.2044
     14  C40      -14.2340  -22.4060   38.2510 C.3   501  2CV501      0.2166
     15  C41      -14.1300  -22.8440   39.7350 C.3   501  2CV501      0.2175
     16  C42      -15.1490  -22.0940   40.6470 C.3   501  2CV501      0.2175
     17  C43      -14.9210  -20.5700   40.7860 C.3   501  2CV501      0.2175
     18  O47      -13.1910  -20.6510   37.0060 O.3   501  2CV501     -0.2185
     19  O49      -14.8180  -23.4800   37.4900 O.3   501  2CV501     -0.2175
     20  O51      -12.7810  -22.8570   40.2530 O.3   501  2CV501     -0.2175
     21  O53      -15.2150  -22.7190   41.9450 O.3   501  2CV501     -0.2175
     22  C60      -12.3070  -23.2520   33.0800 C.3   501  2CV501      0.2035
     23  O63      -11.5770  -23.9200   32.0530 O.3   501  2CV501     -0.2185
     24  C1       -11.6570  -15.0390   27.7370 C.3   501  2CV501      0.0000
     25  C0       -11.1180  -14.1690   26.5880 C.3   501  2CV501      0.0000
     26  O44      -13.6840  -20.2680   41.4450 O.3   501  2CV501     -0.2175
@<TRIPOS>BOND
     1    25    24    1
     2    24     1    1
     3     1     2    1
     4     2     3    1
     5     3     4    1
     6     4     5    1
     7     5     6    1
     8    23    22    1
     9    22    11    1
    10     6     7    1
    11     7     8    1
    12    11     9    1
    13     8     9   am
    14     8    10    2
    15     9    12    1
    16    12    13    1
    17    18    13    1
    18    19    14    1
    19    13    14    1
    20    14    15    1
    21    15    20    1
    22    15    16    1
    23    16    17    1
    24    16    21    1
    25    17    26    1
