@<TRIPOS>MOLECULE
2y00_Y00_A_1.pdb
 22 23 0 0 0
SMALL
GASTEIGER

@<TRIPOS>ATOM
      1  O3       -33.7660  -16.8350   25.3140 O.3   601  Y00601     -0.2866
      2  C16      -32.4660  -16.4570   25.2260 C.ar  601  Y00601      0.1957
      3  C15      -31.5250  -17.0630   26.0610 C.ar  601  Y00601      0.0417
      4  C14      -30.1860  -16.6850   25.9850 C.ar  601  Y00601     -0.0010
      5  C17      -32.0840  -15.4730   24.3070 C.ar  601  Y00601      0.0417
      6  C18      -30.7370  -15.0880   24.2290 C.ar  601  Y00601     -0.0010
      7  C13      -29.7880  -15.7000   25.0670 C.ar  601  Y00601     -0.0219
      8  C12      -28.3300  -15.2850   24.9830 C.3   601  Y00601      0.0278
      9  C11      -27.4190  -16.4870   25.1550 C.3   601  Y00601      0.0221
     10  C9       -25.9800  -16.2530   24.7080 C.3   601  Y00601      0.0732
     11  C10      -25.7930  -16.8260   23.3030 C.3   601  Y00601      0.0188
     12  N1       -25.5360  -14.8690   24.8250 N.3   601  Y00601     -0.2191
     13  C8       -24.1160  -14.5860   25.0400 C.3   601  Y00601      0.0933
     14  C1       -23.8870  -13.0910   25.2820 C.3   601  Y00601      0.0452
     15  C2       -22.4480  -12.6630   25.5140 C.ar  601  Y00601     -0.0174
     16  C7       -21.7860  -13.0280   26.6860 C.ar  601  Y00601      0.0412
     17  C6       -20.4670  -12.6220   26.9180 C.ar  601  Y00601      0.2339
     18  O1       -19.8030  -12.9810   28.0610 O.3   601  Y00601     -0.2832
     19  C5       -19.7850  -11.7900   25.9040 C.ar  601  Y00601      0.2342
     20  O2       -18.4930  -11.3950   26.1210 O.3   601  Y00601     -0.2831
     21  C4       -20.4780  -11.4320   24.7490 C.ar  601  Y00601      0.0451
     22  C3       -21.7960  -11.8650   24.5680 C.ar  601  Y00601     -0.0007
@<TRIPOS>BOND
     1    11    10    1
     2     6     5   ar
     3     6     7   ar
     4     5     2   ar
     5    22    21   ar
     6    22    15   ar
     7    10    12    1
     8    10     9    1
     9    21    19   ar
    10    12    13    1
    11     8     7    1
    12     8     9    1
    13    13    14    1
    14     7     4   ar
    15     2     1    1
    16     2     3   ar
    17    14    15    1
    18    15    16   ar
    19    19    20    1
    20    19    17   ar
    21     4     3   ar
    22    16    17   ar
    23    17    18    1
