@<TRIPOS>MOLECULE
2y01_Y00_A_1.pdb
 22 23 0 0 0
SMALL
GASTEIGER

@<TRIPOS>ATOM
      1  O3       -33.5220  -16.7340   26.4430 O.3   601  Y00601     -0.2866
      2  C16      -32.2280  -16.4850   26.1290 C.ar  601  Y00601      0.1957
      3  C15      -31.2120  -16.8670   27.0040 C.ar  601  Y00601      0.0417
      4  C14      -29.8810  -16.6070   26.6800 C.ar  601  Y00601     -0.0010
      5  C17      -31.9330  -15.8580   24.9250 C.ar  601  Y00601      0.0417
      6  C18      -30.6050  -15.5980   24.5990 C.ar  601  Y00601     -0.0010
      7  C13      -29.5740  -15.9710   25.4700 C.ar  601  Y00601     -0.0219
      8  C12      -28.1440  -15.6560   25.0670 C.3   601  Y00601      0.0278
      9  C11      -27.1130  -16.4000   25.9070 C.3   601  Y00601      0.0221
     10  C9       -25.7030  -16.2750   25.3380 C.3   601  Y00601      0.0732
     11  C10      -25.5270  -17.0340   24.0230 C.3   601  Y00601      0.0188
     12  N1       -25.3200  -14.8850   25.1950 N.3   601  Y00601     -0.2191
     13  C8       -23.9270  -14.5370   25.4320 C.3   601  Y00601      0.0933
     14  C1       -23.7480  -13.0640   25.7580 C.3   601  Y00601      0.0452
     15  C2       -22.3020  -12.6950   25.9880 C.ar  601  Y00601     -0.0174
     16  C7       -21.6360  -13.1460   27.1290 C.ar  601  Y00601      0.0412
     17  C6       -20.3130  -12.7830   27.3140 C.ar  601  Y00601      0.2339
     18  O1       -19.6270  -13.2020   28.4070 O.3   601  Y00601     -0.2832
     19  C5       -19.6380  -11.9290   26.3120 C.ar  601  Y00601      0.2342
     20  O2       -18.3360  -11.5840   26.5010 O.3   601  Y00601     -0.2831
     21  C4       -20.3320  -11.4940   25.1930 C.ar  601  Y00601      0.0451
     22  C3       -21.6560  -11.8850   25.0390 C.ar  601  Y00601     -0.0007
@<TRIPOS>BOND
     1    11    10    1
     2     6     5   ar
     3     6     7   ar
     4     5     2   ar
     5    22    21   ar
     6    22    15   ar
     7     8     7    1
     8     8     9    1
     9    21    19   ar
    10    12    10    1
    11    12    13    1
    12    10     9    1
    13    13    14    1
    14     7     4   ar
    15    14    15    1
    16    15    16   ar
    17     2     1    1
    18     2     3   ar
    19    19    20    1
    20    19    17   ar
    21     4     3   ar
    22    16    17   ar
    23    17    18    1
