@<TRIPOS>MOLECULE
2y01_Y01_A_1.pdb
 35 38 0 0 0
SMALL
GASTEIGER

@<TRIPOS>ATOM
      1  CAA       -8.5080   -6.1120   23.8660 C.3   401  Y01401      0.0000
      2  CBA       -9.0090   -5.9850   22.4430 C.3   401  Y01401      0.0000
      3  CAB       -8.8240   -7.3370   21.7360 C.3   401  Y01401      0.0000
      4  CAN       -8.2480   -4.8330   21.7530 C.3   401  Y01401      0.0000
      5  CAJ       -8.9950   -4.2420   20.5660 C.3   401  Y01401      0.0000
      6  CAO       -8.4080   -2.8990   20.0870 C.3   401  Y01401      0.0000
      7  CBB       -8.9170   -2.6960   18.6590 C.3   401  Y01401      0.0000
      8  CAC      -10.4090   -2.3240   18.6690 C.3   401  Y01401      0.0000
      9  CBE       -8.1460   -1.6940   17.7620 C.3   401  Y01401      0.0000
     10  CAP       -7.2860   -0.6550   18.5020 C.3   401  Y01401      0.0000
     11  CAQ       -6.2530   -0.2330   17.4260 C.3   401  Y01401      0.0000
     12  CBG       -6.6400   -1.0490   16.1570 C.3   401  Y01401      0.0003
     13  CBI       -7.1800   -2.3520   16.7220 C.3   401  Y01401      0.0000
     14  CAE       -6.1240   -3.2900   17.3470 C.3   401  Y01401      0.0000
     15  CAU       -7.8810   -3.0720   15.5700 C.3   401  Y01401      0.0000
     16  CAS       -6.8870   -3.4620   14.4500 C.3   401  Y01401      0.0003
     17  CBF       -6.0340   -2.2530   13.9600 C.3   401  Y01401      0.0038
     18  CBD       -5.5430   -1.3080   15.1140 C.3   401  Y01401      0.0046
     19  CAK       -4.9880    0.0070   14.5400 C.3   401  Y01401      0.0254
     20  CAI       -4.2350   -0.2190   13.3870 C.2   401  Y01401     -0.0345
     21  CAZ       -4.1030   -1.4010   12.6520 C.2   401  Y01401     -0.0455
     22  CAV       -3.2250   -1.4040   11.3900 C.3   401  Y01401      0.0653
     23  CAD       -3.8620   -3.5800   13.8470 C.3   401  Y01401      0.0040
     24  CAT       -5.3730   -3.4170   11.8260 C.3   401  Y01401      0.0074
     25  CAR       -4.3920   -3.4230   10.6480 C.3   401  Y01401      0.0443
     26  OAH        0.0740   -2.3120    4.5600 O.co2 401  Y01401     -0.2456
     27  CAX       -0.4890   -3.0970    5.3550 C.2   401  Y01401      0.3654
     28  OAF       -0.8070   -4.2900    5.1290 O.co2 401  Y01401     -0.2456
     29  CAL       -0.7810   -2.5490    6.7500 C.3   401  Y01401      0.1257
     30  CAM       -2.2670   -2.2690    6.9600 C.3   401  Y01401      0.1213
     31  CAY       -2.6240   -2.3550    8.4470 C.2   401  Y01401      0.3175
     32  OAG       -1.9760   -3.0030    9.2650 O.2   401  Y01401     -0.2501
     33  OAW       -3.7090   -1.7090    8.8710 O.3   401  Y01401     -0.4519
     34  CBH       -4.8420   -2.6800   13.0770 C.3   401  Y01401      0.0151
     35  CBC       -4.1040   -1.9500   10.2670 C.3   401  Y01401      0.1728
@<TRIPOS>BOND
     1    26    27   ar
     2    28    27   ar
     3    27    29    1
     4    29    30    1
     5    30    31    1
     6    31    33    1
     7    31    32    2
     8    33    35    1
     9    35    25    1
    10    35    22    1
    11    25    24    1
    12    22    21    1
    13    24    34    1
    14    21    34    1
    15    21    20    2
    16    34    23    1
    17    34    17    1
    18    20    19    1
    19    17    16    1
    20    17    18    1
    21    16    15    1
    22    19    18    1
    23    18    12    1
    24    15    13    1
    25    12    13    1
    26    12    11    1
    27    13    14    1
    28    13     9    1
    29    11    10    1
    30     9    10    1
    31     9     7    1
    32     7     8    1
    33     7     6    1
    34     6     5    1
    35     5     4    1
    36     3     2    1
    37     4     2    1
    38     2     1    1
