@<TRIPOS>MOLECULE
2y01_2CV_A_1.pdb
 26 25 0 0 0
SMALL
GASTEIGER

@<TRIPOS>ATOM
      1  C9       -10.5590  -16.2900   28.4050 C.3   501  2CV501      0.0000
      2  C12      -10.8140  -16.6880   29.8570 C.3   501  2CV501      0.0000
      3  C15       -9.9630  -17.8640   30.2980 C.3   501  2CV501      0.0000
      4  C18      -10.4100  -18.3100   31.6650 C.3   501  2CV501      0.0000
      5  C21       -9.7420  -19.6380   31.9920 C.3   501  2CV501      0.0005
      6  C24       -9.7720  -19.9030   33.4900 C.3   501  2CV501      0.0096
      7  C27      -10.2650  -21.3150   33.7380 C.3   501  2CV501      0.0853
      8  C30      -10.6930  -21.4950   35.1990 C.2   501  2CV501      0.2258
      9  N33      -11.4180  -22.5920   35.5050 N.am  501  2CV501     -0.2741
     10  O34      -10.4100  -20.6140   36.0090 O.2   501  2CV501     -0.2749
     11  C35      -11.6400  -23.7100   34.5650 C.3   501  2CV501      0.1290
     12  C36      -11.8160  -22.9550   36.8930 C.3   501  2CV501      0.1290
     13  C37      -12.6570  -21.9480   37.7270 C.3   501  2CV501      0.2044
     14  C40      -13.9120  -22.6040   38.3210 C.3   501  2CV501      0.2166
     15  C41      -13.6470  -23.3490   39.6420 C.3   501  2CV501      0.2175
     16  C42      -14.5480  -22.8570   40.7900 C.3   501  2CV501      0.2175
     17  C43      -14.4220  -21.3490   41.0810 C.3   501  2CV501      0.2175
     18  O44      -13.0810  -21.0220   41.4640 O.3   501  2CV501     -0.2175
     19  O47      -13.0600  -20.8150   36.9740 O.3   501  2CV501     -0.2185
     20  O49      -14.4730  -23.5230   37.3720 O.3   501  2CV501     -0.2175
     21  O51      -12.2770  -23.2800   40.0300 O.3   501  2CV501     -0.2175
     22  O53      -14.2500  -23.6150   41.9740 O.3   501  2CV501     -0.2175
     23  C60      -12.4470  -23.4280   33.3140 C.3   501  2CV501      0.2035
     24  O63      -11.8420  -24.2430   32.3090 O.3   501  2CV501     -0.2185
     25  C1       -11.5200  -15.1620   28.0700 C.3   501  2CV501      0.0000
     26  C0       -10.9740  -14.2830   26.9440 C.3   501  2CV501      0.0000
@<TRIPOS>BOND
     1    26    25    1
     2    25     1    1
     3     1     2    1
     4     2     3    1
     5     3     4    1
     6     4     5    1
     7     5     6    1
     8    24    23    1
     9    23    11    1
    10     6     7    1
    11     7     8    1
    12    11     9    1
    13     8     9   am
    14     8    10    2
    15     9    12    1
    16    12    13    1
    17    19    13    1
    18    20    14    1
    19    13    14    1
    20    14    15    1
    21    15    21    1
    22    15    16    1
    23    16    17    1
    24    16    22    1
    25    17    18    1
