@<TRIPOS>MOLECULE
2y02_WHJ_A_1.pdb
 27 29 0 0 0
SMALL
GASTEIGER

@<TRIPOS>ATOM
      1  O1       -19.7090  -13.5840   29.9880 O.2   601  WHJ601     -0.2093
      2  C9       -20.3540  -13.3840   28.9400 C.1   601  WHJ601      0.2055
      3  N1       -19.7510  -12.7730   27.9080 N.2   601  WHJ601     -0.3296
      4  C7       -20.4100  -12.5350   26.7660 C.2   601  WHJ601      0.1821
      5  C6       -19.7450  -11.8700   25.6230 C.2   601  WHJ601      0.2220
      6  O2       -18.4440  -11.4860   25.7400 O.2   601  WHJ601     -0.2841
      7  C5       -20.4610  -11.6310   24.4540 C.2   601  WHJ601      0.0230
      8  C4       -21.8010  -12.0110   24.3190 C.3   601  WHJ601      0.0540
      9  C8       -21.6880  -13.7910   28.8640 C.2   601  WHJ601      0.1067
     10  C1       -22.4370  -13.5700   27.7130 C.2   601  WHJ601      0.0156
     11  C2       -21.8310  -12.9380   26.6310 C.2   601  WHJ601      0.0293
     12  C3       -22.5210  -12.6500   25.3380 C.2   601  WHJ601     -0.0059
     13  C10      -23.9390  -13.0280   25.1150 C.3   601  WHJ601      0.1880
     14  O4       -24.4320  -12.3050   23.9850 O.3   601  WHJ601     -0.2171
     15  C11      -24.0210  -14.5350   24.8590 C.3   601  WHJ601      0.1257
     16  N2       -25.3910  -15.0310   24.7350 N.3   601  WHJ601     -0.2161
     17  C12      -25.6490  -16.4740   24.6970 C.3   601  WHJ601      0.0773
     18  C13      -24.6250  -17.2530   23.8790 C.3   601  WHJ601      0.0192
     19  C14      -27.0640  -16.8080   24.2120 C.3   601  WHJ601      0.0437
     20  C15      -27.9930  -16.3430   25.2930 C.ar  601  WHJ601     -0.0206
     21  C20      -29.1700  -15.6450   25.0190 C.ar  601  WHJ601     -0.0011
     22  C19      -29.9560  -15.2250   26.0990 C.ar  601  WHJ601      0.0366
     23  C18      -29.5520  -15.5050   27.4200 C.ar  601  WHJ601      0.1387
     24  O3       -30.2830  -15.1050   28.5020 O.3   601  WHJ601     -0.4714
     25  C21      -29.6560  -14.2650   29.4740 C.3   601  WHJ601      0.2525
     26  C17      -28.3780  -16.2010   27.6780 C.ar  601  WHJ601      0.0366
     27  C16      -27.6040  -16.6150   26.6060 C.ar  601  WHJ601     -0.0011
@<TRIPOS>BOND
     1    18    17    1
     2    14    13    1
     3    19    17    1
     4    19    20    1
     5     8     7    1
     6     8    12    1
     7     7     5    2
     8    17    16    1
     9    16    15    1
    10    15    13    1
    11    21    20   ar
    12    21    22   ar
    13    13    12    1
    14    20    27   ar
    15    12    11    2
    16     5     6    1
    17     5     4    1
    18    22    23   ar
    19    27    26   ar
    20    11     4    1
    21    11    10    1
    22     4     3    2
    23    23    26   ar
    24    23    24    1
    25    10     9    2
    26     3     2    2
    27    24    25    1
    28     9     2    1
    29     2     1    2
