@<TRIPOS>MOLECULE
2y02_2CV_A_1.pdb
 26 25 0 0 0
SMALL
GASTEIGER

@<TRIPOS>ATOM
      1  C9       -10.5510  -16.2770   28.4910 C.3   501  2CV501      0.0000
      2  C12      -10.9660  -16.8750   29.8440 C.3   501  2CV501      0.0000
      3  C15      -10.2030  -18.1590   30.1790 C.3   501  2CV501      0.0000
      4  C18      -10.3180  -18.4170   31.6770 C.3   501  2CV501      0.0000
      5  C21      -10.1020  -19.8950   32.0420 C.3   501  2CV501      0.0005
      6  C24       -9.8940  -20.0440   33.5500 C.3   501  2CV501      0.0096
      7  C27      -10.1950  -21.4550   34.0460 C.3   501  2CV501      0.0853
      8  C30      -11.3560  -21.4630   35.0470 C.2   501  2CV501      0.2258
      9  N33      -12.0150  -22.6260   35.2210 N.am  501  2CV501     -0.2741
     10  O34      -11.6230  -20.4320   35.6550 O.2   501  2CV501     -0.2749
     11  C35      -11.6880  -23.8540   34.4680 C.3   501  2CV501      0.1290
     12  C36      -13.2120  -22.7740   36.0750 C.3   501  2CV501      0.1290
     13  C37      -13.1900  -22.2880   37.5170 C.3   501  2CV501      0.2044
     14  C40      -14.3950  -22.8930   38.2610 C.3   501  2CV501      0.2166
     15  C41      -14.0130  -23.5650   39.5810 C.3   501  2CV501      0.2175
     16  C42      -14.7590  -22.9540   40.7830 C.3   501  2CV501      0.2175
     17  C43      -14.3800  -21.4820   41.0510 C.3   501  2CV501      0.2175
     18  O44      -13.0360  -21.4010   41.5540 O.3   501  2CV501     -0.2175
     19  O47      -13.3620  -20.8790   37.5300 O.3   501  2CV501     -0.2185
     20  O49      -15.0840  -23.8620   37.4440 O.3   501  2CV501     -0.2175
     21  O51      -12.5930  -23.5430   39.7790 O.3   501  2CV501     -0.2175
     22  O53      -14.5030  -23.7680   41.9470 O.3   501  2CV501     -0.2175
     23  C60      -12.4080  -23.9460   33.1170 C.3   501  2CV501      0.2035
     24  O63      -11.4600  -24.4730   32.1840 O.3   501  2CV501     -0.2185
     25  C1       -11.6920  -15.4040   27.9620 C.3   501  2CV501      0.0000
     26  C0       -11.2250  -14.4330   26.8630 C.3   501  2CV501      0.0000
@<TRIPOS>BOND
     1    26    25    1
     2    25     1    1
     3     1     2    1
     4     2     3    1
     5     3     4    1
     6     4     5    1
     7     5     6    1
     8    24    23    1
     9    23    11    1
    10     6     7    1
    11     7     8    1
    12    11     9    1
    13     8     9   am
    14     8    10    2
    15     9    12    1
    16    12    13    1
    17    20    14    1
    18    13    19    1
    19    13    14    1
    20    14    15    1
    21    15    21    1
    22    15    16    1
    23    16    17    1
    24    16    22    1
    25    17    18    1
