@<TRIPOS>MOLECULE
2y02_Y01_A_1.pdb
 35 38 0 0 0
SMALL
GASTEIGER

@<TRIPOS>ATOM
      1  CAA       -8.9480   -6.1940   23.6750 C.3   401  Y01401      0.0000
      2  CBA       -9.1100   -6.4060   22.1750 C.3   401  Y01401      0.0000
      3  CAB       -8.5740   -7.7790   21.7850 C.3   401  Y01401      0.0000
      4  CAN       -8.3570   -5.3110   21.4250 C.3   401  Y01401      0.0000
      5  CAJ       -9.3030   -4.2910   20.8030 C.3   401  Y01401      0.0000
      6  CAO       -8.5150   -3.2350   20.0020 C.3   401  Y01401      0.0000
      7  CBB       -9.1270   -2.9770   18.6180 C.3   401  Y01401      0.0000
      8  CAC      -10.5800   -2.4950   18.7330 C.3   401  Y01401      0.0000
      9  CBE       -8.3780   -1.9480   17.7260 C.3   401  Y01401      0.0000
     10  CAP       -7.6580   -0.7990   18.4580 C.3   401  Y01401      0.0000
     11  CAQ       -6.7240   -0.2390   17.3670 C.3   401  Y01401      0.0000
     12  CBG       -6.9350   -1.1960   16.1700 C.3   401  Y01401      0.0003
     13  CBI       -7.2840   -2.5110   16.8040 C.3   401  Y01401      0.0000
     14  CAE       -6.1070   -3.1700   17.5500 C.3   401  Y01401      0.0000
     15  CAU       -7.8620   -3.4100   15.7210 C.3   401  Y01401      0.0000
     16  CAS       -6.9160   -3.6420   14.5430 C.3   401  Y01401      0.0003
     17  CBF       -6.2070   -2.3590   14.0440 C.3   401  Y01401      0.0038
     18  CBD       -5.7750   -1.3880   15.1860 C.3   401  Y01401      0.0046
     19  CAK       -5.2900   -0.0430   14.6140 C.3   401  Y01401      0.0254
     20  CAI       -4.4800   -0.2190   13.4910 C.2   401  Y01401     -0.0345
     21  CAZ       -4.2620   -1.3970   12.7730 C.2   401  Y01401     -0.0455
     22  CAV       -3.3330   -1.3790   11.5430 C.3   401  Y01401      0.0653
     23  CBH       -5.0000   -2.7040   13.1610 C.3   401  Y01401      0.0151
     24  CAD       -4.0180   -3.6110   13.9100 C.3   401  Y01401      0.0040
     25  CAT       -5.5000   -3.4050   11.8830 C.3   401  Y01401      0.0074
     26  CAR       -4.4350   -3.4010   10.7880 C.3   401  Y01401      0.0443
     27  CBC       -4.1900   -1.9460   10.4050 C.3   401  Y01401      0.1728
     28  OAW       -3.8420   -1.7430    8.9830 O.3   401  Y01401     -0.4519
     29  CAY       -2.7590   -2.3590    8.5320 C.2   401  Y01401      0.3175
     30  OAG       -1.9570   -2.8230    9.3360 O.2   401  Y01401     -0.2501
     31  CAM       -2.5750   -2.4350    7.0290 C.3   401  Y01401      0.1213
     32  CAL       -1.1520   -2.0330    6.6630 C.3   401  Y01401      0.1257
     33  CAX       -0.5770   -2.9550    5.5980 C.2   401  Y01401      0.3654
     34  OAH       -0.0630   -2.3990    4.6010 O.co2 401  Y01401     -0.2456
     35  OAF       -0.6460   -4.1890    5.8180 O.co2 401  Y01401     -0.2456
@<TRIPOS>BOND
     1    34    33   ar
     2    33    35   ar
     3    33    32    1
     4    32    31    1
     5    31    29    1
     6    29    28    1
     7    29    30    2
     8    28    27    1
     9    27    26    1
    10    27    22    1
    11    26    25    1
    12    22    21    1
    13    25    23    1
    14    21    23    1
    15    21    20    2
    16    23    24    1
    17    23    17    1
    18    20    19    1
    19    17    16    1
    20    17    18    1
    21    16    15    1
    22    19    18    1
    23    18    12    1
    24    15    13    1
    25    12    13    1
    26    12    11    1
    27    13    14    1
    28    13     9    1
    29    11    10    1
    30     9    10    1
    31     9     7    1
    32     7     8    1
    33     7     6    1
    34     6     5    1
    35     5     4    1
    36     4     2    1
    37     3     2    1
    38     2     1    1
