@<TRIPOS>MOLECULE
2y03_2CV_A_1.pdb
 26 25 0 0 0
SMALL
GASTEIGER

@<TRIPOS>ATOM
      1  C9       -10.7030  -15.6520   27.9800 C.3   501  2CV501      0.0000
      2  C12      -11.1580  -16.0300   29.3750 C.3   501  2CV501      0.0000
      3  C15      -10.2610  -17.1290   29.8610 C.3   501  2CV501      0.0000
      4  C18      -10.6910  -17.6320   31.2150 C.3   501  2CV501      0.0000
      5  C21       -9.8160  -18.8490   31.4870 C.3   501  2CV501      0.0005
      6  C24       -9.6920  -19.1500   32.9670 C.3   501  2CV501      0.0096
      7  C27      -10.2520  -20.5290   33.2680 C.3   501  2CV501      0.0853
      8  C30      -10.6910  -20.5330   34.7190 C.2   501  2CV501      0.2258
      9  N33      -11.1860  -21.6640   35.2290 N.am  501  2CV501     -0.2741
     10  O34      -10.6010  -19.4920   35.3560 O.2   501  2CV501     -0.2749
     11  C35      -11.2230  -22.9150   34.4400 C.3   501  2CV501      0.1290
     12  C36      -11.6020  -21.7010   36.6510 C.3   501  2CV501      0.1290
     13  C37      -13.1050  -21.9930   36.8120 C.3   501  2CV501      0.2044
     14  C40      -13.6780  -21.7690   38.2300 C.3   501  2CV501      0.2166
     15  C41      -13.0900  -22.6890   39.3240 C.3   501  2CV501      0.2175
     16  C42      -13.6190  -22.3120   40.7100 C.3   501  2CV501      0.2175
     17  C43      -13.0620  -20.9600   41.2130 C.3   501  2CV501      0.2175
     18  O44      -12.6040  -21.0350   42.5770 O.3   501  2CV501     -0.2175
     19  O47      -13.3870  -23.3520   36.4380 O.3   501  2CV501     -0.2185
     20  O49      -15.0790  -22.1100   38.1810 O.3   501  2CV501     -0.2175
     21  O51      -11.6550  -22.6970   39.3610 O.3   501  2CV501     -0.2175
     22  O53      -13.2680  -23.3820   41.5880 O.3   501  2CV501     -0.2175
     23  C60      -12.2690  -22.8820   33.3330 C.3   501  2CV501      0.2035
     24  O63      -11.8280  -23.7970   32.3460 O.3   501  2CV501     -0.2185
     25  C1       -11.8140  -14.9210   27.2440 C.3   501  2CV501      0.0000
     26  C0       -11.2010  -14.0610   26.1350 C.3   501  2CV501      0.0000
@<TRIPOS>BOND
     1    26    25    1
     2    25     1    1
     3     1     2    1
     4     2     3    1
     5     3     4    1
     6     4     5    1
     7     5     6    1
     8    24    23    1
     9     6     7    1
    10     7     8    1
    11    23    11    1
    12    11     9    1
    13     8     9   am
    14     8    10    2
    15     9    12    1
    16    19    13    1
    17    12    13    1
    18    13    14    1
    19    20    14    1
    20    14    15    1
    21    15    21    1
    22    15    16    1
    23    16    17    1
    24    16    22    1
    25    17    18    1
