@<TRIPOS>MOLECULE
2y03_5FW_A_1.pdb
 15 15 0 0 0
SMALL
GASTEIGER

@<TRIPOS>ATOM
      1  CAI      -27.6980  -15.4470   25.0920 C.3   601  5FW601      0.0188
      2  CAG      -26.1780  -15.4000   25.2170 C.3   601  5FW601      0.0730
      3  CAJ      -25.5400  -16.5420   24.3930 C.3   601  5FW601      0.0188
      4  NAD      -25.7030  -14.0740   24.7580 N.3   601  5FW601     -0.2164
      5  CAF      -24.2770  -13.8010   25.0480 C.3   601  5FW601      0.1260
      6  CAE      -24.0400  -12.2910   25.0850 C.3   601  5FW601      0.1916
      7  OAA      -24.4230  -11.7730   23.8210 O.3   601  5FW601     -0.2167
      8  CAH      -22.5730  -11.9970   25.3340 C.ar  601  5FW601      0.0125
      9  CAK      -21.9820  -12.4770   26.4810 C.ar  601  5FW601      0.0436
     10  CAL      -21.8090  -11.2550   24.4310 C.ar  601  5FW601      0.0017
     11  CAN      -20.4570  -10.9840   24.6780 C.ar  601  5FW601      0.0452
     12  CAO      -19.8740  -11.4800   25.8380 C.ar  601  5FW601      0.2342
     13  OAC      -18.5660  -11.2330   26.0860 O.3   601  5FW601     -0.2831
     14  CAM      -20.6410  -12.2280   26.7330 C.ar  601  5FW601      0.2340
     15  OAB      -20.1060  -12.7290   27.8770 O.3   601  5FW601     -0.2832
@<TRIPOS>BOND
     1     7     6    1
     2     3     2    1
     3    10    11   ar
     4    10     8   ar
     5    11    12   ar
     6     4     5    1
     7     4     2    1
     8     5     6    1
     9     6     8    1
    10     1     2    1
    11     8     9   ar
    12    12    13    1
    13    12    14   ar
    14     9    14   ar
    15    14    15    1
