@<TRIPOS>MOLECULE
2y03_Y01_A_1.pdb
 35 38 0 0 0
SMALL
GASTEIGER

@<TRIPOS>ATOM
      1  CAA       -8.3170   -5.7130   23.5290 C.3   401  Y01401      0.0000
      2  CBA       -9.1300   -6.0090   22.2760 C.3   401  Y01401      0.0000
      3  CAB       -9.0310   -7.4840   21.9810 C.3   401  Y01401      0.0000
      4  CAN       -8.6310   -5.1850   21.1000 C.3   401  Y01401      0.0000
      5  CAJ       -9.3180   -3.8200   21.0650 C.3   401  Y01401      0.0000
      6  CAO       -8.5220   -2.8150   20.2020 C.3   401  Y01401      0.0000
      7  CBB       -9.1550   -2.5140   18.8240 C.3   401  Y01401      0.0000
      8  CAC      -10.5900   -1.9910   18.9340 C.3   401  Y01401      0.0000
      9  CBE       -8.3850   -1.4640   17.9920 C.3   401  Y01401      0.0000
     10  CAP       -7.4720   -0.5010   18.7870 C.3   401  Y01401      0.0000
     11  CAQ       -6.5560    0.0460   17.6680 C.3   401  Y01401      0.0000
     12  CBG       -6.9410   -0.7320   16.3970 C.3   401  Y01401      0.0003
     13  CBI       -7.4260   -2.0350   16.9640 C.3   401  Y01401      0.0000
     14  CAE       -6.2750   -2.8300   17.6070 C.3   401  Y01401      0.0000
     15  CAU       -8.1570   -2.8000   15.8550 C.3   401  Y01401      0.0000
     16  CAS       -7.2360   -3.0900   14.6440 C.3   401  Y01401      0.0003
     17  CBF       -6.3100   -1.9000   14.2210 C.3   401  Y01401      0.0038
     18  CBD       -5.8090   -1.0280   15.4100 C.3   401  Y01401      0.0046
     19  CAK       -5.1360    0.2350   14.8900 C.3   401  Y01401      0.0254
     20  CAI       -4.4090    0.0140   13.7150 C.2   401  Y01401     -0.0345
     21  CAZ       -4.3400   -1.1350   12.9160 C.2   401  Y01401     -0.0455
     22  CAV       -3.4870   -1.1800   11.6140 C.3   401  Y01401      0.0653
     23  CBH       -5.1220   -2.3680   13.3620 C.3   401  Y01401      0.0151
     24  CAD       -4.1040   -3.2350   14.1330 C.3   401  Y01401      0.0040
     25  CAT       -5.6740   -3.1250   12.1540 C.3   401  Y01401      0.0074
     26  CAR       -4.6870   -3.2110   10.9870 C.3   401  Y01401      0.0443
     27  CBC       -4.3990   -1.7820   10.4950 C.3   401  Y01401      0.1728
     28  OAW       -4.0950   -1.9030    9.0500 O.3   401  Y01401     -0.4519
     29  CAY       -2.8270   -1.8990    8.5750 C.2   401  Y01401      0.3175
     30  OAG       -1.8850   -1.8810    9.3640 O.2   401  Y01401     -0.2501
     31  CAM       -2.6060   -1.9590    7.0560 C.3   401  Y01401      0.1213
     32  CAL       -1.1040   -1.8680    6.7410 C.3   401  Y01401      0.1257
     33  CAX       -0.5880   -2.7650    5.5900 C.2   401  Y01401      0.3654
     34  OAH       -0.0930   -2.1720    4.6100 O.co2 401  Y01401     -0.2456
     35  OAF       -0.6060   -4.0110    5.7370 O.co2 401  Y01401     -0.2456
@<TRIPOS>BOND
     1    34    33   ar
     2    33    35   ar
     3    33    32    1
     4    32    31    1
     5    31    29    1
     6    29    28    1
     7    29    30    2
     8    28    27    1
     9    27    26    1
    10    27    22    1
    11    26    25    1
    12    22    21    1
    13    25    23    1
    14    21    23    1
    15    21    20    2
    16    23    24    1
    17    23    17    1
    18    20    19    1
    19    17    16    1
    20    17    18    1
    21    16    15    1
    22    19    18    1
    23    18    12    1
    24    15    13    1
    25    12    13    1
    26    12    11    1
    27    13    14    1
    28    13     9    1
    29    11    10    1
    30     9    10    1
    31     9     7    1
    32     7     8    1
    33     7     6    1
    34     6     5    1
    35     5     4    1
    36     4     2    1
    37     3     2    1
    38     2     1    1
