@<TRIPOS>MOLECULE
2y04_Y01_A_1.pdb
 35 38 0 0 0
SMALL
GASTEIGER

@<TRIPOS>ATOM
      1  CAA       -9.2150   -6.1890   23.7750 C.3   401  Y01401      0.0000
      2  CBA       -9.6060   -6.3750   22.3030 C.3   401  Y01401      0.0000
      3  CAB       -9.2700   -7.7910   21.7900 C.3   401  Y01401      0.0000
      4  CAN       -8.9030   -5.3160   21.4600 C.3   401  Y01401      0.0000
      5  CAJ       -9.8050   -4.2140   20.9120 C.3   401  Y01401      0.0000
      6  CAO       -8.9250   -3.2120   20.1210 C.3   401  Y01401      0.0000
      7  CBB       -9.4200   -3.0090   18.6790 C.3   401  Y01401      0.0000
      8  CAC      -10.8550   -2.4870   18.6850 C.3   401  Y01401      0.0000
      9  CBE       -8.6120   -2.0190   17.8090 C.3   401  Y01401      0.0000
     10  CAP       -7.6320   -1.1320   18.5780 C.3   401  Y01401      0.0000
     11  CAQ       -6.6320   -0.6930   17.5000 C.3   401  Y01401      0.0000
     12  CBG       -7.1510   -1.3450   16.2320 C.3   401  Y01401      0.0003
     13  CBI       -7.7080   -2.6480   16.7610 C.3   401  Y01401      0.0000
     14  CAE       -6.6440   -3.5860   17.3690 C.3   401  Y01401      0.0000
     15  CAU       -8.4390   -3.3350   15.6130 C.3   401  Y01401      0.0000
     16  CAS       -7.4150   -3.6890   14.5070 C.3   401  Y01401      0.0003
     17  CBF       -6.5980   -2.4850   14.0050 C.3   401  Y01401      0.0038
     18  CBD       -6.0860   -1.5820   15.1580 C.3   401  Y01401      0.0046
     19  CAK       -5.5600   -0.2590   14.5910 C.3   401  Y01401      0.0254
     20  CAI       -4.7450   -0.5060   13.4830 C.2   401  Y01401     -0.0345
     21  CAZ       -4.6120   -1.6960   12.7540 C.2   401  Y01401     -0.0455
     22  CAV       -3.6650   -1.7650   11.5500 C.3   401  Y01401      0.0653
     23  CBH       -5.4330   -2.9390   13.1210 C.3   401  Y01401      0.0151
     24  CAD       -4.5170   -3.9100   13.8790 C.3   401  Y01401      0.0040
     25  CAT       -5.9660   -3.5960   11.8250 C.3   401  Y01401      0.0074
     26  CAR       -4.9840   -3.5590   10.6300 C.3   401  Y01401      0.0443
     27  CBC       -4.5620   -2.0850   10.3520 C.3   401  Y01401      0.1728
     28  OAW       -4.0830   -1.6720    9.0070 O.3   401  Y01401     -0.4519
     29  CAY       -3.2050   -2.4450    8.3380 C.2   401  Y01401      0.3175
     30  OAG       -2.5400   -3.2820    8.9400 O.2   401  Y01401     -0.2501
     31  CAM       -3.0760   -2.2440    6.8300 C.3   401  Y01401      0.1213
     32  CAL       -1.6130   -2.1480    6.3750 C.3   401  Y01401      0.1257
     33  CAX       -1.3090   -3.1350    5.2310 C.2   401  Y01401      0.3654
     34  OAH       -1.7260   -2.8340    4.0820 O.co2 401  Y01401     -0.2456
     35  OAF       -0.6700   -4.1750    5.5350 O.co2 401  Y01401     -0.2456
@<TRIPOS>BOND
     1    34    33   ar
     2    33    35   ar
     3    33    32    1
     4    32    31    1
     5    31    29    1
     6    29    30    2
     7    29    28    1
     8    28    27    1
     9    27    26    1
    10    27    22    1
    11    26    25    1
    12    22    21    1
    13    25    23    1
    14    21    23    1
    15    21    20    2
    16    23    24    1
    17    23    17    1
    18    20    19    1
    19    17    16    1
    20    17    18    1
    21    16    15    1
    22    19    18    1
    23    18    12    1
    24    15    13    1
    25    12    13    1
    26    12    11    1
    27    13    14    1
    28    13     9    1
    29    11    10    1
    30     9    10    1
    31     9     7    1
    32     7     8    1
    33     7     6    1
    34     6     5    1
    35     5     4    1
    36     4     2    1
    37     3     2    1
    38     2     1    1
