@<TRIPOS>MOLECULE
2y04_2CV_A_1.pdb
 26 25 0 0 0
SMALL
GASTEIGER

@<TRIPOS>ATOM
      1  C9       -11.0450  -16.3400   28.4970 C.3   501  2CV501      0.0000
      2  C12      -11.6000  -17.1340   29.6820 C.3   501  2CV501      0.0000
      3  C15      -10.5220  -18.0980   30.1810 C.3   501  2CV501      0.0000
      4  C18      -10.6600  -18.3820   31.6730 C.3   501  2CV501      0.0000
      5  C21      -10.3090  -19.8470   31.9860 C.3   501  2CV501      0.0005
      6  C24      -10.1330  -20.0580   33.4960 C.3   501  2CV501      0.0096
      7  C27      -10.2100  -21.5300   33.8980 C.3   501  2CV501      0.0853
      8  C30      -11.3240  -21.7540   34.9410 C.2   501  2CV501      0.2258
      9  N33      -11.8450  -22.9930   35.0400 N.am  501  2CV501     -0.2741
     10  O34      -11.6800  -20.8120   35.6400 O.2   501  2CV501     -0.2749
     11  C35      -11.3980  -24.1170   34.1840 C.3   501  2CV501      0.1290
     12  C36      -12.9420  -23.3600   35.9680 C.3   501  2CV501      0.1290
     13  C37      -12.8870  -22.8890   37.4310 C.3   501  2CV501      0.2044
     14  C40      -14.0450  -23.5770   38.1720 C.3   501  2CV501      0.2166
     15  C41      -13.8090  -23.8980   39.6680 C.3   501  2CV501      0.2175
     16  C42      -14.7910  -23.1250   40.5870 C.3   501  2CV501      0.2175
     17  C43      -14.4930  -21.6060   40.7520 C.3   501  2CV501      0.2175
     18  O44      -13.4030  -21.3480   41.6510 O.3   501  2CV501     -0.2175
     19  O47      -13.1180  -21.4790   37.4950 O.3   501  2CV501     -0.2185
     20  O49      -14.3860  -24.8000   37.4920 O.3   501  2CV501     -0.2175
     21  O51      -12.4320  -23.7990   40.0770 O.3   501  2CV501     -0.2175
     22  O53      -14.8940  -23.8030   41.8540 O.3   501  2CV501     -0.2175
     23  C60      -12.1210  -24.2110   32.8410 C.3   501  2CV501      0.2035
     24  O63      -11.0980  -24.3910   31.8680 O.3   501  2CV501     -0.2185
     25  C1       -12.1430  -15.8980   27.5320 C.3   501  2CV501      0.0000
     26  C0       -11.5580  -14.9460   26.4830 C.3   501  2CV501      0.0000
@<TRIPOS>BOND
     1    26    25    1
     2    25     1    1
     3     1     2    1
     4     2     3    1
     5     3     4    1
     6     4     5    1
     7    24    23    1
     8     5     6    1
     9    23    11    1
    10     6     7    1
    11     7     8    1
    12    11     9    1
    13     8     9   am
    14     8    10    2
    15     9    12    1
    16    12    13    1
    17    13    19    1
    18    13    14    1
    19    20    14    1
    20    14    15    1
    21    15    21    1
    22    15    16    1
    23    16    17    1
    24    16    22    1
    25    17    18    1
