@<TRIPOS>MOLECULE
2y04_68H_A_1.pdb
 17 17 0 0 0
SMALL
GASTEIGER

@<TRIPOS>ATOM
      1  O2       -20.5720  -13.3880   28.7190 O.3   601  68H601     -0.2151
      2  C2       -19.9640  -12.8280   27.5540 C.3   601  68H601      0.2118
      3  C12      -20.9390  -12.4700   26.4450 C.ar  601  68H601      0.0493
      4  C11      -20.3920  -11.6740   25.3160 C.ar  601  68H601      0.1941
      5  O1       -19.0790  -11.3060   25.2970 O.3   601  68H601     -0.2868
      6  C10      -21.2240  -11.3120   24.2620 C.ar  601  68H601      0.0415
      7  C9       -22.5580  -11.7040   24.2740 C.ar  601  68H601      0.0015
      8  C13      -22.3020  -12.8380   26.4090 C.ar  601  68H601     -0.0004
      9  C8       -23.1070  -12.4500   25.3170 C.ar  601  68H601      0.0091
     10  C1       -24.5500  -12.7900   25.2030 C.3   601  68H601      0.1915
     11  O3       -25.1390  -12.1870   24.0370 O.3   601  68H601     -0.2167
     12  C3       -24.7830  -14.2960   25.0910 C.3   601  68H601      0.1259
     13  N1       -26.2080  -14.5420   25.3150 N.3   601  68H601     -0.2177
     14  C4       -26.8180  -15.8520   25.3900 C.3   601  68H601      0.0596
     15  C7       -26.0070  -16.8520   24.5670 C.3   601  68H601      0.0174
     16  C6       -26.8620  -16.2730   26.8560 C.3   601  68H601      0.0174
     17  C5       -28.2240  -15.7730   24.8080 C.3   601  68H601      0.0174
@<TRIPOS>BOND
     1    11    10    1
     2     6     7   ar
     3     6     4   ar
     4     7     9   ar
     5    15    14    1
     6    17    14    1
     7    12    10    1
     8    12    13    1
     9    10     9    1
    10     5     4    1
    11    13    14    1
    12     4     3   ar
    13     9     8   ar
    14    14    16    1
    15     8     3   ar
    16     3     2    1
    17     2     1    1
