@<TRIPOS>MOLECULE
2y05_NAP_A_1.pdb
 48 52 0 0 0
SMALL
GASTEIGER

@<TRIPOS>ATOM
      1  PA        53.3720   59.9280   15.4170 P.3   701  NAP701      0.2189
      2  O1A       53.7750   60.6920   16.7470 O.3   701  NAP701     -0.4371
      3  O2A       54.5210   59.4170   14.6100 O.2   701  NAP701     -0.5170
      4  O5B       52.4220   60.9080   14.6140 O.3   701  NAP701     -0.3112
      5  C5B       52.0230   60.6030   13.2780 C.3   701  NAP701      0.1813
      6  C4B       53.0510   61.0810   12.2700 C.3   701  NAP701      0.1820
      7  O4B       52.7280   60.4140   11.0890 O.3   701  NAP701     -0.3136
      8  C3B       52.8400   62.5370   11.8890 C.3   701  NAP701      0.2157
      9  O3B       53.5380   63.3920   12.7910 O.3   701  NAP701     -0.2175
     10  C2B       53.4740   62.5760   10.5040 C.3   701  NAP701      0.2314
     11  O2B       54.8550   62.9180   10.6320 O.3   701  NAP701     -0.2630
     12  C1B       53.3470   61.1300   10.0190 C.3   701  NAP701      0.3158
     13  N9A       52.4610   61.0450    8.8550 N.pl3 701  NAP701     -0.1439
     14  C8A       51.1360   61.2920    8.8040 C.3   701  NAP701      0.3377
     15  N7A       50.6850   61.1090    7.5630 N.2   701  NAP701     -0.2095
     16  C5A       51.7460   60.7210    6.8200 C.2   701  NAP701      0.2526
     17  C6A       51.9200   60.3740    5.4820 C.2   701  NAP701      0.4393
     18  N6A       50.8960   60.4070    4.6370 N.pl3 701  NAP701      0.2180
     19  N1A       53.1520   60.0380    5.0440 N.2   701  NAP701      0.0021
     20  C2A       54.1800   60.0110    5.8950 C.3   701  NAP701      0.5254
     21  N3A       54.0600   60.3180    7.1790 N.2   701  NAP701     -0.0055
     22  C4A       52.8620   60.6830    7.6440 C.2   701  NAP701      0.3518
     23  O3        52.4170   58.7570   15.9300 O.3   701  NAP701     -0.2703
     24  PN        52.8650   57.4060   16.5640 P.3   701  NAP701      0.2189
     25  O1N       51.8900   57.1360   17.6420 O.3   701  NAP701     -0.4371
     26  O2N       54.3000   57.4660   16.8700 O.2   701  NAP701     -0.5170
     27  O5D       52.5120   56.2970   15.4880 O.3   701  NAP701     -0.3112
     28  C5D       53.3370   56.1150   14.3600 C.3   701  NAP701      0.1813
     29  C4D       52.8600   54.9150   13.5500 C.3   701  NAP701      0.1799
     30  O4D       52.9340   53.7650   14.4130 O.3   701  NAP701     -0.3327
     31  C3D       51.4080   54.9620   13.0360 C.3   701  NAP701      0.2158
     32  O3D       51.4130   54.2560   11.8020 O.3   701  NAP701     -0.2175
     33  C2D       50.6980   54.1810   14.1040 C.3   701  NAP701      0.2309
     34  O2D       49.4790   53.6320   13.6330 O.3   701  NAP701     -0.2158
     35  C1D       51.7080   53.0920   14.3220 C.3   701  NAP701      0.2263
     36  N1N       51.5740   52.4090   15.6150 N.pl3 701  NAP701     -0.2787
     37  C2N       51.4220   51.0380   15.5850 C.3   701  NAP701      0.1244
     38  C3N       51.2570   50.3290   16.7480 C.2   701  NAP701      0.0544
     39  C7N       51.1420   48.8180   16.6480 C.2   701  NAP701      0.2818
     40  O7N       51.2910   48.1780   15.5910 O.2   701  NAP701     -0.2670
     41  N7N       50.9600   48.2580   17.7960 N.am  701  NAP701     -0.0839
     42  C4N       51.2260   50.9950   17.9670 C.2   701  NAP701      0.0033
     43  C5N       51.3630   52.3770   18.0010 C.2   701  NAP701      0.0157
     44  C6N       51.5260   53.0880   16.8280 C.2   701  NAP701      0.0633
     45  P2B       55.7550   63.4430    9.3680 P.3   701  NAP701      0.5328
     46  O1X       54.8800   63.4250    8.0650 O.2   701  NAP701     -0.2224
     47  O2X       55.9550   64.9970    9.5470 O.3   701  NAP701     -0.1145
     48  O3X       57.0660   62.7760    9.4240 O.3   701  NAP701     -0.1145
@<TRIPOS>BOND
     1    18    17    1
     2    19    17    2
     3    19    20    1
     4    17    16    1
     5    20    21    1
     6    16    15    2
     7    16    22    1
     8    21    22    2
     9    15    14    1
    10    22    13    1
    11    46    45    2
    12    14    13    1
    13    13    12    1
    14    45    48    1
    15    45    47    1
    16    45    11    1
    17    12    10    1
    18    12     7    1
    19    10    11    1
    20    10     8    1
    21     7     6    1
    22    32    31    1
    23     8     6    1
    24     8     9    1
    25     6     5    1
    26    31    29    1
    27    31    33    1
    28     5     4    1
    29    29    28    1
    30    29    30    1
    31    34    33    1
    32    33    35    1
    33    35    30    1
    34    35    36    1
    35    28    27    1
    36     3     1    2
    37     4     1    1
    38     1    23    1
    39     1     2    1
    40    27    24    1
    41    37    36    1
    42    37    38    1
    43    40    39    2
    44    36    44    1
    45    23    24    1
    46    24    26    2
    47    24    25    1
    48    39    38    1
    49    39    41   am
    50    38    42    2
    51    44    43    2
    52    42    43    1
