@<TRIPOS>MOLECULE
2y05_RAL_A_1.pdb
 34 38 0 0 0
SMALL
GASTEIGER

@<TRIPOS>ATOM
      1  C1        46.8040   49.3050   16.4720 C.ar  801  RAL801      0.0039
      2  C2        47.8280   50.2430   16.4390 C.ar  801  RAL801      0.0421
      3  C3        47.9120   51.1390   15.3890 C.ar  801  RAL801      0.1962
      4  O3        48.8870   52.0760   15.3840 O.3   801  RAL801     -0.2866
      5  C4        46.9980   51.1060   14.3580 C.ar  801  RAL801      0.0485
      6  C5        45.9890   50.1690   14.4050 C.ar  801  RAL801      0.0327
      7  S6        44.7780   49.8770   13.3480 S.2   801  RAL801     -0.0867
      8  C7        44.0600   48.6090   14.1750 C.ar  801  RAL801      0.0325
      9  C8        42.8500   48.0600   13.7850 C.ar  801  RAL801      0.0063
     10  C9        41.8330   48.4570   14.6610 C.ar  801  RAL801      0.0038
     11  C10       40.5020   48.1070   14.4710 C.ar  801  RAL801      0.0420
     12  C11       40.1670   47.3870   13.3400 C.ar  801  RAL801      0.1957
     13  O11       38.8700   47.0360   13.1190 O.3   801  RAL801     -0.2866
     14  C12       41.1640   47.0410   12.4430 C.ar  801  RAL801      0.0420
     15  C13       42.5060   47.3850   12.6480 C.ar  801  RAL801      0.0038
     16  C14       45.8690   49.2570   15.4630 C.ar  801  RAL801      0.0098
     17  C15       44.7690   48.4110   15.3360 C.ar  801  RAL801      0.0454
     18  C16       44.4210   47.3410   16.3750 C.2   801  RAL801      0.1960
     19  O16       44.3730   46.1640   16.0310 O.2   801  RAL801     -0.2866
     20  C17       44.2430   47.7390   17.8530 C.ar  801  RAL801      0.0392
     21  C18       44.1810   49.0770   18.2940 C.ar  801  RAL801      0.0063
     22  C19       44.0590   49.3660   19.6730 C.ar  801  RAL801      0.0370
     23  C20       43.9930   48.3310   20.6180 C.ar  801  RAL801      0.1386
     24  C21       44.0630   47.0160   20.1580 C.ar  801  RAL801      0.0370
     25  C22       44.1840   46.7230   18.8040 C.ar  801  RAL801      0.0063
     26  O23       43.8710   48.5170   21.9800 O.3   801  RAL801     -0.4740
     27  C24       43.1460   49.7240   22.3600 C.3   801  RAL801      0.2226
     28  C25       42.3220   49.6520   23.6580 C.3   801  RAL801      0.1200
     29  N26       43.1390   49.6670   24.8770 N.3   801  RAL801     -0.2696
     30  C27       44.0900   48.5230   24.8870 C.3   801  RAL801      0.0722
     31  C28       44.7120   48.2140   26.2840 C.3   801  RAL801      0.0174
     32  C29       44.2080   49.1170   27.4130 C.3   801  RAL801      0.0029
     33  C30       42.6890   49.1970   27.3760 C.3   801  RAL801      0.0174
     34  C31       42.1480   49.6130   25.9860 C.3   801  RAL801      0.0722
@<TRIPOS>BOND
     1    14    15   ar
     2    14    12   ar
     3    15     9   ar
     4    13    12    1
     5    12    11   ar
     6     7     8   ar
     7     7     6   ar
     8     9     8    1
     9     9    10   ar
    10     8    17   ar
    11     5     6   ar
    12     5     3   ar
    13     6    16   ar
    14    11    10   ar
    15    17    16   ar
    16    17    18    1
    17     4     3    1
    18     3     2   ar
    19    16     1   ar
    20    19    18    2
    21    18    20    1
    22     2     1   ar
    23    20    21   ar
    24    20    25   ar
    25    21    22   ar
    26    25    24   ar
    27    22    23   ar
    28    24    23   ar
    29    23    26    1
    30    26    27    1
    31    27    28    1
    32    28    29    1
    33    29    30    1
    34    29    34    1
    35    30    31    1
    36    34    33    1
    37    31    32    1
    38    33    32    1
