@<TRIPOS>MOLECULE
2y0c_UGA_A_1.pdb
 37 39 0 0 0
SMALL
GASTEIGER

@<TRIPOS>ATOM
      1  C1'       57.3380    0.3900   10.3820 C.3   501  UGA501      0.2746
      2  C2'       58.8390    0.2500   10.7260 C.3   501  UGA501      0.2409
      3  O2'       59.0680    0.9030   11.9560 O.3   501  UGA501     -0.2149
      4  C3'       59.7110    0.9320    9.6840 C.3   501  UGA501      0.2203
      5  O3'       61.0970    0.6480    9.9590 O.3   501  UGA501     -0.2174
      6  C4'       59.3510    0.3640    8.3140 C.3   501  UGA501      0.2229
      7  O4'       60.1350    0.9630    7.2660 O.3   501  UGA501     -0.2171
      8  C5'       57.8800    0.6260    8.0620 C.3   501  UGA501      0.2529
      9  O5'       57.0990   -0.0430    9.0640 O.3   501  UGA501     -0.3167
     10  C6'       57.6070    0.0910    6.6790 C.2   501  UGA501      0.3941
     11  O'P       57.4350    0.9320    5.7690 O.co2 501  UGA501     -0.2429
     12  O'Q       57.6340   -1.1440    6.4340 O.co2 501  UGA501     -0.2429
     13  PB        55.4540    2.2240   10.8440 P.3   501  UGA501      0.2208
     14  O1B       55.2870    3.6320   10.3760 O.3   501  UGA501     -0.4371
     15  O2B       54.4690    1.2210   10.3550 O.2   501  UGA501     -0.5170
     16  O3B       56.9880    1.7630   10.4980 O.3   501  UGA501     -0.2857
     17  O3A       55.3250    2.3770   12.4180 O.3   501  UGA501     -0.2703
     18  PA        56.1040    2.0060   13.7540 P.3   501  UGA501      0.2189
     19  O1A       57.0350    0.8560   13.5920 O.2   501  UGA501     -0.5170
     20  O2A       56.6140    3.2540   14.4140 O.3   501  UGA501     -0.4371
     21  O5D       54.8440    1.5550   14.6450 O.3   501  UGA501     -0.3112
     22  C5D       54.1860    0.3070   14.3620 C.3   501  UGA501      0.1813
     23  C4D       53.2130   -0.0090   15.5070 C.3   501  UGA501      0.1799
     24  O4D       53.8490   -0.5390   16.6980 O.3   501  UGA501     -0.3320
     25  C3D       52.4630    1.2170   15.9940 C.3   501  UGA501      0.2158
     26  O3D       51.0740    0.8470   16.1020 O.3   501  UGA501     -0.2175
     27  C2D       53.0220    1.4610   17.3860 C.3   501  UGA501      0.2319
     28  O2D       52.0590    2.0820   18.2260 O.3   501  UGA501     -0.2157
     29  C1D       53.3500    0.0600   17.8830 C.3   501  UGA501      0.2401
     30  N1        54.4230   -0.0120   18.8720 N.am  501  UGA501     -0.1766
     31  C6        55.6450    0.4370   18.5490 C.2   501  UGA501      0.0929
     32  C2        54.1960   -0.5650   20.0780 C.1   501  UGA501      0.2845
     33  O2        53.0670   -1.0130   20.3770 O.2   501  UGA501     -0.1918
     34  N3        55.1930   -0.6450   20.9870 N.2   501  UGA501     -0.2452
     35  C4        56.4420   -0.1980   20.6990 C.1   501  UGA501      0.2182
     36  O4        57.3290   -0.2930   21.5780 O.2   501  UGA501     -0.2085
     37  C5        56.7100    0.3650   19.4480 C.2   501  UGA501      0.1242
@<TRIPOS>BOND
     1    11    10   ar
     2    12    10   ar
     3    10     8    1
     4     7     6    1
     5     8     6    1
     6     8     9    1
     7     6     4    1
     8     9     1    1
     9     4     5    1
    10     4     2    1
    11    15    13    2
    12    14    13    1
    13     1    16    1
    14     1     2    1
    15    16    13    1
    16     2     3    1
    17    13    17    1
    18    17    18    1
    19    19    18    2
    20    18    20    1
    21    18    21    1
    22    22    21    1
    23    22    23    1
    24    23    25    1
    25    23    24    1
    26    25    26    1
    27    25    27    1
    28    24    29    1
    29    27    29    1
    30    27    28    1
    31    29    30    1
    32    31    30    1
    33    31    37    2
    34    30    32   am
    35    37    35    1
    36    32    33    2
    37    32    34    2
    38    35    34    2
    39    35    36    2
