@<TRIPOS>MOLECULE
2y0d_UGA_A_1.pdb
 37 39 0 0 0
SMALL
GASTEIGER

@<TRIPOS>ATOM
      1  C1'      -24.8860  -17.3390   29.4510 C.3   500  UGA500      0.2746
      2  C2'      -24.9790  -15.8510   29.1810 C.3   500  UGA500      0.2409
      3  O2'      -24.2310  -15.6180   27.9980 O.3   500  UGA500     -0.2149
      4  C3'      -24.4540  -14.9830   30.3340 C.3   500  UGA500      0.2203
      5  O3'      -24.5920  -13.5540   30.1040 O.3   500  UGA500     -0.2174
      6  C4'      -25.1690  -15.4120   31.6150 C.3   500  UGA500      0.2229
      7  O4'      -24.6130  -14.7620   32.7440 O.3   500  UGA500     -0.2171
      8  C5'      -24.8570  -16.8670   31.8330 C.3   500  UGA500      0.2529
      9  O5'      -25.3990  -17.6200   30.7550 O.3   500  UGA500     -0.3167
     10  C6'      -25.4580  -17.3050   33.1310 C.2   500  UGA500      0.3941
     11  O'P      -26.6950  -17.2200   33.3010 O.co2 500  UGA500     -0.2429
     12  O'Q      -24.6600  -17.7370   33.9920 O.co2 500  UGA500     -0.2429
     13  PB       -22.9430  -19.1990   28.7960 P.3   500  UGA500      0.2208
     14  O1B      -24.0340  -20.2180   28.7850 O.2   500  UGA500     -0.5170
     15  O2B      -21.6820  -19.5160   29.5780 O.3   500  UGA500     -0.4371
     16  O3B      -23.5380  -17.7800   29.3080 O.3   500  UGA500     -0.2857
     17  O3A      -22.2940  -18.8460   27.3510 O.3   500  UGA500     -0.2703
     18  PA       -23.0210  -18.1910   26.0680 P.3   500  UGA500      0.2189
     19  O1A      -21.9280  -17.3480   25.4690 O.2   500  UGA500     -0.5170
     20  O2A      -24.3940  -17.6320   26.3790 O.3   500  UGA500     -0.4371
     21  O5D      -23.3010  -19.4590   25.1200 O.3   500  UGA500     -0.3112
     22  C5D      -24.6290  -19.9730   24.9660 C.3   500  UGA500      0.1813
     23  C4D      -24.7870  -20.9650   23.8040 C.3   500  UGA500      0.1799
     24  O4D      -25.3950  -20.3410   22.6710 O.3   500  UGA500     -0.3320
     25  C3D      -23.4640  -21.5200   23.3080 C.3   500  UGA500      0.2158
     26  O3D      -23.7030  -22.9140   23.1160 O.3   500  UGA500     -0.2175
     27  C2D      -23.2410  -20.7910   21.9960 C.3   500  UGA500      0.2319
     28  O2D      -22.5170  -21.5800   21.0700 O.3   500  UGA500     -0.2157
     29  C1D      -24.6440  -20.5970   21.4830 C.3   500  UGA500      0.2401
     30  N1       -24.7280  -19.4390   20.6120 N.am  500  UGA500     -0.1766
     31  C6       -24.3470  -18.2690   21.1320 C.2   500  UGA500      0.0929
     32  C2       -25.2080  -19.5370   19.3350 C.1   500  UGA500      0.2845
     33  O2       -25.5710  -20.6750   18.9210 O.2   500  UGA500     -0.1918
     34  N3       -25.3160  -18.4430   18.5040 N.2   500  UGA500     -0.2452
     35  C4       -24.9370  -17.2090   18.9830 C.1   500  UGA500      0.2182
     36  O4       -24.9990  -16.1190   18.2960 O.2   500  UGA500     -0.2085
     37  C5       -24.4570  -17.1370   20.3060 C.2   500  UGA500      0.1242
@<TRIPOS>BOND
     1    36    35    2
     2    34    35    2
     3    34    32    2
     4    33    32    2
     5    35    37    1
     6    32    30   am
     7    37    31    2
     8    30    31    1
     9    30    29    1
    10    28    27    1
    11    29    27    1
    12    29    24    1
    13    27    25    1
    14    24    23    1
    15    26    25    1
    16    25    23    1
    17    23    22    1
    18    22    21    1
    19    21    18    1
    20    19    18    2
    21    18    20    1
    22    18    17    1
    23    17    13    1
    24     3     2    1
    25    14    13    2
    26    13    16    1
    27    13    15    1
    28     2     1    1
    29     2     4    1
    30    16     1    1
    31     1     9    1
    32     5     4    1
    33     4     6    1
    34     9     8    1
    35     6     8    1
    36     6     7    1
    37     8    10    1
    38    10    11   ar
    39    10    12   ar
