@<TRIPOS>MOLECULE
2y0e_UGA_A_1.pdb
 37 39 0 0 0
SMALL
GASTEIGER

@<TRIPOS>ATOM
      1  C1'       57.5050    0.3690   10.3050 C.3   501  UGA501      0.2746
      2  C2'       59.0070    0.2400   10.6430 C.3   501  UGA501      0.2409
      3  O2'       59.2980    0.8540   11.8770 O.3   501  UGA501     -0.2149
      4  C3'       59.8760    0.9530    9.6110 C.3   501  UGA501      0.2203
      5  O3'       61.2360    0.6500    9.9200 O.3   501  UGA501     -0.2174
      6  C4'       59.5500    0.3270    8.2550 C.3   501  UGA501      0.2229
      7  O4'       60.3430    0.9100    7.2100 O.3   501  UGA501     -0.2171
      8  C5'       58.0890    0.6010    7.9800 C.3   501  UGA501      0.2529
      9  O5'       57.2870   -0.0550    8.9790 O.3   501  UGA501     -0.3167
     10  C6'       57.8010    0.0970    6.5910 C.2   501  UGA501      0.3941
     11  O'P       57.5840    0.9690    5.7120 O.co2 501  UGA501     -0.2429
     12  O'Q       57.8480   -1.1470    6.3330 O.co2 501  UGA501     -0.2429
     13  PB        55.6160    2.1290   10.8360 P.3   501  UGA501      0.2208
     14  O1B       54.6710    0.9810   10.6720 O.3   501  UGA501     -0.4371
     15  O2B       55.4540    3.4670   10.2140 O.2   501  UGA501     -0.5170
     16  O3B       57.1510    1.7450   10.4540 O.3   501  UGA501     -0.2857
     17  O3A       55.6610    2.4660   12.3710 O.3   501  UGA501     -0.2703
     18  PA        56.2940    1.9820   13.7180 P.3   501  UGA501      0.2189
     19  O1A       56.8290    3.2150   14.4030 O.3   501  UGA501     -0.4371
     20  O2A       57.2300    0.8470   13.5310 O.2   501  UGA501     -0.5170
     21  O5D       55.0100    1.5290   14.5730 O.3   501  UGA501     -0.3112
     22  C5D       54.3320    0.2910   14.2860 C.3   501  UGA501      0.1813
     23  C4D       53.3650   -0.0360   15.4050 C.3   501  UGA501      0.1799
     24  O4D       54.0150   -0.5630   16.5830 O.3   501  UGA501     -0.3320
     25  C3D       52.6280    1.2090   15.8990 C.3   501  UGA501      0.2158
     26  O3D       51.2550    0.7700   16.0180 O.3   501  UGA501     -0.2175
     27  C2D       53.1940    1.4420   17.3020 C.3   501  UGA501      0.2319
     28  O2D       52.1920    2.0220   18.1350 O.3   501  UGA501     -0.2157
     29  C1D       53.5080    0.0360   17.7600 C.3   501  UGA501      0.2401
     30  N1        54.5570   -0.0550   18.7690 N.am  501  UGA501     -0.1766
     31  C6        55.7680    0.4200   18.4600 C.2   501  UGA501      0.0929
     32  C2        54.3380   -0.6260   19.9770 C.1   501  UGA501      0.2845
     33  O2        53.2180   -1.0740   20.2950 O.2   501  UGA501     -0.1918
     34  N3        55.3350   -0.7150   20.9030 N.2   501  UGA501     -0.2452
     35  C4        56.5770   -0.2510   20.6140 C.1   501  UGA501      0.2182
     36  O4        57.4730   -0.3470   21.4750 O.2   501  UGA501     -0.2085
     37  C5        56.8290    0.3230   19.3750 C.2   501  UGA501      0.1242
@<TRIPOS>BOND
     1    11    10   ar
     2    12    10   ar
     3    10     8    1
     4     7     6    1
     5     8     6    1
     6     8     9    1
     7     6     4    1
     8     9     1    1
     9     4     5    1
    10     4     2    1
    11    15    13    2
    12     1    16    1
    13     1     2    1
    14    16    13    1
    15     2     3    1
    16    14    13    1
    17    13    17    1
    18    17    18    1
    19    20    18    2
    20    18    19    1
    21    18    21    1
    22    22    21    1
    23    22    23    1
    24    23    25    1
    25    23    24    1
    26    25    26    1
    27    25    27    1
    28    24    29    1
    29    27    29    1
    30    27    28    1
    31    29    30    1
    32    31    30    1
    33    31    37    2
    34    30    32   am
    35    37    35    1
    36    32    33    2
    37    32    34    2
    38    35    34    2
    39    35    36    2
