@<TRIPOS>MOLECULE
2y0h_C8E_A_6.pdb
 11 10 0 0 0
SMALL
GASTEIGER

@<TRIPOS>ATOM
      1  C1        35.2350  -23.0890   10.3090 C.3   1402  C8E1402     0.0000
      2  C2        33.9930  -23.9710   10.3200 C.3   1402  C8E1402     0.0000
      3  C3        32.7780  -23.1950   10.8200 C.3   1402  C8E1402     0.0000
      4  C4        32.6820  -23.1460   12.3440 C.3   1402  C8E1402     0.0000
      5  C5        32.3770  -21.7190   12.8070 C.3   1402  C8E1402     0.0001
      6  C6        31.2070  -21.6650   13.7850 C.3   1402  C8E1402     0.0026
      7  C7        30.9450  -20.2240   14.2230 C.3   1402  C8E1402     0.0321
      8  C8        30.9180  -20.0610   15.7400 C.3   1402  C8E1402     0.1422
      9  O9        31.4590  -18.8030   16.1090 O.3   1402  C8E1402    -0.3538
     10  C10       30.4900  -17.8430   16.4860 C.3   1402  C8E1402     0.1422
     11  C11       31.1640  -16.7350   17.3000 C.3   1402  C8E1402     0.0346
@<TRIPOS>BOND
     1     1     2    1
     2     2     3    1
     3     3     4    1
     4     4     5    1
     5     5     6    1
     6     6     7    1
     7     7     8    1
     8     8     9    1
     9     9    10    1
    10    10    11    1
