@<TRIPOS>MOLECULE
2y0i_AKG_A_1.pdb
 10 9 0 0 0
SMALL
GASTEIGER

@<TRIPOS>ATOM
      1  C1        22.6370   25.3530   27.7130 C.2   1351  AKG1351     0.4219
      2  O1        22.5320   24.2640   27.1060 O.co2 1351  AKG1351    -0.2373
      3  O2        23.7090   25.9690   27.8620 O.co2 1351  AKG1351    -0.2373
      4  C2        21.3750   25.9590   28.3210 C.2   1351  AKG1351     0.2526
      5  O5        21.4570   26.9950   28.9820 O.2   1351  AKG1351    -0.2843
      6  C3        20.0250   25.2920   28.0810 C.3   1351  AKG1351     0.0881
      7  C4        18.9460   25.9060   28.9760 C.3   1351  AKG1351     0.1224
      8  C5        17.5460   25.4620   28.5430 C.2   1351  AKG1351     0.3653
      9  O3        17.4780   24.6810   27.5720 O.co2 1351  AKG1351    -0.2456
     10  O4        16.5820   25.9330   29.1820 O.co2 1351  AKG1351    -0.2456
@<TRIPOS>BOND
     1     2     1   ar
     2     9     8   ar
     3     1     3   ar
     4     1     4    1
     5     6     4    1
     6     6     7    1
     7     4     5    2
     8     8     7    1
     9     8    10   ar
