@<TRIPOS>MOLECULE
2y0j_AXC_A_1.pdb
 25 29 0 0 0
SMALL
GASTEIGER

@<TRIPOS>ATOM
      1  CAN      -21.9750  -16.2750   32.3800 C.3   1760  AXC1760     0.1306
      2  CAL      -21.5410  -15.2620   33.4310 C.1   1760  AXC1760     0.0828
      3  NAM      -21.0790  -14.0440   33.1750 N.2   1760  AXC1760    -0.3362
      4  NAK      -21.5850  -15.4960   34.7370 N.2   1760  AXC1760    -0.1075
      5  NAI      -21.1700  -14.4960   35.3210 N.pl3 1760  AXC1760    -0.1193
      6  CAJ      -20.8280  -13.5290   34.3700 C.2   1760  AXC1760     0.2223
      7  CAE      -20.3330  -12.3050   34.8080 C.2   1760  AXC1760     0.0726
      8  CAF      -19.9830  -11.3210   33.8850 C.2   1760  AXC1760    -0.0149
      9  CAA      -19.4890  -10.0970   34.3260 C.3   1760  AXC1760     0.0523
     10  CAB      -19.3480   -9.8610   35.6940 C.2   1760  AXC1760    -0.0188
     11  CAC      -19.7000  -10.8500   36.6170 C.2   1760  AXC1760     0.0280
     12  CAD      -20.1900  -12.0770   36.1810 C.2   1760  AXC1760     0.1369
     13  NAG      -20.5250  -13.0220   37.0820 N.2   1760  AXC1760    -0.3787
     14  CAH      -21.0060  -14.2160   36.6860 C.2   1760  AXC1760     0.2370
     15  SAO      -21.4470  -15.4700   37.8060 S.3   1760  AXC1760    -0.0464
     16  CAP      -21.0740  -14.7520   39.4560 C.3   1760  AXC1760     0.1900
     17  CAQ      -22.2280  -13.8940   39.9870 C.1   1760  AXC1760     0.1251
     18  NAU      -22.2390  -12.5580   40.0320 N.2   1760  AXC1760    -0.3402
     19  CAT      -23.4000  -12.1670   40.5410 C.ar  1760  AXC1760     0.1738
     20  CAY      -23.9270  -10.9070   40.8050 C.ar  1760  AXC1760     0.0357
     21  CAX      -25.2020  -10.8060   41.3520 C.ar  1760  AXC1760     0.0028
     22  CAW      -25.9360  -11.9610   41.6330 C.ar  1760  AXC1760     0.0028
     23  CAV      -25.4020  -13.2190   41.3670 C.ar  1760  AXC1760     0.0357
     24  CAS      -24.1310  -13.3120   40.8200 C.ar  1760  AXC1760     0.1738
     25  NAR      -23.3800  -14.3540   40.4750 N.2   1760  AXC1760    -0.3402
@<TRIPOS>BOND
     1     1     2    1
     2     3     2    2
     3     3     6    2
     4     2     4    2
     5     8     9    1
     6     8     7    2
     7     9    10    1
     8     6     7    1
     9     6     5    1
    10     4     5    1
    11     7    12    1
    12     5    14    1
    13    10    11    2
    14    12    11    1
    15    12    13    2
    16    14    13    2
    17    14    15    1
    18    15    16    1
    19    16    17    1
    20    17    18    2
    21    17    25    2
    22    18    19    2
    23    25    24    2
    24    19    20   ar
    25    19    24   ar
    26    20    21   ar
    27    24    23   ar
    28    21    22   ar
    29    23    22   ar
