@<TRIPOS>MOLECULE
2y0k_C8E_A_2.pdb
 14 13 0 0 0
SMALL
GASTEIGER

@<TRIPOS>ATOM
      1  C1        -0.8410  -20.0290    2.1170 C.3   1387  C8E1387     0.0000
      2  C2        -0.2010  -19.0530    3.1000 C.3   1387  C8E1387     0.0000
      3  C3         0.2710  -17.7850    2.3890 C.3   1387  C8E1387     0.0000
      4  C4         0.3130  -16.6060    3.3640 C.3   1387  C8E1387     0.0000
      5  C5         1.1360  -15.4360    2.8290 C.3   1387  C8E1387     0.0001
      6  C6         0.8360  -14.1640    3.6220 C.3   1387  C8E1387     0.0026
      7  C7         0.7160  -14.4350    5.1210 C.3   1387  C8E1387     0.0321
      8  C8        -0.0160  -13.2910    5.8180 C.3   1387  C8E1387     0.1423
      9  O9         0.4320  -13.0520    7.1450 O.3   1387  C8E1387    -0.3511
     10  C10        0.2470  -14.1000    8.0850 C.3   1387  C8E1387     0.1741
     11  C11        0.8750  -13.6580    9.4040 C.3   1387  C8E1387     0.1741
     12  O12        0.3500  -14.3540   10.5200 O.3   1387  C8E1387    -0.3511
     13  C13        1.3060  -15.1870   11.1510 C.3   1387  C8E1387     0.1424
     14  C14        0.8390  -15.5570   12.5560 C.3   1387  C8E1387     0.0346
@<TRIPOS>BOND
     1     1     2    1
     2     3     2    1
     3     3     4    1
     4     5     4    1
     5     5     6    1
     6     6     7    1
     7     7     8    1
     8     8     9    1
     9     9    10    1
    10    10    11    1
    11    11    12    1
    12    12    13    1
    13    13    14    1
