@<TRIPOS>MOLECULE
2y0n_III_G_2.pdb
 49 51 0 0 0
SMALL
GASTEIGER

@<TRIPOS>ATOM
      1  N        -23.4460    5.5820   45.7000 N.3   553  VAL553     -0.1231
      2  CA       -22.0470    5.1510   46.0120 C.3   553  VAL553      0.1692
      3  C        -21.8310    4.9080   47.5050 C.2   553  VAL553      0.2593
      4  O        -22.3000    5.6860   48.3420 O.2   553  VAL553     -0.2718
      5  CB       -20.9940    6.1700   45.4980 C.3   553  VAL553      0.0266
      6  CG1      -20.6520    5.9050   44.0310 C.3   553  VAL553      0.0020
      7  CG2      -21.4730    7.6070   45.7070 C.3   553  VAL553      0.0020
      8  N        -21.1230    3.8260   47.8280 N.am  554  THR554     -0.1939
      9  CA       -20.7810    3.4970   49.2210 C.3   554  THR554      0.2028
     10  C        -19.2860    3.2980   49.4230 C.2   554  THR554      0.2643
     11  O        -18.8320    3.0840   50.5500 O.2   554  THR554     -0.2714
     12  CB       -21.5100    2.2360   49.7320 C.3   554  THR554      0.1808
     13  OG1      -21.5530    1.2510   48.6870 O.3   554  THR554     -0.2208
     14  CG2      -22.9260    2.5760   50.2050 C.3   554  THR554      0.0379
     15  N        -18.5290    3.3520   48.3300 N.am  555  SER555     -0.1935
     16  CA       -17.0690    3.3090   48.3930 C.3   555  SER555      0.2055
     17  C        -16.4540    3.9780   47.1910 C.2   555  SER555      0.2643
     18  O        -17.0490    3.9990   46.1150 O.2   555  SER555     -0.2714
     19  CB       -16.5460    1.8780   48.4950 C.3   555  SER555      0.2130
     20  OG       -16.5860    1.4330   49.8340 O.3   555  SER555     -0.2179
     21  N        -15.2570    4.5220   47.3760 N.am  556  PHE556     -0.1959
     22  CA       -14.5160    5.1020   46.2690 C.3   556  PHE556      0.1771
     23  C        -13.6630    4.0110   45.6270 C.2   556  PHE556      0.2620
     24  O        -12.8970    4.2740   44.6950 O.2   556  PHE556     -0.2715
     25  CB       -13.6780    6.2980   46.7410 C.3   556  PHE556      0.0574
     26  CG       -14.4860    7.3770   47.4320 C.ar  556  PHE556     -0.0200
     27  CD1      -15.3060    8.2360   46.7000 C.ar  556  PHE556     -0.0042
     28  CD2      -14.4270    7.5340   48.8170 C.ar  556  PHE556     -0.0042
     29  CE1      -16.0560    9.2320   47.3390 C.ar  556  PHE556     -0.0003
     30  CE2      -15.1710    8.5280   49.4630 C.ar  556  PHE556     -0.0003
     31  CZ       -15.9850    9.3770   48.7230 C.ar  556  PHE556     -0.0000
     32  N        -13.8330    2.7820   46.1230 N.am  557  PHE557     -0.1960
     33  CA       -13.0570    1.6060   45.6950 C.3   557  PHE557      0.1756
     34  C        -13.9150    0.5930   44.9280 C.2   557  PHE557      0.2461
     35  O        -15.1300    0.5280   45.1260 O.2   557  PHE557     -0.2730
     36  CB       -12.4470    0.8970   46.9160 C.3   557  PHE557      0.0574
     37  CG       -11.5250    1.7610   47.7390 C.ar  557  PHE557     -0.0200
     38  CD1      -10.1670    1.8570   47.4220 C.ar  557  PHE557     -0.0042
     39  CD2      -12.0070    2.4610   48.8450 C.ar  557  PHE557     -0.0042
     40  CE1       -9.3070    2.6520   48.1820 C.ar  557  PHE557     -0.0003
     41  CE2      -11.1510    3.2590   49.6100 C.ar  557  PHE557     -0.0003
     42  CZ        -9.8000    3.3540   49.2730 C.ar  557  PHE557     -0.0000
     43  N        -13.2820   -0.2140   44.0610 N.am  558  PRO558     -0.2727
     44  CA       -14.0260   -1.2830   43.3610 C.3   558  PRO558      0.1402
     45  C        -14.5190   -2.3860   44.3090 C.2   558  PRO558      0.2269
     46  O        -15.2170   -3.3110   43.8780 O.2   558  PRO558     -0.2865
     47  CB       -13.0020   -1.8440   42.3530 C.3   558  PRO558      0.0296
     48  CG       -11.9730   -0.7590   42.2030 C.3   558  PRO558      0.0237
     49  CD       -11.9090   -0.0610   43.5470 C.3   558  PRO558      0.0939
@<TRIPOS>BOND
     1    48    47    1
     2    48    49    1
     3    47    44    1
     4    44    43    1
     5    44    45    1
     6    49    43    1
     7    46    45    2
     8     6     5    1
     9    43    34   am
    10    24    23    2
    11    34    35    2
    12    34    33    1
    13     5     7    1
    14     5     2    1
    15    23    32   am
    16    23    22    1
    17    33    32    1
    18    33    36    1
    19     1     2    1
    20     2     3    1
    21    18    17    2
    22    22    25    1
    23    22    21    1
    24    27    29   ar
    25    27    26   ar
    26    25    26    1
    27    36    37    1
    28    17    21   am
    29    17    16    1
    30    29    31   ar
    31    38    37   ar
    32    38    40   ar
    33    26    28   ar
    34     3     8   am
    35     3     4    2
    36    37    39   ar
    37     8     9    1
    38    40    42   ar
    39    15    16    1
    40    15    10   am
    41    16    19    1
    42    19    20    1
    43    13    12    1
    44    31    30   ar
    45    28    30   ar
    46    39    41   ar
    47     9    10    1
    48     9    12    1
    49    42    41   ar
    50    10    11    2
    51    12    14    1
