@<TRIPOS>MOLECULE
2y0p_ACO_D_1.pdb
 38 40 0 0 0
SMALL
GASTEIGER

@<TRIPOS>ATOM
      1  N1A      -17.7690   25.6890  -71.6020 N.2   2228  ACO2228     0.0021
      2  C2A      -18.9410   25.7680  -70.9120 C.3   2228  ACO2228     0.5254
      3  N3A      -20.1490   25.8120  -71.5150 N.2   2228  ACO2228    -0.0055
      4  C4A      -20.2150   25.7690  -72.8620 C.2   2228  ACO2228     0.3518
      5  C5A      -19.0120   25.6820  -73.6490 C.2   2228  ACO2228     0.2526
      6  C6A      -17.7540   25.6440  -72.9610 C.2   2228  ACO2228     0.4393
      7  N6A      -16.5590   25.5700  -73.6560 N.pl3 2228  ACO2228     0.2180
      8  N7A      -19.3920   25.6530  -74.9470 N.2   2228  ACO2228    -0.2095
      9  C8A      -20.6990   25.7190  -75.0050 C.3   2228  ACO2228     0.3377
     10  N9A      -21.2360   25.7910  -73.7500 N.pl3 2228  ACO2228    -0.1439
     11  C1B      -22.6390   25.8770  -73.3900 C.3   2228  ACO2228     0.3185
     12  C2B      -23.2060   27.2930  -73.6550 C.3   2228  ACO2228     0.2543
     13  O2B      -22.9370   28.1620  -72.5330 O.3   2228  ACO2228    -0.2131
     14  C3B      -24.7140   26.9710  -73.8170 C.3   2228  ACO2228     0.1928
     15  O3B      -25.3050   26.8310  -72.5070 O.3   2228  ACO2228    -0.2673
     16  P3B      -26.8980   27.1130  -72.4680 P.3   2228  ACO2228     0.5327
     17  O7A      -27.2300   27.8830  -71.1050 O.3   2228  ACO2228    -0.1145
     18  O8A      -27.4150   27.9200  -73.7670 O.2   2228  ACO2228    -0.2224
     19  O9A      -27.5910   25.8030  -72.3820 O.3   2228  ACO2228    -0.1145
     20  C4B      -24.6630   25.6070  -74.5340 C.3   2228  ACO2228     0.1795
     21  O4B      -23.4210   24.9660  -74.1820 O.3   2228  ACO2228    -0.3136
     22  C5B      -24.7650   25.7580  -76.0560 C.3   2228  ACO2228     0.1812
     23  O5B      -23.4870   26.1170  -76.6140 O.3   2228  ACO2228    -0.3112
     24  P1A      -23.5860   27.3820  -77.6390 P.3   2228  ACO2228     0.2189
     25  O1A      -25.1030   27.7630  -78.0550 O.2   2228  ACO2228    -0.5170
     26  O2A      -22.9170   28.5770  -77.1010 O.3   2228  ACO2228    -0.4371
     27  O3A      -22.7730   26.9350  -78.9350 O.3   2228  ACO2228    -0.2703
     28  P2A      -23.4320   25.6940  -79.7340 P.3   2228  ACO2228     0.2188
     29  O4A      -23.6010   26.2310  -81.2010 O.2   2228  ACO2228    -0.5170
     30  O5A      -24.7610   25.2320  -79.2450 O.3   2228  ACO2228    -0.4371
     31  O6A      -22.3580   24.4870  -79.8730 O.3   2228  ACO2228    -0.3138
     32  CBP      -20.4440   23.6560  -78.5750 C.3   2228  ACO2228     0.0559
     33  CCP      -21.9310   24.0370  -78.5660 C.3   2228  ACO2228     0.1514
     34  CDP      -20.0820   23.0380  -77.2290 C.3   2228  ACO2228     0.0051
     35  CEP      -19.6290   24.9410  -78.7630 C.3   2228  ACO2228     0.0051
     36  CAP      -20.1090   22.6660  -79.7050 C.3   2228  ACO2228     0.1543
     37  OAP      -18.6890   22.4770  -79.7930 O.3   2228  ACO2228    -0.2231
     38  C9P      -20.8260   21.3300  -79.5850 C.3   2228  ACO2228     0.0356
@<TRIPOS>BOND
     1    29    28    2
     2    31    28    1
     3    31    33    1
     4    37    36    1
     5    28    30    1
     6    28    27    1
     7    36    38    1
     8    36    32    1
     9    27    24    1
    10    35    32    1
    11    32    33    1
    12    32    34    1
    13    25    24    2
    14    24    26    1
    15    24    23    1
    16    23    22    1
    17    22    20    1
    18     9     8    1
    19     9    10    1
    20     8     5    2
    21    20    21    1
    22    20    14    1
    23    21    11    1
    24    14    12    1
    25    14    15    1
    26    18    16    2
    27    10    11    1
    28    10     4    1
    29     7     6    1
    30    12    11    1
    31    12    13    1
    32     5     6    1
    33     5     4    1
    34     6     1    2
    35     4     3    2
    36    15    16    1
    37    16    19    1
    38    16    17    1
    39     1     2    1
    40     3     2    1
