@<TRIPOS>MOLECULE
2y0p_TD7_A_1.pdb
 33 34 0 0 0
SMALL
GASTEIGER

@<TRIPOS>ATOM
      1  O1B        0.0200  -19.8310   -3.6030 O.3   2001  TD72001    -0.1143
      2  PB        -0.7220  -19.3290   -4.9330 P.3   2001  TD72001     0.5373
      3  O3B       -2.0220  -20.0290   -5.0700 O.3   2001  TD72001    -0.1143
      4  O2B        0.1690  -19.6310   -6.2350 O.2   2001  TD72001    -0.2221
      5  O3A       -0.8950  -17.8300   -4.8560 O.3   2001  TD72001    -0.2261
      6  PA        -2.0460  -16.8140   -4.4010 P.3   2001  TD72001     0.2230
      7  O1A       -1.7160  -15.4330   -4.8650 O.3   2001  TD72001    -0.4370
      8  O2A       -3.4500  -17.2850   -5.0290 O.2   2001  TD72001    -0.5169
      9  O7        -2.1420  -16.7920   -2.7850 O.3   2001  TD72001    -0.3134
     10  C7        -1.0270  -17.1380   -1.9600 C.3   2001  TD72001     0.1544
     11  C6        -1.3060  -16.9610   -0.4620 C.3   2001  TD72001     0.0661
     12  C5         0.0040  -16.6230    0.2090 C.2   2001  TD72001     0.0164
     13  S1         1.5640  -17.2300   -0.3280 S.3   2001  TD72001    -0.0952
     14  C4         0.2400  -15.7840    1.2300 C.2   2001  TD72001     0.0279
     15  CM4       -0.9450  -15.1040    1.8600 C.3   2001  TD72001     0.0473
     16  N3         1.5050  -15.6490    1.5970 N.pl3 2001  TD72001    -0.2970
     17  C2         2.3380  -16.3740    0.9170 C.3   2001  TD72001     0.1559
     18  OL1        4.4220  -16.4820    2.4140 O.3   2001  TD72001    -0.2204
     19  CLB        4.6820  -16.7190   -0.1130 C.3   2001  TD72001     0.0474
     20  CLC        7.1020  -16.8560    0.2200 C.2   2001  TD72001     0.3649
     21  OL2        7.7820  -16.8870    1.2650 O.co2 2001  TD72001    -0.2457
     22  OL3        7.4330  -16.1830   -0.7840 O.co2 2001  TD72001    -0.2457
     23  C7'        1.9180  -14.7850    2.7150 C.3   2001  TD72001     0.1237
     24  C5'        1.8760  -13.3220    2.3070 C.2   2001  TD72001     0.0654
     25  C6'        0.9360  -12.4670    2.8670 C.2   2001  TD72001     0.1115
     26  N1'        0.9120  -11.1840    2.4970 N.2   2001  TD72001    -0.1861
     27  C2'        1.7770  -10.7120    1.6070 C.1   2001  TD72001     0.0663
     28  CM2        1.7280   -9.2610    1.2170 C.3   2001  TD72001     0.1291
     29  N3'        2.7060  -11.4800    1.0650 N.2   2001  TD72001    -0.3368
     30  C4'        2.7840  -12.7760    1.3730 C.2   2001  TD72001     0.2292
     31  C13        5.8340  -17.6750    0.1740 C.3   2001  TD72001     0.1168
     32  N4'        3.7770  -13.5440    0.7910 N.pl3 2001  TD72001    -0.0925
     33  C11        3.8280  -16.5220    1.1150 C.3   2001  TD72001     0.1811
@<TRIPOS>BOND
     1     4     2    2
     2     3     2    1
     3     8     6    2
     4     2     5    1
     5     2     1    1
     6     7     6    1
     7     5     6    1
     8     6     9    1
     9     9    10    1
    10    10    11    1
    11    22    20   ar
    12    11    12    1
    13    13    12    1
    14    13    17    1
    15    19    31    1
    16    19    33    1
    17    31    20    1
    18    12    14    2
    19    20    21   ar
    20    32    30    1
    21    17    33    1
    22    17    16    1
    23    29    30    2
    24    29    27    2
    25    33    18    1
    26    28    27    1
    27    14    16    1
    28    14    15    1
    29    30    24    1
    30    16    23    1
    31    27    26    2
    32    24    23    1
    33    24    25    2
    34    26    25    1
