@<TRIPOS>MOLECULE
2y10_GDP_Z_1.pdb
 28 30 0 0 0
SMALL
GASTEIGER

@<TRIPOS>ATOM
      1  PB        45.4300 -215.5400  140.6460 P.3   1406  GDP1406     0.5373
      2  O1B       46.4580 -215.0900  139.6830 O.2   1406  GDP1406    -0.2221
      3  O2B       45.1770 -214.5940  141.7550 O.3   1406  GDP1406    -0.1143
      4  O3B       45.5670 -216.9480  141.0750 O.3   1406  GDP1406    -0.1143
      5  O3A       44.0680 -215.5190  139.7860 O.3   1406  GDP1406    -0.2261
      6  PA        42.8210 -214.6330  140.2840 P.3   1406  GDP1406     0.2231
      7  O1A       43.3360 -213.3860  140.8940 O.2   1406  GDP1406    -0.5169
      8  O2A       41.9250 -215.4890  141.0900 O.3   1406  GDP1406    -0.4370
      9  O5'       42.0440 -214.2130  138.9390 O.3   1406  GDP1406    -0.3111
     10  C5'       42.5060 -213.0880  138.1860 C.3   1406  GDP1406     0.1813
     11  C4'       41.4340 -212.5230  137.2500 C.3   1406  GDP1406     0.1799
     12  O4'       40.8910 -213.6310  136.5090 O.3   1406  GDP1406    -0.3326
     13  C3'       40.2630 -211.8860  138.0030 C.3   1406  GDP1406     0.2158
     14  O3'       39.6600 -210.8360  137.2410 O.3   1406  GDP1406    -0.2175
     15  C2'       39.2950 -213.0610  138.1100 C.3   1406  GDP1406     0.2310
     16  O2'       37.9440 -212.6230  138.2780 O.3   1406  GDP1406    -0.2158
     17  C1'       39.4690 -213.6720  136.7150 C.3   1406  GDP1406     0.2293
     18  N9        38.9380 -215.0190  136.5610 N.pl3 1406  GDP1406    -0.2354
     19  C8        38.8140 -215.9140  137.5590 C.3   1406  GDP1406     0.2246
     20  N7        38.2880 -217.0210  137.1200 N.2   1406  GDP1406    -0.2322
     21  C5        38.0890 -216.8690  135.7640 C.2   1406  GDP1406     0.2182
     22  C6        37.5680 -217.6920  134.8020 C.1   1406  GDP1406     0.2372
     23  O6        37.2380 -218.8380  135.0480 O.2   1406  GDP1406    -0.2069
     24  N1        37.4510 -217.2110  133.4690 N.2   1406  GDP1406    -0.2485
     25  C2        37.9140 -215.9300  133.2120 C.1   1406  GDP1406     0.2531
     26  N2        37.8970 -215.4840  131.9590 N.pl3 1406  GDP1406    -0.0226
     27  N3        38.4170 -215.1420  134.1820 N.2   1406  GDP1406    -0.3074
     28  C4        38.4930 -215.6080  135.4360 C.2   1406  GDP1406     0.2300
@<TRIPOS>BOND
     1    26    25    1
     2    25    24    2
     3    25    27    2
     4    24    22    2
     5    27    28    2
     6    22    23    2
     7    22    21    1
     8    28    21    1
     9    28    18    1
    10    21    20    2
    11    12    17    1
    12    12    11    1
    13    18    17    1
    14    18    19    1
    15    17    15    1
    16    20    19    1
    17    14    13    1
    18    11    13    1
    19    11    10    1
    20    13    15    1
    21    15    16    1
    22    10     9    1
    23     9     6    1
    24     2     1    2
    25     5     6    1
    26     5     1    1
    27     6     7    2
    28     6     8    1
    29     1     4    1
    30     1     3    1
