@<TRIPOS>MOLECULE
2y12_GDP_Z_1.pdb
 28 30 0 0 0
SMALL
GASTEIGER

@<TRIPOS>ATOM
      1  PB        44.9830 -214.9760  140.6800 P.3   1406  GDP1406     0.5373
      2  O1B       45.6640 -213.6980  140.3350 O.3   1406  GDP1406    -0.1143
      3  O2B       44.6340 -215.1090  142.1200 O.3   1406  GDP1406    -0.1143
      4  O3B       45.5570 -216.1890  140.0470 O.2   1406  GDP1406    -0.2221
      5  O3A       43.6020 -214.9130  139.8370 O.3   1406  GDP1406    -0.2261
      6  PA        42.4460 -213.9370  140.3920 P.3   1406  GDP1406     0.2231
      7  O1A       42.9430 -213.0450  141.4740 O.3   1406  GDP1406    -0.4370
      8  O2A       41.3040 -214.8330  140.6720 O.2   1406  GDP1406    -0.5169
      9  O5'       42.0400 -213.0140  139.1310 O.3   1406  GDP1406    -0.3111
     10  C5'       40.8280 -212.2730  139.2770 C.3   1406  GDP1406     0.1813
     11  C4'       40.2670 -211.8020  137.9380 C.3   1406  GDP1406     0.1799
     12  O4'       40.1600 -212.9250  137.0500 O.3   1406  GDP1406    -0.3326
     13  C3'       38.8250 -211.3670  138.2080 C.3   1406  GDP1406     0.2158
     14  O3'       38.2930 -210.5180  137.1880 O.3   1406  GDP1406    -0.2175
     15  C2'       38.1180 -212.7160  138.1920 C.3   1406  GDP1406     0.2310
     16  O2'       36.7050 -212.5710  138.0290 O.3   1406  GDP1406    -0.2158
     17  C1'       38.7740 -213.2690  136.9330 C.3   1406  GDP1406     0.2293
     18  N9        38.6170 -214.6970  136.7140 N.pl3 1406  GDP1406    -0.2354
     19  C8        39.1520 -215.6820  137.4590 C.3   1406  GDP1406     0.2246
     20  N7        38.9840 -216.8690  136.8630 N.2   1406  GDP1406    -0.2322
     21  C5        38.3560 -216.6230  135.7060 C.2   1406  GDP1406     0.2182
     22  C6        37.9530 -217.4670  134.6530 C.1   1406  GDP1406     0.2372
     23  O6        38.2030 -218.6770  134.7400 O.2   1406  GDP1406    -0.2069
     24  N1        37.3360 -216.8950  133.5260 N.2   1406  GDP1406    -0.2485
     25  C2        37.1240 -215.5180  133.4780 C.1   1406  GDP1406     0.2531
     26  N2        36.4850 -214.9510  132.4550 N.pl3 1406  GDP1406    -0.0226
     27  N3        37.5120 -214.7340  134.4970 N.2   1406  GDP1406    -0.3074
     28  C4        38.1130 -215.2460  135.5900 C.2   1406  GDP1406     0.2300
@<TRIPOS>BOND
     1    26    25    1
     2    25    24    2
     3    25    27    2
     4    24    22    2
     5    27    28    2
     6    22    23    2
     7    22    21    1
     8    28    21    1
     9    28    18    1
    10    21    20    2
    11    18    17    1
    12    18    19    1
    13    20    19    1
    14    17    12    1
    15    17    15    1
    16    12    11    1
    17    14    13    1
    18    11    13    1
    19    11    10    1
    20    16    15    1
    21    15    13    1
    22     9    10    1
    23     9     6    1
    24     5     6    1
    25     5     1    1
    26     4     1    2
    27     2     1    1
    28     6     8    2
    29     6     7    1
    30     1     3    1
