@<TRIPOS>MOLECULE
2y1b_I3C_A_1.pdb
 16 16 0 0 0
SMALL
GASTEIGER

@<TRIPOS>ATOM
      1  I3        21.5550    9.9560    7.4530 I     1133  I3C1133    -0.0409
      2  I2        22.4450    6.5780    2.5550 I     1133  I3C1133    -0.0409
      3  I1        25.6960    5.6220    7.5120 I     1133  I3C1133    -0.0421
      4  O8        23.1530    7.5450    9.4760 O.co2 1133  I3C1133    -0.2405
      5  O9        24.9820    8.7360    8.8430 O.co2 1133  I3C1133    -0.2405
      6  C10       24.5880    5.2660    4.5590 C.2   1133  I3C1133     0.3886
      7  N13       21.2610    8.8860    4.6040 N.pl3 1133  I3C1133    -0.1272
      8  C1        23.5630    7.7270    7.1910 C.ar  1133  I3C1133     0.0920
      9  C6        22.5740    8.4310    6.5240 C.ar  1133  I3C1133     0.0540
     10  C5        22.2210    8.1640    5.1960 C.ar  1133  I3C1133     0.1002
     11  C4        22.8830    7.1350    4.5720 C.ar  1133  I3C1133     0.0540
     12  C3        23.8980    6.4370    5.2320 C.ar  1133  I3C1133     0.0920
     13  C2        24.2130    6.7210    6.5560 C.ar  1133  I3C1133     0.0437
     14  C7        23.9350    8.0400    8.6230 C.2   1133  I3C1133     0.3886
     15  O11       25.7430    5.3170    4.0950 O.co2 1133  I3C1133    -0.2405
     16  O12       23.8880    4.2290    4.6070 O.co2 1133  I3C1133    -0.2405
@<TRIPOS>BOND
     1     2    11    1
     2    15     6   ar
     3     6    16   ar
     4     6    12    1
     5    11    10   ar
     6    11    12   ar
     7     7    10    1
     8    10     9   ar
     9    12    13   ar
    10     9     8   ar
    11     9     1    1
    12    13     8   ar
    13    13     3    1
    14     8    14    1
    15    14     5   ar
    16    14     4   ar
