@<TRIPOS>MOLECULE
2y1d_34F_A_1.pdb
 19 19 0 0 0
SMALL
GASTEIGER

@<TRIPOS>ATOM
      1 CL2        41.7480   11.7980   18.7520 Cl    1390  34F1390    -0.0814
      2  C9        42.2690   10.8530   20.1870 C.ar  1390  34F1390     0.0682
      3  C8        43.5460   11.0390   20.7560 C.ar  1390  34F1390     0.0679
      4 CL1        44.7170   12.2280   20.0940 Cl    1390  34F1390    -0.0814
      5  C7        43.9320   10.2840   21.8690 C.ar  1390  34F1390     0.0084
      6  C10       41.3790    9.9130   20.7360 C.ar  1390  34F1390     0.0119
      7  C11       41.7700    9.1610   21.8510 C.ar  1390  34F1390    -0.0029
      8  C6        43.0480    9.3380   22.4170 C.ar  1390  34F1390    -0.0147
      9  C4        43.4230    8.5310   23.6370 C.3   1390  34F1390     0.0760
     10  PA1       44.5860    7.4320   23.3590 P.3   1390  34F1390     0.1209
     11  OP1       44.8390    6.7950   24.7060 O.3   1390  34F1390    -0.3569
     12  OP2       43.9640    6.4870   22.3590 O.2   1390  34F1390    -0.4598
     13  OP3       45.7920    8.1410   22.8100 O.3   1390  34F1390    -0.3569
     14  C3        43.7860    9.4930   24.7610 C.3   1390  34F1390     0.0337
     15  C2        42.7530   10.6110   24.9740 C.3   1390  34F1390     0.0988
     16  N1        41.5380   10.0110   25.5200 N.am  1390  34F1390    -0.2796
     17  O2        41.6110    9.3390   26.7310 O.3   1390  34F1390    -0.4195
     18  C1        40.4340   10.1120   24.9000 C.2   1390  34F1390     0.1130
     19  O1        39.3890    9.6660   25.3620 O.2   1390  34F1390    -0.5358
@<TRIPOS>BOND
     1     1     2    1
     2     4     3    1
     3     2     6   ar
     4     2     3   ar
     5     6     7   ar
     6     3     5   ar
     7     7     8   ar
     8     5     8   ar
     9    12    10    2
    10     8     9    1
    11    13    10    1
    12    10     9    1
    13    10    11    1
    14     9    14    1
    15    14    15    1
    16    18    19    2
    17    18    16   am
    18    15    16    1
    19    16    17    1
