@<TRIPOS>MOLECULE
2y1f_34F_A_1.pdb
 19 19 0 0 0
SMALL
GASTEIGER

@<TRIPOS>ATOM
      1 CL2         7.9500   -4.0150    4.2210 Cl    1390  34F1390    -0.0814
      2  C9         9.5860   -4.0970    3.4820 C.ar  1390  34F1390     0.0682
      3  C8        10.6030   -3.2620    3.9730 C.ar  1390  34F1390     0.0679
      4 CL1        10.2330   -2.1340    5.3380 Cl    1390  34F1390    -0.0814
      5  C7        11.8850   -3.3230    3.3960 C.ar  1390  34F1390     0.0084
      6  C10        9.8490   -4.9820    2.4130 C.ar  1390  34F1390     0.0119
      7  C11       11.1370   -5.0330    1.8390 C.ar  1390  34F1390    -0.0029
      8  C6        12.1750   -4.2110    2.3310 C.ar  1390  34F1390    -0.0147
      9  C4        13.5850   -4.2000    1.7250 C.3   1390  34F1390     0.0760
     10  PA1       14.4010   -5.6130    1.6410 P.3   1390  34F1390     0.1209
     11  OP1       15.6410   -5.3190    0.8450 O.2   1390  34F1390    -0.4598
     12  OP2       14.7150   -5.9410    3.0850 O.3   1390  34F1390    -0.3569
     13  OP3       13.6070   -6.6940    0.9750 O.3   1390  34F1390    -0.3569
     14  C3        13.5330   -3.4970    0.3650 C.3   1390  34F1390     0.0337
     15  C2        12.8990   -2.0940    0.4380 C.3   1390  34F1390     0.0988
     16  N1        13.8090   -1.1490    1.0980 N.am  1390  34F1390    -0.2796
     17  O2        15.0600   -0.9020    0.5310 O.3   1390  34F1390    -0.4195
     18  C1        13.4600   -0.5390    2.1590 C.2   1390  34F1390     0.1130
     19  O1        14.1900    0.2970    2.6990 O.2   1390  34F1390    -0.5358
@<TRIPOS>BOND
     1    14    15    1
     2    14     9    1
     3    15    16    1
     4    17    16    1
     5    11    10    2
     6    13    10    1
     7    16    18   am
     8    10     9    1
     9    10    12    1
    10     9     8    1
    11     7     8   ar
    12     7     6   ar
    13    18    19    2
    14     8     5   ar
    15     6     2   ar
    16     5     3   ar
    17     2     3   ar
    18     2     1    1
    19     3     4    1
