@<TRIPOS>MOLECULE
2y1g_FM5_A_1.pdb
 20 20 0 0 0
SMALL
GASTEIGER

@<TRIPOS>ATOM
      1 CL2         8.1990   -4.0190    3.9520 Cl    1390  FM51390    -0.0814
      2  C9         9.8340   -4.0850    3.2110 C.ar  1390  FM51390     0.0682
      3  C10       10.0780   -4.9670    2.1370 C.ar  1390  FM51390     0.0119
      4  C11       11.3540   -5.0220    1.5500 C.ar  1390  FM51390    -0.0029
      5  C8        10.8570   -3.2600    3.7080 C.ar  1390  FM51390     0.0679
      6 CL1        10.5450   -2.1330    5.0860 Cl    1390  FM51390    -0.0814
      7  C7        12.1300   -3.3220    3.1170 C.ar  1390  FM51390     0.0084
      8  C6        12.3890   -4.2010    2.0440 C.ar  1390  FM51390    -0.0147
      9  C4        13.7990   -4.1960    1.4240 C.3   1390  FM51390     0.0760
     10  PA1       14.6030   -5.8270    1.3480 P.3   1390  FM51390     0.1209
     11  OP1       14.8800   -6.1580    2.7870 O.3   1390  FM51390    -0.3569
     12  OP2       15.8630   -5.6360    0.5530 O.2   1390  FM51390    -0.4598
     13  OP3       13.6500   -6.7840    0.7020 O.3   1390  FM51390    -0.3569
     14  C3        13.7750   -3.5450    0.0340 C.3   1390  FM51390     0.0337
     15  C2        13.0530   -2.1940   -0.0050 C.3   1390  FM51390     0.0985
     16  N1        13.8620   -1.1870    0.6930 N.am  1390  FM51390    -0.2845
     17  O2        15.1720   -1.0140    0.2310 O.3   1390  FM51390    -0.4197
     18  C1        13.4590   -0.3780    1.6970 C.2   1390  FM51390     0.0679
     19  O1        14.2510    0.1590    2.4570 O.2   1390  FM51390    -0.5413
     20  C5        11.9840   -0.1130    1.8480 C.3   1390  FM51390     0.0561
@<TRIPOS>BOND
     1    15    14    1
     2    15    16    1
     3    14     9    1
     4    17    16    1
     5    12    10    2
     6    16    18   am
     7    13    10    1
     8    10     9    1
     9    10    11    1
    10     9     8    1
    11     4     8   ar
    12     4     3   ar
    13    18    20    1
    14    18    19    2
    15     8     7   ar
    16     3     2   ar
    17     7     5   ar
    18     2     5   ar
    19     2     1    1
    20     5     6    1
