@<TRIPOS>MOLECULE
2y1k_FU4_A_1.pdb
 10 10 0 0 0
SMALL
GASTEIGER

@<TRIPOS>ATOM
      1  C1        16.5910    5.6310   32.2340 C.3   1543  FU41543     0.1776
      2  C2        17.1980    6.6740   33.1390 C.3   1543  FU41543     0.2141
      3  C3        16.4250    7.9840   33.0650 C.3   1543  FU41543     0.2172
      4  C4        14.9160    7.7710   33.0780 C.3   1543  FU41543     0.2116
      5  C5        14.4620    6.6100   32.1920 C.3   1543  FU41543     0.1483
      6  C6        12.9640    6.3320   32.3300 C.3   1543  FU41543     0.0349
      7  O2        18.5310    6.8510   32.7160 O.3   1543  FU41543    -0.2176
      8  O3        16.7850    8.8260   34.1480 O.3   1543  FU41543    -0.2175
      9  O4        14.5230    7.5160   34.3980 O.3   1543  FU41543    -0.2177
     10  O5        15.2160    5.4620   32.5030 O.3   1543  FU41543    -0.3508
@<TRIPOS>BOND
     1     5     6    1
     2     5    10    1
     3     5     4    1
     4     1    10    1
     5     1     2    1
     6     7     2    1
     7     3     4    1
     8     3     2    1
     9     3     8    1
    10     4     9    1
