@<TRIPOS>MOLECULE
2y1l_III_G_1.pdb
 32 31 0 0 0
SMALL
GASTEIGER

@<TRIPOS>ATOM
      1  N         16.2640    1.7550  -33.7730 N.3     1  ILE1       -0.1231
      2  CA        17.6770    1.9940  -33.5200 C.3     1  ILE1        0.1692
      3  C         18.0620    3.4120  -33.9350 C.2     1  ILE1        0.2592
      4  O         18.9980    3.9900  -33.3910 O.2     1  ILE1       -0.2718
      5  CB        18.5700    0.9710  -34.2560 C.3     1  ILE1        0.0266
      6  CG1       19.9610    0.9000  -33.6250 C.3     1  ILE1        0.0019
      7  CG2       18.7110    1.3290  -35.7080 C.3     1  ILE1        0.0020
      8  CD1       20.9150   -0.0050  -34.3820 C.3     1  ILE1        0.0001
      9  N         17.3290    3.9740  -34.8920 N.am    2  GLU2       -0.1966
     10  CA        17.6000    5.3340  -35.3510 C.3     2  GLU2        0.1733
     11  C         16.4120    6.2620  -35.1570 C.2     2  GLU2        0.2617
     12  O         15.2700    5.8210  -35.1080 O.2     2  GLU2       -0.2715
     13  CB        18.0110    5.3320  -36.8180 C.3     2  GLU2        0.0429
     14  CG        19.2220    4.4790  -37.0900 C.3     2  GLU2        0.1163
     15  CD        19.7720    4.6910  -38.4720 C.2     2  GLU2        0.3649
     16  OE1       19.1410    5.4320  -39.2570 O.co2   2  GLU2       -0.2457
     17  OE2       20.8390    4.1170  -38.7690 O.co2   2  GLU2       -0.2457
     18  N         16.6910    7.5550  -35.0490 N.am    3  THR3       -0.1937
     19  CA        15.6370    8.5400  -34.8690 C.3     3  THR3        0.2028
     20  C         15.4150    9.3270  -36.1500 C.2     3  THR3        0.2642
     21  O         16.3100    9.4450  -36.9830 O.2     3  THR3       -0.2714
     22  CB        15.9590    9.5130  -33.7280 C.3     3  THR3        0.1808
     23  OG1       17.1470   10.2460  -34.0460 O.3     3  THR3       -0.2208
     24  CG2       16.1560    8.7560  -32.4250 C.3     3  THR3        0.0379
     25  N         14.2160    9.8690  -36.3020 N.am    4  ASP4       -0.1971
     26  CA        13.8840   10.6430  -37.4910 C.3     4  ASP4        0.1709
     27  C         14.0550   12.1480  -37.2920 C.2     4  ASP4        0.2293
     28  O         13.1740   12.9350  -37.6230 O.2     4  ASP4       -0.2864
     29  CB        12.4760   10.3000  -37.9680 C.3     4  ASP4        0.1436
     30  CG        12.4600    9.0600  -38.8290 C.2     4  ASP4        0.3671
     31  OD1       13.5120    8.7730  -39.4230 O.co2   4  ASP4       -0.2456
     32  OD2       11.4180    8.3770  -38.9210 O.co2   4  ASP4       -0.2456
@<TRIPOS>BOND
     1    31    30   ar
     2    16    15   ar
     3    32    30   ar
     4    30    29    1
     5    17    15   ar
     6    15    14    1
     7    29    26    1
     8    28    27    2
     9    26    27    1
    10    26    25    1
    11    14    13    1
    12    21    20    2
    13    13    10    1
    14    25    20   am
    15    20    19    1
    16     7     5    1
    17    10    11    1
    18    10     9    1
    19    11    12    2
    20    11    18   am
    21    18    19    1
    22     9     3   am
    23    19    22    1
    24     8     6    1
    25     5     6    1
    26     5     2    1
    27    23    22    1
    28     3     2    1
    29     3     4    2
    30     1     2    1
    31    22    24    1
