@<TRIPOS>MOLECULE
2y1o_T26_A_1.pdb
 34 36 0 0 0
SMALL
GASTEIGER

@<TRIPOS>ATOM
      1  OE2       -5.3310   32.1810   54.1340 O.co2 500  T26500     -0.2457
      2  CD        -5.2680   31.2740   54.9930 C.2   500  T26500      0.3649
      3  OE1       -4.4270   31.3180   55.9330 O.co2 500  T26500     -0.2457
      4  CG        -6.2500   30.1090   54.9630 C.3   500  T26500      0.1164
      5  CB        -6.1340   29.2490   53.6880 C.3   500  T26500      0.0451
      6  C         -7.1500   27.4470   52.2920 C.2   500  T26500      0.3842
      7  OXT       -7.1980   27.9700   51.1270 O.co2 500  T26500     -0.2437
      8  O         -6.9180   26.2310   52.4900 O.co2 500  T26500     -0.2437
      9  N         -8.5350   29.1540   53.3570 N.am  500  T26500     -0.1918
     10  CAU       -9.7600   28.7780   53.7440 C.2   500  T26500      0.2653
     11  OBC       -9.9110   27.8100   54.4760 O.2   500  T26500     -0.2684
     12  CAT      -10.9480   29.4860   53.2280 C.ar  500  T26500      0.0563
     13  CAS      -10.8840   30.7730   52.8390 C.ar  500  T26500      0.0207
     14  CAQ      -12.2500   28.7930   53.1040 C.ar  500  T26500      0.0046
     15  CAR      -11.9620   31.4140   52.2410 C.ar  500  T26500      0.0658
     16  CAO      -13.3230   29.4360   52.4790 C.ar  500  T26500      0.0015
     17  CAP      -13.2010   30.7770   52.1250 C.ar  500  T26500      0.0161
     18  CAA      -13.7750   33.9140   52.7120 C.ar  500  T26500     -0.0007
     19  CAN      -12.9130   33.7270   51.5330 C.3   500  T26500      0.1385
     20  NAY      -11.7730   32.7670   51.7230 N.pl3 500  T26500     -0.2328
     21  CAC      -13.2060   34.1790   53.9490 C.ar  500  T26500     -0.0026
     22  CAE      -14.0160   34.3200   55.0630 C.ar  500  T26500     -0.0002
     23  CAB      -15.1530   33.8200   52.5860 C.ar  500  T26500     -0.0026
     24  CAG      -15.9710   33.9720   53.7110 C.ar  500  T26500     -0.0002
     25  CAF      -15.4140   34.2360   54.9560 C.ar  500  T26500      0.0013
     26  CAH      -16.2160   34.3910   56.1910 C.2   500  T26500      0.0199
     27  CAI      -17.5530   34.4750   56.3210 C.2   500  T26500      0.1340
     28  SBG      -18.7890   34.3340   55.0900 S.3   500  T26500     -0.0013
     29  CAL      -19.9650   34.6570   56.3300 C.1   500  T26500      0.0848
     30  SBH      -21.6740   34.6740   55.8690 S.2   500  T26500      0.0320
     31  NAX      -19.5430   34.8220   57.6150 N.2   500  T26500     -0.2824
     32  CAK      -18.1870   34.7410   57.6220 C.1   500  T26500      0.2198
     33  CA        -7.3450   28.3040   53.5210 C.3   500  T26500      0.1986
     34  OBE      -17.5010   34.8700   58.6990 O.2   500  T26500     -0.2081
@<TRIPOS>BOND
     1     7     6   ar
     2    19    20    1
     3    19    18    1
     4    20    15    1
     5    17    15   ar
     6    17    16   ar
     7    15    13   ar
     8     6     8   ar
     9     6    33    1
    10    16    14   ar
    11    23    18   ar
    12    23    24   ar
    13    18    21   ar
    14    13    12   ar
    15    14    12   ar
    16    12    10    1
    17     9    33    1
    18     9    10   am
    19    33     5    1
    20     5     4    1
    21    24    25   ar
    22    10    11    2
    23    21    22   ar
    24     1     2   ar
    25    25    22   ar
    26    25    26    1
    27     4     2    1
    28     2     3   ar
    29    28    27    1
    30    28    29    1
    31    30    29    2
    32    26    27    2
    33    27    32    1
    34    29    31    2
    35    31    32    2
    36    32    34    2
