@<TRIPOS>MOLECULE
2y1p_CIT_A_1.pdb
 18 17 0 0 0
SMALL
GASTEIGER

@<TRIPOS>ATOM
      1  C1        14.0300   -2.4750    0.4220 C.2   1379  CIT1379     0.3593
      2  O1        15.1320   -1.9070    0.5810 O.co2 1379  CIT1379    -0.2463
      3  O2        13.4860   -2.3840   -0.7030 O.co2 1379  CIT1379    -0.2463
      4  C2        13.3890   -3.2230    1.5760 C.3   1379  CIT1379     0.0890
      5  C3        13.0080   -2.1780    2.6200 C.3   1379  CIT1379     0.1867
      6  O7        12.2390   -1.1520    1.9420 O.3   1379  CIT1379    -0.3764
      7  C4        12.1550   -2.7490    3.7610 C.3   1379  CIT1379     0.0890
      8  C5        12.2170   -1.9570    5.0650 C.2   1379  CIT1379     0.3593
      9  O3        11.2410   -1.9560    5.8540 O.co2 1379  CIT1379    -0.2463
     10  O4        13.2270   -1.3000    5.4110 O.co2 1379  CIT1379    -0.2463
     11  C6        14.3440   -1.6190    3.0950 C.2   1379  CIT1379     0.3880
     12  O5        15.1850   -2.3160    3.6930 O.co2 1379  CIT1379    -0.2431
     13  O6        14.6090   -0.4300    2.8750 O.co2 1379  CIT1379    -0.2431
     14  H41       12.4760   -3.7720    3.9580 H     1379  CIT1379     0.0413
     15  H42       11.1170   -2.7950    3.4310 H     1379  CIT1379     0.0413
     16  HO7       12.7480   -0.3140    1.9350 H     1379  CIT1379     0.2109
     17  H21       14.0930   -3.9410    1.9990 H     1379  CIT1379     0.0413
     18  H22       12.5030   -3.7590    1.2350 H     1379  CIT1379     0.0413
@<TRIPOS>BOND
     1     3     1   ar
     2     1     2   ar
     3     1     4    1
     4    18     4    1
     5     4    17    1
     6     4     5    1
     7    16     6    1
     8     6     5    1
     9     5    11    1
    10     5     7    1
    11    13    11   ar
    12    11    12   ar
    13    15     7    1
    14     7    14    1
    15     7     8    1
    16     8    10   ar
    17     8     9   ar
