@<TRIPOS>MOLECULE
2y1t_DUD_B_1.pdb
 24 25 0 0 0
SMALL
GASTEIGER

@<TRIPOS>ATOM
      1  N1       -10.6340    5.9160  -55.8680 N.am  143  DUD143     -0.1790
      2  C2       -10.2030    7.2550  -55.5700 C.1   143  DUD143      0.2844
      3  N3        -9.6230    7.4870  -54.4010 N.2   143  DUD143     -0.2452
      4  C4        -9.4900    6.5650  -53.4500 C.1   143  DUD143      0.2182
      5  C5        -9.9680    5.2430  -53.6780 C.2   143  DUD143      0.1242
      6  C6       -10.4600    4.9280  -54.9210 C.2   143  DUD143      0.0928
      7  O2       -10.3240    8.1680  -56.4180 O.2   143  DUD143     -0.1918
      8  O4        -8.9480    6.8640  -52.3070 O.2   143  DUD143     -0.2085
      9  C1'      -11.3220    5.6450  -57.0860 C.3   143  DUD143      0.2090
     10  C2'      -10.9760    4.3060  -57.6440 C.3   143  DUD143      0.0874
     11  C3'      -12.2940    3.5240  -57.3880 C.3   143  DUD143      0.1857
     12  C4'      -13.3930    4.5390  -57.3450 C.3   143  DUD143      0.1773
     13  O4'      -12.7440    5.6880  -56.7510 O.3   143  DUD143     -0.3339
     14  O3'      -12.4710    2.5090  -58.3960 O.3   143  DUD143     -0.2203
     15  C5'      -14.5560    4.0850  -56.4450 C.3   143  DUD143      0.1812
     16  O5'      -15.2250    2.9850  -57.0200 O.3   143  DUD143     -0.3111
     17  PA       -15.8130    1.8000  -56.1200 P.3   143  DUD143      0.2231
     18  O1A      -16.3220    1.0250  -57.3160 O.2   143  DUD143     -0.5169
     19  O2A      -16.5690    2.2980  -54.9070 O.3   143  DUD143     -0.4370
     20  O3A      -14.5840    1.0210  -55.4290 O.3   143  DUD143     -0.2261
     21  PB       -13.5080    0.0210  -56.0670 P.3   143  DUD143      0.5373
     22  O1B      -12.4320    0.2780  -55.0720 O.3   143  DUD143     -0.1143
     23  O2B      -13.1400    0.3680  -57.5090 O.2   143  DUD143     -0.2221
     24  O3B      -14.1840   -1.3870  -55.8190 O.3   143  DUD143     -0.1143
@<TRIPOS>BOND
     1    14    11    1
     2    10    11    1
     3    10     9    1
     4    23    21    2
     5    11    12    1
     6    12    13    1
     7    12    15    1
     8    18    17    2
     9     9    13    1
    10     9     1    1
    11    16    15    1
    12    16    17    1
    13     7     2    2
    14    17    20    1
    15    17    19    1
    16    21    24    1
    17    21    20    1
    18    21    22    1
    19     1     2   am
    20     1     6    1
    21     2     3    2
    22     6     5    2
    23     3     4    2
    24     5     4    1
    25     4     8    2
