@<TRIPOS>MOLECULE
2y1w_SFG_A_1.pdb
 27 29 0 0 0
SMALL
GASTEIGER

@<TRIPOS>ATOM
      1  N         23.0050  -38.2040  -71.7550 N.3   1001  SFG1001    -0.1208
      2  CA        24.0270  -37.1490  -71.3040 C.3   1001  SFG1001     0.1944
      3  C         23.2660  -35.9560  -70.6500 C.2   1001  SFG1001     0.3819
      4  O         22.1160  -35.7660  -71.0770 O.co2 1001  SFG1001    -0.2441
      5  OXT       23.9180  -35.3350  -69.7810 O.co2 1001  SFG1001    -0.2441
      6  CB        24.9070  -36.7120  -72.4950 C.3   1001  SFG1001     0.0321
      7  CG        24.1120  -36.1260  -73.6770 C.3   1001  SFG1001     0.0212
      8  CD        24.9850  -35.3470  -74.6830 C.3   1001  SFG1001     0.0944
      9  NE        24.0990  -34.2590  -75.2680 N.3   1001  SFG1001    -0.1328
     10  C5'       25.4860  -36.1680  -75.8780 C.3   1001  SFG1001     0.0514
     11  C4'       26.2540  -37.4750  -75.6110 C.3   1001  SFG1001     0.1537
     12  O4'       25.9370  -38.3980  -76.6570 O.3   1001  SFG1001    -0.3161
     13  C3'       27.8110  -37.3460  -75.5620 C.3   1001  SFG1001     0.2159
     14  O3'       28.3710  -37.9100  -74.3600 O.3   1001  SFG1001    -0.2175
     15  C2'       28.2790  -38.1120  -76.8090 C.3   1001  SFG1001     0.2569
     16  O2'       29.5810  -38.7050  -76.8010 O.3   1001  SFG1001    -0.2130
     17  C1'       27.1260  -39.0900  -76.9990 C.3   1001  SFG1001     0.3185
     18  N9        26.9450  -39.5910  -78.3740 N.pl3 1001  SFG1001    -0.1439
     19  C8        26.7490  -38.9140  -79.5640 C.3   1001  SFG1001     0.3377
     20  N7        26.5550  -39.6490  -80.6310 N.2   1001  SFG1001    -0.2095
     21  C5        26.6160  -40.9070  -80.2090 C.2   1001  SFG1001     0.2526
     22  C6        26.4880  -42.1320  -80.8580 C.2   1001  SFG1001     0.4393
     23  N6        26.2540  -42.3170  -82.1940 N.pl3 1001  SFG1001     0.2180
     24  N1        26.6220  -43.2670  -80.0260 N.2   1001  SFG1001     0.0021
     25  C2        26.8600  -43.1550  -78.6920 C.3   1001  SFG1001     0.5254
     26  N3        26.9920  -41.9450  -78.0200 N.2   1001  SFG1001    -0.0055
     27  C4        26.8570  -40.8950  -78.8420 C.2   1001  SFG1001     0.3518
@<TRIPOS>BOND
     1    23    22    1
     2    22    21    1
     3    22    24    2
     4    20    21    2
     5    20    19    1
     6    21    27    1
     7    24    25    1
     8    19    18    1
     9    27    18    1
    10    27    26    2
    11    25    26    1
    12    18    17    1
    13    17    15    1
    14    17    12    1
    15    15    16    1
    16    15    13    1
    17    12    11    1
    18    10    11    1
    19    10     8    1
    20    11    13    1
    21    13    14    1
    22     9     8    1
    23     8     7    1
    24     7     6    1
    25     6     2    1
    26     1     2    1
    27     2     3    1
    28     4     3   ar
    29     3     5   ar
