@<TRIPOS>MOLECULE
2y1w_849_A_1.pdb
 28 31 0 0 0
SMALL
GASTEIGER

@<TRIPOS>ATOM
      1  C1        28.8430  -28.9630  -78.6770 C.ar  1005  8491005     0.0006
      2  C2        28.2160  -27.6680  -78.4820 C.ar  1005  8491005    -0.0222
      3  C3        28.3160  -26.6770  -79.5130 C.ar  1005  8491005    -0.0016
      4  C4        29.0100  -26.9200  -80.7160 C.ar  1005  8491005     0.0318
      5  C5        29.5490  -29.2090  -79.8970 C.ar  1005  8491005     0.0593
      6  C6        29.6270  -28.1870  -80.9030 C.ar  1005  8491005     0.1337
      7  N7        30.3600  -28.6350  -81.9940 N.2   1005  8491005    -0.3994
      8  C8        30.7720  -29.9790  -81.6790 C.2   1005  8491005     0.1616
      9  C9        30.2500  -30.3120  -80.3740 C.2   1005  8491005     0.1719
     10  C10       31.5700  -30.8040  -82.5640 C.ar  1005  8491005     0.0658
     11  C11       27.4460  -27.3520  -77.1490 C.3   1005  8491005     0.0251
     12  C12       27.6330  -28.3820  -75.9620 C.3   1005  8491005     0.0217
     13  C13       26.6630  -29.6170  -75.9280 C.3   1005  8491005     0.0725
     14  N14       25.2030  -29.2370  -76.2010 N.3   1005  8491005    -0.2714
     15  C15       25.0290  -28.3930  -77.4450 C.3   1005  8491005     0.0725
     16  C16       25.9070  -27.1120  -77.3760 C.3   1005  8491005     0.0217
     17  C17       24.2700  -30.4660  -76.2170 C.3   1005  8491005     0.0911
     18  C18       24.7380  -31.5930  -77.1830 C.3   1005  8491005     0.1060
     19  N19       23.7030  -32.6670  -77.3380 N.3   1005  8491005    -0.2151
     20  C20       23.9280  -33.5950  -78.4870 C.3   1005  8491005     0.1075
     21  C21       31.1790  -31.0230  -83.9470 C.ar  1005  8491005     0.1412
     22  C22       32.0110  -31.8490  -84.7950 C.ar  1005  8491005     0.0370
     23  C23       33.1980  -32.4470  -84.2920 C.ar  1005  8491005     0.0031
     24  C24       33.5830  -32.2370  -82.9460 C.ar  1005  8491005     0.0003
     25  C25       32.7900  -31.4330  -82.0950 C.ar  1005  8491005     0.0056
     26  O26       29.9800  -30.4090  -84.4120 O.3   1005  8491005    -0.4713
     27  C27       29.2730  -30.6490  -85.6630 C.3   1005  8491005     0.2525
     28  F28       30.4050  -31.4910  -79.7010 F     1005  8491005    -0.2014
@<TRIPOS>BOND
     1    27    26    1
     2    22    23   ar
     3    22    21   ar
     4    26    21    1
     5    23    24   ar
     6    21    10   ar
     7    24    25   ar
     8    10    25   ar
     9    10     8    1
    10     7     8    2
    11     7     6    2
    12     8     9    1
    13     6     4   ar
    14     6     5   ar
    15     4     3   ar
    16     9     5    2
    17     9    28    1
    18     5     1   ar
    19     3     2   ar
    20     1     2   ar
    21    20    19    1
    22     2    11    1
    23    15    16    1
    24    15    14    1
    25    16    11    1
    26    19    18    1
    27    18    17    1
    28    11    12    1
    29    17    14    1
    30    14    13    1
    31    12    13    1
