@<TRIPOS>MOLECULE
2y1x_845_A_1.pdb
 36 40 0 0 0
SMALL
GASTEIGER

@<TRIPOS>ATOM
      1  N1        28.9580  -25.9960  -74.6220 N.ar  1002  8451002    -0.2251
      2  C2        29.9680  -25.1800  -75.1490 C.ar  1002  8451002     0.1391
      3  C3        30.0290  -24.0560  -74.3260 C.ar  1002  8451002     0.0488
      4  C4        29.0720  -24.2030  -73.3310 C.ar  1002  8451002     0.1741
      5  N5        28.4350  -25.3920  -73.5320 N.ar  1002  8451002    -0.1610
      6  C6        28.5420  -27.1350  -75.0400 C.ar  1002  8451002     0.0827
      7  C7        29.0850  -28.3230  -74.4510 C.ar  1002  8451002     0.0191
      8  C8        28.6430  -29.5820  -74.8640 C.ar  1002  8451002     0.0013
      9  C9        27.6560  -29.6800  -75.8620 C.ar  1002  8451002    -0.0025
     10  C10       27.0850  -28.5110  -76.4810 C.ar  1002  8451002     0.0009
     11  C11       27.5290  -27.2350  -76.0690 C.ar  1002  8451002     0.0166
     12  C12       30.8000  -25.3530  -76.2930 C.ar  1002  8451002     0.2676
     13  C13       25.9910  -28.6630  -77.5760 C.3   1002  8451002     0.1416
     14  N14       25.3620  -30.0220  -77.7100 N.am  1002  8451002    -0.1993
     15  C15       28.7400  -23.2340  -72.2010 C.3   1002  8451002     0.4366
     16  F16       29.8390  -22.7040  -71.6260 F     1002  8451002    -0.1643
     17  F17       28.0390  -23.8750  -71.2430 F     1002  8451002    -0.1643
     18  F18       27.9810  -22.2260  -72.6650 F     1002  8451002    -0.1643
     19  C19       24.5290  -30.5530  -76.7770 C.2   1002  8451002     0.2591
     20  C20       24.2720  -32.0760  -76.8220 C.3   1002  8451002     0.1694
     21  O21       23.9920  -29.8650  -75.9030 O.2   1002  8451002    -0.2718
     22  N22       22.9040  -32.3310  -76.3550 N.3   1002  8451002    -0.1231
     23  C23       24.4190  -32.6900  -78.2400 C.3   1002  8451002     0.0304
     24  N24       32.1330  -25.0730  -76.4240 N.ar  1002  8451002    -0.1053
     25  N25       32.5060  -25.3760  -77.6830 N.ar  1002  8451002    -0.1069
     26  C26       31.4120  -25.8520  -78.3670 C.ar  1002  8451002     0.2500
     27  O27       30.3670  -25.8300  -77.4840 O.2   1002  8451002    -0.4143
     28  C28       31.3170  -26.2740  -79.7090 C.ar  1002  8451002     0.0563
     29  C29       32.0930  -25.5830  -80.7250 C.ar  1002  8451002     0.0048
     30  C30       32.0300  -25.9370  -82.1130 C.ar  1002  8451002     0.0017
     31  C31       31.2000  -26.9840  -82.5570 C.ar  1002  8451002     0.0187
     32  C32       30.4100  -27.7040  -81.5830 C.ar  1002  8451002     0.0763
     33  C33       30.4610  -27.3610  -80.1750 C.ar  1002  8451002     0.0195
     34  C34       29.6020  -28.2300  -79.5170 C.2   1002  8451002     0.0016
     35  C35       29.0530  -29.0720  -80.4950 C.3   1002  8451002     0.1516
     36  N36       29.5350  -28.7620  -81.7890 N.2   1002  8451002    -0.2656
@<TRIPOS>BOND
     1    31    30   ar
     2    31    32   ar
     3    30    29   ar
     4    36    32    2
     5    36    35    1
     6    32    33   ar
     7    29    28   ar
     8    35    34    1
     9    33    28   ar
    10    33    34    2
    11    28    26    1
    12    26    25   ar
    13    26    27   ar
    14    23    20    1
    15    14    13    1
    16    14    19   am
    17    25    24   ar
    18    13    10    1
    19    27    12   ar
    20    20    19    1
    21    20    22    1
    22    19    21    2
    23    10    11   ar
    24    10     9   ar
    25    24    12   ar
    26    12     2    1
    27    11     6   ar
    28     9     8   ar
    29     2     1   ar
    30     2     3   ar
    31     6     1    1
    32     6     7   ar
    33     8     7   ar
    34     1     5   ar
    35     3     4   ar
    36     5     4   ar
    37     4    15    1
    38    18    15    1
    39    15    16    1
    40    15    17    1
