@<TRIPOS>MOLECULE
2y1x_SAH_A_1.pdb
 26 28 0 0 0
SMALL
GASTEIGER

@<TRIPOS>ATOM
      1  N         23.0740  -37.7310  -71.9230 N.3   1001  SAH1001    -0.1208
      2  CA        24.1080  -36.7320  -71.4020 C.3   1001  SAH1001     0.1952
      3  CB        25.0320  -36.2910  -72.5480 C.3   1001  SAH1001     0.0422
      4  CG        24.2590  -35.5910  -73.7000 C.3   1001  SAH1001     0.0597
      5  SD        25.4040  -34.8510  -74.8870 S.3   1001  SAH1001    -0.1375
      6  C         23.3710  -35.5300  -70.7270 C.2   1001  SAH1001     0.3819
      7  O         22.1930  -35.3890  -71.0310 O.co2 1001  SAH1001    -0.2441
      8  OXT       24.0730  -34.8520  -69.9720 O.co2 1001  SAH1001    -0.2441
      9  C5'       25.5150  -36.1480  -76.1540 C.3   1001  SAH1001     0.0899
     10  C4'       26.2560  -37.4100  -75.7160 C.3   1001  SAH1001     0.1630
     11  O4'       25.9580  -38.4350  -76.6340 O.3   1001  SAH1001    -0.3153
     12  C3'       27.8010  -37.2690  -75.6530 C.3   1001  SAH1001     0.2168
     13  O3'       28.3610  -37.8560  -74.4710 O.3   1001  SAH1001    -0.2175
     14  C2'       28.2700  -37.9920  -76.9240 C.3   1001  SAH1001     0.2569
     15  O2'       29.5800  -38.5380  -76.9830 O.3   1001  SAH1001    -0.2130
     16  C1'       27.1710  -39.0100  -77.0930 C.3   1001  SAH1001     0.3185
     17  N9        26.9240  -39.4520  -78.4690 N.pl3 1001  SAH1001    -0.1439
     18  C8        26.7580  -38.7400  -79.6480 C.3   1001  SAH1001     0.3377
     19  N7        26.5380  -39.4580  -80.7410 N.2   1001  SAH1001    -0.2095
     20  C5        26.5430  -40.7220  -80.3290 C.2   1001  SAH1001     0.2526
     21  C6        26.3780  -41.9190  -80.9900 C.2   1001  SAH1001     0.4393
     22  N6        26.1370  -42.0840  -82.3230 N.pl3 1001  SAH1001     0.2180
     23  N1        26.4580  -43.0560  -80.1690 N.2   1001  SAH1001     0.0021
     24  C2        26.6960  -42.9730  -78.8460 C.3   1001  SAH1001     0.5254
     25  N3        26.8720  -41.7840  -78.1620 N.2   1001  SAH1001    -0.0055
     26  C4        26.7920  -40.7360  -78.9650 C.2   1001  SAH1001     0.3518
@<TRIPOS>BOND
     1    22    21    1
     2    21    20    1
     3    21    23    2
     4    19    20    2
     5    19    18    1
     6    20    26    1
     7    23    24    1
     8    18    17    1
     9    26    17    1
    10    26    25    2
    11    24    25    1
    12    17    16    1
    13    16    14    1
    14    16    11    1
    15    15    14    1
    16    14    12    1
    17    11    10    1
    18     9    10    1
    19     9     5    1
    20    10    12    1
    21    12    13    1
    22     5     4    1
    23     4     3    1
    24     3     2    1
    25     1     2    1
    26     2     6    1
    27     7     6   ar
    28     6     8   ar
