@<TRIPOS>MOLECULE
2y24_GCV_A_1.pdb
 13 13 0 0 0
SMALL
GASTEIGER

@<TRIPOS>ATOM
      1  C7        34.5240  -39.6070   -2.7400 C.3   1004  GCV1004     0.1742
      2  C1        37.6130  -36.7170   -5.9530 C.3   1004  GCV1004     0.1783
      3  C2        37.1560  -36.2140   -4.5760 C.3   1004  GCV1004     0.2140
      4  C3        36.9360  -37.3590   -3.5640 C.3   1004  GCV1004     0.2145
      5  C4        35.9800  -38.3180   -4.1490 C.3   1004  GCV1004     0.1862
      6  C5        36.4040  -38.7570   -5.5340 C.3   1004  GCV1004     0.2479
      7  C6        35.3610  -39.6760   -6.1180 C.2   1004  GCV1004     0.3939
      8  O2        38.0710  -35.2210   -4.1240 O.3   1004  GCV1004    -0.2176
      9  O3        36.3680  -36.7900   -2.3790 O.3   1004  GCV1004    -0.2176
     10  O4        35.8590  -39.4060   -3.2650 O.3   1004  GCV1004    -0.3478
     11  O5        36.5950  -37.6280   -6.4100 O.3   1004  GCV1004    -0.3404
     12  O6A       34.3630  -39.1690   -6.6660 O.co2 1004  GCV1004    -0.2429
     13  O6B       35.5590  -40.9310   -6.0190 O.co2 1004  GCV1004    -0.2429
@<TRIPOS>BOND
     1    12     7   ar
     2    11     2    1
     3    11     6    1
     4     7    13   ar
     5     7     6    1
     6     2     3    1
     7     6     5    1
     8     3     8    1
     9     3     4    1
    10     5     4    1
    11     5    10    1
    12     4     9    1
    13    10     1    1
