@<TRIPOS>MOLECULE
2y24_XYP_A_1.pdb
 10 10 0 0 0
SMALL
GASTEIGER

@<TRIPOS>ATOM
      1  O4A       41.3260  -30.1540   -6.6370 O.3   1001  XYP1001    -0.1869
      2  C1B       40.3560  -31.0330   -7.1830 C.3   1001  XYP1001     0.3024
      3  C2B       41.1200  -31.8000   -8.3440 C.3   1001  XYP1001     0.2434
      4  C3B       40.4670  -33.1320   -8.6720 C.3   1001  XYP1001     0.2199
      5  C4B       40.3530  -33.9420   -7.4360 C.3   1001  XYP1001     0.2143
      6  C5B       39.4250  -33.1270   -6.4600 C.3   1001  XYP1001     0.1804
      7  O2B       41.1500  -30.9180   -9.4830 O.3   1001  XYP1001    -0.2148
      8  O3B       41.1820  -33.8870   -9.6440 O.3   1001  XYP1001    -0.2174
      9  O4B       39.6990  -35.2130   -7.6220 O.3   1001  XYP1001    -0.2176
     10  O5B       40.0280  -31.8380   -6.1350 O.3   1001  XYP1001    -0.3237
@<TRIPOS>BOND
     1     8     4    1
     2     7     3    1
     3     4     3    1
     4     4     5    1
     5     3     2    1
     6     9     5    1
     7     5     6    1
     8     2     1    1
     9     2    10    1
    10     6    10    1
