@<TRIPOS>MOLECULE
2y27_ATP_A_1.pdb
 31 33 0 0 0
SMALL
GASTEIGER

@<TRIPOS>ATOM
      1  PG       -18.3060   28.0970    9.0010 P.3   1440  ATP1440     0.5373
      2  O1G      -19.0100   27.7420   10.2710 O.3   1440  ATP1440    -0.1143
      3  O2G      -18.9080   27.4080    7.7980 O.2   1440  ATP1440    -0.2221
      4  O3G      -16.8200   27.8730    9.0610 O.3   1440  ATP1440    -0.1143
      5  PB       -17.5160   30.7330    8.1310 P.3   1440  ATP1440     0.2277
      6  O1B      -16.5130   30.0110    7.2920 O.2   1440  ATP1440    -0.5168
      7  O2B      -18.3620   31.8350    7.5090 O.3   1440  ATP1440    -0.4368
      8  O3B      -18.5830   29.6680    8.6990 O.3   1440  ATP1440    -0.2258
      9  PA       -15.7400   32.3660    9.7540 P.3   1440  ATP1440     0.2189
     10  O1A      -16.2620   33.4300   10.6710 O.3   1440  ATP1440    -0.4371
     11  O2A      -14.5410   31.6020   10.2270 O.2   1440  ATP1440    -0.5170
     12  O3A      -16.9340   31.3040    9.5270 O.3   1440  ATP1440    -0.2700
     13  O5'      -15.4820   32.9970    8.2970 O.3   1440  ATP1440    -0.3112
     14  C5'      -14.2410   32.8110    7.5940 C.3   1440  ATP1440     0.1813
     15  C4'      -14.5710   32.5710    6.1300 C.3   1440  ATP1440     0.1821
     16  O4'      -15.1430   33.7790    5.6180 O.3   1440  ATP1440    -0.3135
     17  C3'      -13.3510   32.3950    5.2370 C.3   1440  ATP1440     0.2184
     18  O3'      -12.8310   31.0640    5.2680 O.3   1440  ATP1440    -0.2174
     19  C2'      -13.8990   32.7690    3.8730 C.3   1440  ATP1440     0.2570
     20  O2'      -14.7130   31.7490    3.2840 O.3   1440  ATP1440    -0.2130
     21  C1'      -14.7830   33.9520    4.2430 C.3   1440  ATP1440     0.3186
     22  N9       -13.9710   35.1860    4.0890 N.pl3 1440  ATP1440    -0.1439
     23  C8       -13.3570   35.8990    5.0700 C.3   1440  ATP1440     0.3377
     24  N7       -12.6830   36.9660    4.5540 N.2   1440  ATP1440    -0.2095
     25  C5       -12.8360   36.9050    3.2090 C.2   1440  ATP1440     0.2526
     26  C6       -12.4610   37.7540    2.0580 C.2   1440  ATP1440     0.4393
     27  N6       -11.6250   38.7970    2.2600 N.pl3 1440  ATP1440     0.2180
     28  N1       -12.7260   37.2670    0.8170 N.2   1440  ATP1440     0.0021
     29  C2       -13.5980   36.2600    0.6280 C.3   1440  ATP1440     0.5254
     30  N3       -13.9810   35.4430    1.6230 N.2   1440  ATP1440    -0.0055
     31  C4       -13.7020   35.7680    2.9200 C.2   1440  ATP1440     0.3518
@<TRIPOS>BOND
     1    29    28    1
     2    29    30    1
     3    28    26    2
     4    30    31    2
     5    26    27    1
     6    26    25    1
     7    31    25    1
     8    31    22    1
     9    25    24    2
    10    20    19    1
    11    19    21    1
    12    19    17    1
    13    22    21    1
    14    22    23    1
    15    21    16    1
    16    24    23    1
    17    17    18    1
    18    17    15    1
    19    16    15    1
    20    15    14    1
    21     6     5    2
    22     7     5    1
    23    14    13    1
    24     3     1    2
    25     5     8    1
    26     5    12    1
    27    13     9    1
    28     8     1    1
    29     1     4    1
    30     1     2    1
    31    12     9    1
    32     9    11    2
    33     9    10    1
