@<TRIPOS>MOLECULE
2y2b_MHI_A_1.pdb
 27 26 0 0 0
SMALL
GASTEIGER

@<TRIPOS>ATOM
      1  C1       -37.1980   22.4770   -1.7900 C.3   1001  MHI1001     0.0304
      2  N1       -37.2820   22.4490    0.6270 N.3   1001  MHI1001    -0.1231
      3  O1       -38.8590   24.5150   -1.1800 O.2   1001  MHI1001    -0.2718
      4  C2       -36.9850   23.2600   -0.5350 C.3   1001  MHI1001     0.1694
      5  N2       -37.6470   25.4870    0.4890 N.am  1001  MHI1001    -0.1898
      6  O2       -37.1330   27.2640    2.5450 O.co2 1001  MHI1001    -0.2434
      7  C3       -37.8420   24.4890   -0.5270 C.2   1001  MHI1001     0.2596
      8  N3       -33.9070   29.6790   -2.3630 N.am  1001  MHI1001    -0.1918
      9  O3       -37.6880   28.9940    1.1900 O.co2 1001  MHI1001    -0.2434
     10  C4       -37.3330   26.8530    0.1480 C.3   1001  MHI1001     0.2199
     11  N4       -30.7460   30.4690   -6.4000 N.3   1001  MHI1001    -0.1208
     12  O4       -33.2200   27.7290   -1.2680 O.2   1001  MHI1001    -0.2684
     13  C5       -37.3930   27.7530    1.4180 C.2   1001  MHI1001     0.3884
     14  O5       -32.6210   31.4680   -0.8020 O.co2 1001  MHI1001    -0.2437
     15  C6       -35.8960   26.9370   -0.3370 C.2   1001  MHI1001     0.0112
     16  O6       -30.6430   31.2320   -1.8720 O.co2 1001  MHI1001    -0.2437
     17  C7       -35.5910   28.0830   -1.2970 C.2   1001  MHI1001     0.0572
     18  O7       -33.0070   31.2200   -9.1330 O.co2 1001  MHI1001    -0.2441
     19  C8       -34.1530   28.4270   -1.6450 C.2   1001  MHI1001     0.2651
     20  O8       -30.7950   31.1220   -9.0350 O.co2 1001  MHI1001    -0.2441
     21  C9       -32.5650   30.0210   -2.7500 C.3   1001  MHI1001     0.1981
     22  C10      -31.9450   31.0010   -1.7170 C.2   1001  MHI1001     0.3842
     23  C11      -32.5460   30.6190   -4.1520 C.3   1001  MHI1001     0.0334
     24  C12      -33.6610   30.2390   -5.0940 C.3   1001  MHI1001     0.0044
     25  C13      -33.3490   30.2970   -6.5670 C.3   1001  MHI1001     0.0307
     26  C15      -31.9300   31.1550   -8.5180 C.2   1001  MHI1001     0.3819
     27  C14      -32.0160   31.1110   -6.9730 C.3   1001  MHI1001     0.1943
@<TRIPOS>BOND
     1    18    26   ar
     2    20    26   ar
     3    26    27    1
     4    27    25    1
     5    27    11    1
     6    25    24    1
     7    24    23    1
     8    23    21    1
     9    21     8    1
    10    21    22    1
    11     8    19   am
    12    16    22   ar
    13     1     4    1
    14    22    14   ar
    15    19    17    1
    16    19    12    2
    17    17    15    2
    18     3     7    2
    19     4     7    1
    20     4     2    1
    21     7     5   am
    22    15    10    1
    23    10     5    1
    24    10    13    1
    25     9    13   ar
    26    13     6   ar
