@<TRIPOS>MOLECULE
2y2b_AH0_A_1.pdb
 19 20 0 0 0
SMALL
GASTEIGER

@<TRIPOS>ATOM
      1  C1       -44.8140   23.8420   -0.2620 C.3   1000  AH01000     0.2585
      2  C2       -44.1630   24.0340    1.1210 C.3   1000  AH01000     0.1810
      3  N2       -44.0610   25.5180    1.3080 N.am  1000  AH01000    -0.1994
      4  C7       -43.7710   26.1820    2.5060 C.2   1000  AH01000     0.2420
      5  O7       -42.8480   27.0600    2.4860 O.2   1000  AH01000    -0.2733
      6  C8       -44.8620   26.3940    3.5080 C.3   1000  AH01000     0.0964
      7  C3       -42.6570   23.5810    0.9120 C.3   1000  AH01000     0.1734
      8  O3       -41.9880   23.1760    2.0540 O.3   1000  AH01000    -0.3429
      9  C4       -41.9860   23.5100   -0.5390 C.3   1000  AH01000     0.2102
     10  O4       -41.2640   24.7450   -0.5330 O.3   1000  AH01000    -0.2178
     11  C5       -43.0130   23.6990   -1.6730 C.3   1000  AH01000     0.1800
     12  O5       -44.0530   24.5790   -1.2400 O.3   1000  AH01000    -0.3263
     13  C6       -43.8540   22.4180   -1.7920 C.3   1000  AH01000     0.1770
     14  O6       -44.7240   22.4890   -0.6930 O.3   1000  AH01000    -0.3265
     15  CA       -41.5530   22.1940    2.9410 C.3   1000  AH01000     0.2178
     16  CB       -42.4300   21.3290    3.8460 C.3   1000  AH01000     0.0444
     17  C        -40.0000   21.7640    2.8540 C.2   1000  AH01000     0.3913
     18  O        -39.6420   20.6150    2.9260 O.co2 1000  AH01000    -0.2430
     19  OXT      -39.2450   22.7450    2.6930 O.co2 1000  AH01000    -0.2430
@<TRIPOS>BOND
     1    13    11    1
     2    13    14    1
     3    11    12    1
     4    11     9    1
     5    12     1    1
     6    14     1    1
     7     9    10    1
     8     9     7    1
     9     1     2    1
    10     7     2    1
    11     7     8    1
    12     2     3    1
    13     3     4   am
    14     8    15    1
    15     5     4    2
    16     4     6    1
    17    19    17   ar
    18    17    18   ar
    19    17    15    1
    20    15    16    1
