@<TRIPOS>MOLECULE
2y2f_YI1_A_1.pdb
 22 23 0 0 0
SMALL
GASTEIGER

@<TRIPOS>ATOM
      1  FAG       -4.6920    9.8100  -26.8070 F     1469  YI11469    -0.1920
      2  CAE       -4.3990    9.1700  -25.6680 C.3   1469  YI11469     0.3249
      3  FAF       -3.8490    7.9860  -25.8780 F     1469  YI11469    -0.1920
      4  PAB       -5.9700    8.8060  -24.7300 P.3   1469  YI11469     0.1831
      5  OAC       -5.4970    8.2190  -23.4340 O.3   1469  YI11469    -0.3533
      6  OAA       -6.7690   10.1210  -24.5620 O.3   1469  YI11469    -0.3533
      7  OAD       -6.5980    7.7880  -25.6660 O.2   1469  YI11469    -0.4543
      8  CAH       -3.3560   10.0430  -24.9770 C.ar  1469  YI11469     0.0444
      9  CAJ       -2.5710    9.5500  -23.9380 C.ar  1469  YI11469     0.0014
     10  CAK       -1.6270   10.3800  -23.3360 C.ar  1469  YI11469    -0.0001
     11  CAL       -1.4360   11.6910  -23.7880 C.ar  1469  YI11469    -0.0000
     12  CAM       -2.1770   12.1950  -24.8520 C.ar  1469  YI11469    -0.0001
     13  CAI       -3.1410   11.3520  -25.4430 C.ar  1469  YI11469     0.0014
     14  CAN       -1.9790   13.5150  -25.3270 C.ar  1469  YI11469    -0.0000
     15  CAQ       -2.6920   13.9870  -26.4330 C.ar  1469  YI11469    -0.0002
     16  CAR       -2.5420   15.2760  -26.9210 C.ar  1469  YI11469    -0.0018
     17  CAS       -1.6340   16.1430  -26.3480 C.ar  1469  YI11469     0.0095
     18  CAP       -0.8970   15.6990  -25.2500 C.ar  1469  YI11469    -0.0018
     19  CAO       -1.0590   14.4050  -24.7450 C.ar  1469  YI11469    -0.0002
     20  CAT       -1.5380   17.5360  -26.9370 C.3   1469  YI11469     0.1964
     21  OAU       -0.1890   17.9560  -27.0350 O.3   1469  YI11469    -0.2440
     22  NAV        0.6170   18.1030  -25.8420 N.3   1469  YI11469     0.0422
@<TRIPOS>BOND
     1    21    20    1
     2    21    22    1
     3    20    17    1
     4    16    15   ar
     5    16    17   ar
     6     1     2    1
     7    15    14   ar
     8    17    18   ar
     9     3     2    1
    10     2     8    1
    11     2     4    1
    12     7     4    2
    13    13     8   ar
    14    13    12   ar
    15    14    12    1
    16    14    19   ar
    17    18    19   ar
    18     8     9   ar
    19    12    11   ar
    20     4     6    1
    21     4     5    1
    22     9    10   ar
    23    11    10   ar
