@<TRIPOS>MOLECULE
2y2g_A01_A_1.pdb
 17 17 0 0 0
SMALL
GASTEIGER

@<TRIPOS>ATOM
      1  O6         5.9640   83.1410  -29.3160 O.2   1000  A011000     0.0000
      2  C5         5.8140   83.8610  -28.3290 C.2   1000  A011000     0.0000
      3  N4         6.8040   84.5910  -27.7540 N.am  1000  A011000     0.0000
      4  C3         8.1110   84.5680  -28.1430 C.3   1000  A011000     0.0000
      5  B          9.0240   84.7430  -26.8670 B     1000  A011000     0.0000
      6  O1         8.8780   83.4990  -25.9520 O.3   1000  A011000     0.0000
      7  O2         8.5440   85.9860  -26.0940 O.3   1000  A011000     0.0000
      8  C7         4.4320   84.0330  -27.6780 C.ar  1000  A011000     0.0000
      9  C8         4.1060   85.2500  -27.0640 C.ar  1000  A011000     0.0000
     10  O9         5.0700   86.2210  -26.9020 O.3   1000  A011000     0.0000
     11  C10        4.7570   87.6150  -26.9250 C.3   1000  A011000     0.0000
     12  C11        2.8060   85.4760  -26.6070 C.ar  1000  A011000     0.0000
     13  C12        1.8340   84.4880  -26.7450 C.ar  1000  A011000     0.0000
     14  C13        2.1570   83.2760  -27.3460 C.ar  1000  A011000     0.0000
     15  C14        3.4470   83.0540  -27.8210 C.ar  1000  A011000     0.0000
     16  O15        3.7250   81.8390  -28.3750 O.3   1000  A011000     0.0000
     17  C15        3.0120   80.7040  -27.8690 C.3   1000  A011000     0.0000
@<TRIPOS>BOND
     1     1     2    2
     2    16    17    1
     3    16    15    1
     4     2     3   am
     5     2     8    1
     6     4     3    1
     7     4     5    1
     8    15     8   ar
     9    15    14   ar
    10     8     9   ar
    11    14    13   ar
    12     9    10    1
    13     9    12   ar
    14    11    10    1
    15     5     7    1
    16     5     6    1
    17    13    12   ar
