@<TRIPOS>MOLECULE
2y2h_ZA2_A_1.pdb
 14 14 0 0 0
SMALL
GASTEIGER

@<TRIPOS>ATOM
      1  O6        87.6810   69.0070   62.8620 O.2   1000  ZA21000     0.0000
      2  C5        87.6540   68.2580   61.8980 C.2   1000  ZA21000     0.0000
      3  N4        86.5140   68.0730   61.1550 N.am  1000  ZA21000     0.0000
      4  C3        85.2290   68.7770   61.2040 C.3   1000  ZA21000     0.0000
      5  B         84.3060   68.4020   59.9880 B     1000  ZA21000     0.0000
      6  O2        83.0600   69.3000   59.9360 O.3   1000  ZA21000     0.0000
      7  O1        85.0970   68.5260   58.6730 O.3   1000  ZA21000     0.0000
      8  C7        88.8640   67.3860   61.5240 C.ar  1000  ZA21000     0.0000
      9  C14       89.7460   66.9160   62.4980 C.ar  1000  ZA21000     0.0000
     10 CL         89.2130   66.7920   64.1700 Cl    1000  ZA21000     0.0000
     11  C8        89.3950   67.5170   60.2400 C.ar  1000  ZA21000     0.0000
     12  C11       90.6410   66.9810   59.9100 C.ar  1000  ZA21000     0.0000
     13  C12       91.4650   66.4370   60.8910 C.ar  1000  ZA21000     0.0000
     14  C13       91.0030   66.3950   62.2010 C.ar  1000  ZA21000     0.0000
@<TRIPOS>BOND
     1     7     5    1
     2    12    11   ar
     3    12    13   ar
     4     6     5    1
     5     5     4    1
     6    11     8   ar
     7    13    14   ar
     8     3     4    1
     9     3     2   am
    10     8     2    1
    11     8     9   ar
    12     2     1    2
    13    14     9   ar
    14     9    10    1
