@<TRIPOS>MOLECULE
2y2i_ZA3_A_1.pdb
 16 16 0 0 0
SMALL
GASTEIGER

@<TRIPOS>ATOM
      1  O6         8.2790    7.1650   40.9630 O.2   1000  ZA31000     0.0000
      2  C5         9.1320    8.0470   40.9080 C.2   1000  ZA31000     0.0000
      3  N4         9.5510    8.6600   39.7470 N.am  1000  ZA31000     0.0000
      4  C3         8.9960    8.7140   38.5040 C.3   1000  ZA31000     0.0000
      5  B          9.1870   10.1100   37.8100 B     1000  ZA31000     0.0000
      6  O2         8.3420   10.1410   36.5260 O.3   1000  ZA31000     0.0000
      7  O1         8.8180   11.2640   38.7570 O.3   1000  ZA31000     0.0000
      8  C7         9.9560    8.3360   42.1700 C.ar  1000  ZA31000     0.0000
      9  C14       10.2770    7.3180   43.0730 C.ar  1000  ZA31000     0.0000
     10  N15       10.1800    5.9180   42.6890 N.pl3 1000  ZA31000     0.0000
     11  O16       10.1750    5.1900   41.4280 O.2   1000  ZA31000     0.0000
     12  O17       10.0740    4.8030   43.6410 O.2   1000  ZA31000     0.0000
     13  C8         9.9600    9.6520   42.6310 C.ar  1000  ZA31000     0.0000
     14  C11       10.6130    9.9750   43.8210 C.ar  1000  ZA31000     0.0000
     15  C12       11.1040    8.9630   44.6470 C.ar  1000  ZA31000     0.0000
     16  C13       10.9420    7.6370   44.2560 C.ar  1000  ZA31000     0.0000
@<TRIPOS>BOND
     1     6     5    1
     2     5     4    1
     3     5     7    1
     4     4     3    1
     5     3     2   am
     6     2     1    2
     7     2     8    1
     8    11    10    2
     9     8    13   ar
    10     8     9   ar
    11    13    14   ar
    12    10     9    1
    13    10    12    2
    14     9    16   ar
    15    14    15   ar
    16    16    15   ar
