@<TRIPOS>MOLECULE
2y2j_ZA4_A_1.pdb
 14 14 0 0 0
SMALL
GASTEIGER

@<TRIPOS>ATOM
      1  F9         9.8710   10.6580   41.8750 F     1000  ZA41000     0.0000
      2  C8        10.1010    9.4830   42.4860 C.ar  1000  ZA41000     0.0000
      3  C11       10.7360    9.5100   43.7140 C.ar  1000  ZA41000     0.0000
      4  C12       11.0160    8.3250   44.3760 C.ar  1000  ZA41000     0.0000
      5  C13       10.6690    7.0940   43.8190 C.ar  1000  ZA41000     0.0000
      6  C14       10.0300    7.0640   42.5900 C.ar  1000  ZA41000     0.0000
      7  C7         9.7900    8.2450   41.9120 C.ar  1000  ZA41000     0.0000
      8  C5         8.8940    8.1390   40.7590 C.2   1000  ZA41000     0.0000
      9  O6         8.0090    7.3230   40.7840 O.2   1000  ZA41000     0.0000
     10  N4         9.3870    8.8160   39.5730 N.am  1000  ZA41000     0.0000
     11  C3         8.7160    8.9280   38.2950 C.3   1000  ZA41000     0.0000
     12  B          9.1300   10.2290   37.5270 B     1000  ZA41000     0.0000
     13  O1         9.0180   11.4190   38.4890 O.3   1000  ZA41000     0.0000
     14  O2         8.2260   10.3940   36.2980 O.3   1000  ZA41000     0.0000
@<TRIPOS>BOND
     1    14    12    1
     2    12    11    1
     3    12    13    1
     4    11    10    1
     5    10     8   am
     6     8     9    2
     7     8     7    1
     8     1     2    1
     9     7     2   ar
    10     7     6   ar
    11     2     3   ar
    12     6     5   ar
    13     3     4   ar
    14     5     4   ar
