@<TRIPOS>MOLECULE
2y2k_ZA5_A_1.pdb
 15 15 0 0 0
SMALL
GASTEIGER

@<TRIPOS>ATOM
      1  F15       -9.6450    6.0470    6.6970 F     1000  ZA51000     0.0000
      2  C14       -9.9210    7.2090    6.0690 C.ar  1000  ZA51000     0.0000
      3  C13      -10.5390    7.2850    4.8120 C.ar  1000  ZA51000     0.0000
      4  C12      -10.8190    8.5220    4.1920 C.ar  1000  ZA51000     0.0000
      5  C11      -10.4960    9.6960    4.8550 C.ar  1000  ZA51000     0.0000
      6  C8        -9.8810    9.6330    6.1180 C.ar  1000  ZA51000     0.0000
      7  F9        -9.5690   10.7790    6.7640 F     1000  ZA51000     0.0000
      8  C7        -9.6480    8.3910    6.7440 C.ar  1000  ZA51000     0.0000
      9  C5        -8.8910    8.2610    8.0670 C.2   1000  ZA51000     0.0000
     10  O6        -7.9280    7.5240    8.0490 O.2   1000  ZA51000     0.0000
     11  N4        -9.3760    8.9450    9.1740 N.am  1000  ZA51000     0.0000
     12  C3        -8.7430    8.9910   10.3970 C.3   1000  ZA51000     0.0000
     13  B         -9.0150   10.3710   11.1050 B     1000  ZA51000     0.0000
     14  O1        -8.8580   11.5820   10.1650 O.3   1000  ZA51000     0.0000
     15  O2        -8.1640   10.5200   12.3760 O.3   1000  ZA51000     0.0000
@<TRIPOS>BOND
     1     4     3   ar
     2     4     5   ar
     3     3     2   ar
     4     5     6   ar
     5     2     1    1
     6     2     8   ar
     7     6     8   ar
     8     6     7    1
     9     8     9    1
    10    10     9    2
    11     9    11   am
    12    11    12    1
    13    14    13    1
    14    12    13    1
    15    13    15    1
