@<TRIPOS>MOLECULE
2y2l_E06_A_1.pdb
 16 16 0 0 0
SMALL
GASTEIGER

@<TRIPOS>ATOM
      1  O6        56.1940   82.9690   63.9410 O.2   1000  E061000     0.0000
      2  C5        56.1190   83.7310   62.9960 C.2   1000  E061000     0.0000
      3  N4        57.3760   83.9670   62.3070 N.am  1000  E061000     0.0000
      4  C3        58.5440   83.0720   62.2190 C.3   1000  E061000     0.0000
      5  B         59.3260   83.4580   60.9930 B     1000  E061000     0.0000
      6  O2        60.5730   82.5910   60.8060 O.3   1000  E061000     0.0000
      7  O1        58.4640   83.3380   59.7240 O.3   1000  E061000     0.0000
      8  C16       58.1050   81.6490   62.1690 C.3   1000  E061000     0.0000
      9  C7        54.8270   84.4500   62.7670 C.ar  1000  E061000     0.0000
     10  C14       54.1280   84.9970   63.8560 C.ar  1000  E061000     0.0000
     11  F15       54.6910   84.9730   65.0820 F     1000  E061000     0.0000
     12  C8        54.1850   84.5130   61.5110 C.ar  1000  E061000     0.0000
     13  F9        54.7800   83.9730   60.4380 F     1000  E061000     0.0000
     14  C11       52.9280   85.1270   61.3230 C.ar  1000  E061000     0.0000
     15  C12       52.2730   85.7160   62.4060 C.ar  1000  E061000     0.0000
     16  C13       52.8780   85.6260   63.6750 C.ar  1000  E061000     0.0000
@<TRIPOS>BOND
     1     7     5    1
     2    13    12    1
     3     6     5    1
     4     5     4    1
     5    14    12   ar
     6    14    15   ar
     7    12     9   ar
     8     8     4    1
     9     4     3    1
    10     3     2   am
    11    15    16   ar
    12     9     2    1
    13     9    10   ar
    14     2     1    2
    15    16    10   ar
    16    10    11    1
