@<TRIPOS>MOLECULE
2y2m_E08_A_1.pdb
 17 17 0 0 0
SMALL
GASTEIGER

@<TRIPOS>ATOM
      1  O6         6.1780    6.7320  -10.5150 O.2   1000  E081000     0.0000
      2  C5         6.0430    7.9570  -10.4060 C.2   1000  E081000     0.0000
      3  N4         7.0110    8.8590  -10.5970 N.am  1000  E081000     0.0000
      4  C3         8.4220    8.6160  -10.9650 C.3   1000  E081000     0.0000
      5  B          9.0280    9.9370  -11.3780 B     1000  E081000     0.0000
      6  O2         8.3550   10.2410  -12.7270 O.3   1000  E081000     0.0000
      7  O1         8.5660   11.0620  -10.4350 O.3   1000  E081000     0.0000
      8  C16        9.2300    7.8490   -9.8920 C.3   1000  E081000     0.0000
      9  C7         4.6790    8.5090  -10.1360 C.ar  1000  E081000     0.0000
     10  C14        4.2810    8.7650   -8.8100 C.ar  1000  E081000     0.0000
     11  C8         3.8340    8.7750  -11.2290 C.ar  1000  E081000     0.0000
     12  C9         4.2940    8.5290  -12.6370 C.3   1000  E081000     0.0000
     13  C18        5.1070    9.7170  -13.1750 C.3   1000  E081000     0.0000
     14  C17        3.1180    8.1990  -13.5740 C.3   1000  E081000     0.0000
     15  C11        2.5330    9.2530  -11.0010 C.ar  1000  E081000     0.0000
     16  C12        2.1210    9.4960   -9.6890 C.ar  1000  E081000     0.0000
     17  C13        2.9770    9.2390   -8.6040 C.ar  1000  E081000     0.0000
@<TRIPOS>BOND
     1    14    12    1
     2    13    12    1
     3     6     5    1
     4    12    11    1
     5     5     4    1
     6     5     7    1
     7    11    15   ar
     8    11     9   ar
     9    15    16   ar
    10     4     3    1
    11     4     8    1
    12     3     2   am
    13     1     2    2
    14     2     9    1
    15     9    10   ar
    16    16    17   ar
    17    10    17   ar
