@<TRIPOS>MOLECULE
2y2n_E07_A_1.pdb
 21 22 0 0 0
SMALL
GASTEIGER

@<TRIPOS>ATOM
      1  O2         8.1110   10.3480  -12.8580 O.3   1000  E071000     0.0000
      2  B          8.7030   10.0250  -11.4580 B     1000  E071000     0.0000
      3  O1         8.4960   11.2840  -10.5470 O.3   1000  E071000     0.0000
      4  C3         8.1030    8.8230  -10.9910 C.3   1000  E071000     0.0000
      5  C16        8.8700    8.1100   -9.8890 C.3   1000  E071000     0.0000
      6  N4         6.7190    9.1350  -10.6340 N.am  1000  E071000     0.0000
      7  C5         5.6600    8.1770  -10.3720 C.2   1000  E071000     0.0000
      8  O6         5.7940    6.9510  -10.3830 O.2   1000  E071000     0.0000
      9  C7         4.3140    8.7840  -10.1440 C.ar  1000  E071000     0.0000
     10  C14        4.0140    9.4090   -8.9330 C.ar  1000  E071000     0.0000
     11  C13        2.6860    9.7790   -8.7040 C.ar  1000  E071000     0.0000
     12  C12        1.6830    9.5590   -9.6670 C.ar  1000  E071000     0.0000
     13  C11        1.9930    8.9560  -10.8880 C.ar  1000  E071000     0.0000
     14  C8         3.3200    8.5770  -11.1090 C.ar  1000  E071000     0.0000
     15  C9         3.6770    7.9030  -12.4000 C.3   1000  E071000     0.0000
     16  C10        3.7020    8.9190  -13.4970 C.ar  1000  E071000     0.0000
     17  C21        2.6320    8.9510  -14.4080 C.ar  1000  E071000     0.0000
     18  C20        2.6760    9.8100  -15.5130 C.ar  1000  E071000     0.0000
     19  C19        3.7960   10.6440  -15.6610 C.ar  1000  E071000     0.0000
     20  C18        4.8710   10.6530  -14.7460 C.ar  1000  E071000     0.0000
     21  C17        4.8570    9.8300  -13.6240 C.ar  1000  E071000     0.0000
@<TRIPOS>BOND
     1    19    18   ar
     2    19    20   ar
     3    18    17   ar
     4    20    21   ar
     5    17    16   ar
     6    21    16   ar
     7    16    15    1
     8     1     2    1
     9    15    14    1
    10     2     4    1
    11     2     3    1
    12    14    13   ar
    13    14     9   ar
    14     4     6    1
    15     4     5    1
    16    13    12   ar
    17     6     7   am
    18     8     7    2
    19     7     9    1
    20     9    10   ar
    21    12    11   ar
    22    10    11   ar
