@<TRIPOS>MOLECULE
2y2o_EO9_A_1.pdb
 16 16 0 0 0
SMALL
GASTEIGER

@<TRIPOS>ATOM
      1  F15        5.5930    9.0520   -7.1420 F     1000  EO91000     0.0000
      2  C14        4.5940    9.1940   -8.0570 C.ar  1000  EO91000     0.0000
      3  C13        3.3190    9.6630   -7.7480 C.ar  1000  EO91000     0.0000
      4  C12        2.3440    9.7800   -8.7500 C.ar  1000  EO91000     0.0000
      5  C11        2.6570    9.5240  -10.0880 C.ar  1000  EO91000     0.0000
      6  C8         3.9500    9.1150  -10.3840 C.ar  1000  EO91000     0.0000
      7  F9         4.2880    8.7980  -11.6430 F     1000  EO91000     0.0000
      8  C7         4.8720    8.9180   -9.3740 C.ar  1000  EO91000     0.0000
      9  C5         6.2440    8.4460   -9.6850 C.2   1000  EO91000     0.0000
     10  O6         6.4480    7.2460   -9.7630 O.2   1000  EO91000     0.0000
     11  N4         7.1880    9.3650   -9.8530 N.am  1000  EO91000     0.0000
     12  C3         8.5130    9.1070  -10.3900 C.3   1000  EO91000     0.0000
     13  C16        9.3960    8.5830   -9.2450 C.3   1000  EO91000     0.0000
     14  B          9.0200   10.3880  -10.9510 B     1000  EO91000     0.0000
     15  O1         8.8720   11.5740   -9.9720 O.3   1000  EO91000     0.0000
     16  O2         8.2990   10.7180  -12.2850 O.3   1000  EO91000     0.0000
@<TRIPOS>BOND
     1    16    14    1
     2     7     6    1
     3    14    12    1
     4    14    15    1
     5    12    11    1
     6    12    13    1
     7     6     5   ar
     8     6     8   ar
     9     5     4   ar
    10    11     9   am
    11    10     9    2
    12     9     8    1
    13     8     2   ar
    14     4     3   ar
    15     2     3   ar
    16     2     1    1
