@<TRIPOS>MOLECULE
2y2p_Z10_A_1.pdb
 21 22 0 0 0
SMALL
GASTEIGER

@<TRIPOS>ATOM
      1  F15       43.4540   66.4840   42.0610 F     1000  Z101000     0.0000
      2  C14       44.3640   66.0410   41.1720 C.ar  1000  Z101000     0.0000
      3  C13       45.6160   65.6420   41.6330 C.ar  1000  Z101000     0.0000
      4  C12       46.5800   65.1800   40.7400 C.ar  1000  Z101000     0.0000
      5  C11       46.3000   65.1340   39.3790 C.ar  1000  Z101000     0.0000
      6  C8        45.0520   65.5550   38.9150 C.ar  1000  Z101000     0.0000
      7  C10       44.7400   65.4170   37.4750 C.ar  1000  Z101000     0.0000
      8  C21       45.4100   66.1770   36.5180 C.ar  1000  Z101000     0.0000
      9  C20       45.1270   65.9880   35.1650 C.ar  1000  Z101000     0.0000
     10  C19       44.1880   65.0330   34.7720 C.ar  1000  Z101000     0.0000
     11  C18       43.5480   64.2530   35.7300 C.ar  1000  Z101000     0.0000
     12  C17       43.8410   64.4280   37.0800 C.ar  1000  Z101000     0.0000
     13  C7        44.0790   65.9830   39.8060 C.ar  1000  Z101000     0.0000
     14  C5        42.7660   66.4570   39.2490 C.2   1000  Z101000     0.0000
     15  O6        42.7120   67.6090   38.8380 O.2   1000  Z101000     0.0000
     16  N4        41.7380   65.6150   39.1760 N.am  1000  Z101000     0.0000
     17  C3        40.4280   65.9640   38.6130 C.3   1000  Z101000     0.0000
     18  C16       39.5520   66.5530   39.7160 C.3   1000  Z101000     0.0000
     19  B         39.7930   64.7810   37.9620 B     1000  Z101000     0.0000
     20  O1        40.0920   63.4610   38.7380 O.3   1000  Z101000     0.0000
     21  O2        40.4070   64.6320   36.5460 O.3   1000  Z101000     0.0000
@<TRIPOS>BOND
     1    10     9   ar
     2    10    11   ar
     3     9     8   ar
     4    11    12   ar
     5     8     7   ar
     6    21    19    1
     7    12     7   ar
     8     7     6    1
     9    19    17    1
    10    19    20    1
    11    17    16    1
    12    17    18    1
    13    15    14    2
    14     6     5   ar
    15     6    13   ar
    16    16    14   am
    17    14    13    1
    18     5     4   ar
    19    13     2   ar
    20     4     3   ar
    21     2     3   ar
    22     2     1    1
