@<TRIPOS>MOLECULE
2y2q_Z06_A_1.pdb
 16 16 0 0 0
SMALL
GASTEIGER

@<TRIPOS>ATOM
      1  O10       53.6610   69.3290    8.6560 O.2   1000  Z061000     0.0000
      2  C8        54.0840   68.2530    9.0440 C.2   1000  Z061000     0.0000
      3  C9        53.2150   66.9950    8.9840 C.3   1000  Z061000     0.0000
      4  N7        55.3340   68.0600    9.5550 N.am  1000  Z061000     0.0000
      5  C6        56.2800   69.0250    9.7600 C.ar  1000  Z061000     0.0000
      6  C5        57.2720   68.7700   10.7100 C.ar  1000  Z061000     0.0000
      7  C4        58.2830   69.6970   10.9640 C.ar  1000  Z061000     0.0000
      8  B14       59.3540   69.4580   12.0850 B     1000  Z061000     0.0000
      9  O15       58.7300   69.4120   13.4920 O.3   1000  Z061000     0.0000
     10  O16       60.6560   70.2790   11.9720 O.3   1000  Z061000     0.0000
     11  C3        58.2720   70.9180   10.3150 C.ar  1000  Z061000     0.0000
     12  C1        56.2940   70.2440    9.0750 C.ar  1000  Z061000     0.0000
     13  C2        57.2930   71.1820    9.3700 C.ar  1000  Z061000     0.0000
     14  C11       57.3840   72.5090    8.6940 C.2   1000  Z061000     0.0000
     15  O13       57.8790   73.4410    9.3100 O.co2 1000  Z061000     0.0000
     16  O12       56.9700   72.6740    7.4420 O.co2 1000  Z061000     0.0000
@<TRIPOS>BOND
     1    16    14   ar
     2     1     2    2
     3    14    15   ar
     4    14    13    1
     5     3     2    1
     6     2     4   am
     7    12    13   ar
     8    12     5   ar
     9    13    11   ar
    10     4     5    1
    11     5     6   ar
    12    11     7   ar
    13     6     7   ar
    14     7     8    1
    15    10     8    1
    16     8     9    1
