@<TRIPOS>MOLECULE
2y2x_C8E_A_11.pdb
 15 14 0 0 0
SMALL
GASTEIGER

@<TRIPOS>ATOM
      1  C7       -24.2480   18.3620    9.5240 C.3   1405  C8E1405     0.0346
      2  C8       -22.8940   17.7460    9.8570 C.3   1405  C8E1405     0.1424
      3  O9       -22.8470   16.3930    9.4500 O.3   1405  C8E1405    -0.3511
      4  C10      -23.1510   15.5140   10.5100 C.3   1405  C8E1405     0.1741
      5  C11      -22.6350   14.1240   10.1740 C.3   1405  C8E1405     0.1742
      6  O12      -21.2290   14.1020   10.2970 O.3   1405  C8E1405    -0.3484
      7  C13      -20.7490   12.9740   11.0090 C.3   1405  C8E1405     0.1742
      8  C14      -19.3340   13.2290   11.5310 C.3   1405  C8E1405     0.1742
      9  O15      -18.4320   12.3300   10.9130 O.3   1405  C8E1405    -0.3484
     10  C16      -17.5080   11.7440   11.8130 C.3   1405  C8E1405     0.1742
     11  C17      -16.1260   11.6290   11.1720 C.3   1405  C8E1405     0.1742
     12  O18      -15.3540   10.5900   11.7540 O.3   1405  C8E1405    -0.3483
     13  C19      -15.3970    9.3780   11.0210 C.3   1405  C8E1405     0.1777
     14  C20      -14.4540    9.4500    9.8200 C.3   1405  C8E1405     0.2140
     15  O21      -13.7880    8.2250    9.5800 O.3   1405  C8E1405    -0.2176
@<TRIPOS>BOND
     1     3     2    1
     2     3     4    1
     3     1     2    1
     4    15    14    1
     5    14    13    1
     6     5     6    1
     7     5     4    1
     8     6     7    1
     9     9     8    1
    10     9    10    1
    11     7     8    1
    12    13    12    1
    13    11    12    1
    14    11    10    1
