@<TRIPOS>MOLECULE
2y2x_VNL_A_1.pdb
 12 12 0 0 0
SMALL
GASTEIGER

@<TRIPOS>ATOM
      1  C1       -25.2230   23.4070  -23.1780 C.ar  1406  VNL1406     0.0830
      2  CO1      -24.4250   24.5290  -23.3130 C.ar  1406  VNL1406     0.0101
      3  CO2      -25.5990   22.6650  -24.2970 C.ar  1406  VNL1406     0.0468
      4  CM1      -23.9910   24.9270  -24.5720 C.ar  1406  VNL1406     0.0454
      5  CM2      -25.1690   23.0600  -25.5580 C.ar  1406  VNL1406     0.1776
      6  OM       -25.5160   22.3410  -26.7120 O.3   1406  VNL1406    -0.4682
      7  CZ       -24.3620   24.1850  -25.6850 C.ar  1406  VNL1406     0.2293
      8  CC       -25.6700   23.0230  -21.7900 C.2   1406  VNL1406     0.3879
      9  CV       -26.4910   21.4350  -26.6700 C.3   1406  VNL1406     0.2526
     10  O1       -26.6670   22.2530  -21.6200 O.co2 1406  VNL1406    -0.2406
     11  O2       -25.1930   23.6050  -20.8480 O.co2 1406  VNL1406    -0.2406
     12  O3       -23.9200   24.5850  -27.0030 O.3   1406  VNL1406    -0.2833
@<TRIPOS>BOND
     1    12     7    1
     2     6     9    1
     3     6     5    1
     4     7     5   ar
     5     7     4   ar
     6     5     3   ar
     7     4     2   ar
     8     3     1   ar
     9     2     1   ar
    10     1     8    1
    11     8    10   ar
    12     8    11   ar
