@<TRIPOS>MOLECULE
2y33_UN9_A_1.pdb
 19 20 0 0 0
SMALL
GASTEIGER

@<TRIPOS>ATOM
      1  O18      -33.2220   23.4680    3.3460 O.co2 901  UN9901     -0.2437
      2  C16      -33.3950   22.6490    4.2740 C.2   901  UN9901      0.3865
      3  O17      -32.6150   21.7290    4.6010 O.co2 901  UN9901     -0.2437
      4  C15      -34.6780   22.7870    5.0980 C.3   901  UN9901      0.2288
      5  N14      -35.4970   23.8960    4.5890 N.am  901  UN9901     -0.1874
      6  C12      -36.7440   24.0590    5.0210 C.2   901  UN9901      0.2937
      7  O13      -37.2750   23.3260    5.8520 O.2   901  UN9901     -0.2658
      8  C9       -37.5260   25.2370    4.4390 C.2   901  UN9901      0.1991
      9  N8       -38.8510   25.2590    4.6340 N.2   901  UN9901     -0.3872
     10  C7       -39.6200   26.2430    4.1530 C.2   901  UN9901      0.1883
     11 CL1       -41.3280   26.1530    4.4240 Cl    901  UN9901     -0.0480
     12  C2       -39.0500   27.2890    3.4360 C.ar  901  UN9901      0.0394
     13  C10      -36.9040   26.2540    3.7220 C.3   901  UN9901      0.2306
     14  O19      -35.5590   26.2270    3.5120 O.3   901  UN9901     -0.2104
     15  C3       -37.6770   27.2930    3.2200 C.ar  901  UN9901      0.0180
     16  C4       -37.0920   28.3310    2.5010 C.ar  901  UN9901     -0.0013
     17  C5       -37.8800   29.3640    2.0010 C.ar  901  UN9901     -0.0002
     18  C6       -39.2520   29.3590    2.2150 C.ar  901  UN9901      0.0001
     19  C1       -39.8370   28.3210    2.9340 C.ar  901  UN9901      0.0032
@<TRIPOS>BOND
     1    17    18   ar
     2    17    16   ar
     3    18    19   ar
     4    16    15   ar
     5    19    12   ar
     6    15    12   ar
     7    15    13    1
     8     1     2   ar
     9    12    10    1
    10    14    13    1
    11    13     8    1
    12    10    11    1
    13    10     9    2
    14     2     3   ar
    15     2     4    1
    16     8     9    2
    17     8     6    1
    18     5     6   am
    19     5     4    1
    20     6     7    2
