@<TRIPOS>MOLECULE
2y34_UN9_A_1.pdb
 19 20 0 0 0
SMALL
GASTEIGER

@<TRIPOS>ATOM
      1  O18       36.3880  -16.7700    2.8300 O.co2 601  UN9601     -0.2437
      2  C16       35.7900  -17.3170    1.8810 C.2   601  UN9601      0.3865
      3  O17       34.6200  -17.0780    1.5110 O.co2 601  UN9601     -0.2437
      4  C15       36.5440  -18.3850    1.0890 C.3   601  UN9601      0.2288
      5  N14       37.9180  -18.5160    1.5930 N.am  601  UN9601     -0.1874
      6  C12       38.7190  -19.4490    1.0920 C.2   601  UN9601      0.2937
      7  O13       38.3740  -20.2330    0.2060 O.2   601  UN9601     -0.2658
      8  C9        40.1290  -19.5310    1.6740 C.2   601  UN9601      0.1991
      9  N8        40.8050  -20.6740    1.4890 N.2   601  UN9601     -0.3872
     10  C7        42.0280  -20.8830    1.9960 C.2   601  UN9601      0.1883
     11 CL1        42.7230  -22.4560    1.7570 Cl    601  UN9601     -0.0480
     12  C2        42.6510  -19.8780    2.7360 C.ar  601  UN9601      0.0394
     13  C10       40.6960  -18.4990    2.4140 C.3   601  UN9601      0.2306
     14  O19       40.0200  -17.3440    2.6630 O.3   601  UN9601     -0.2104
     15  C3        41.9710  -18.6780    2.9400 C.ar  601  UN9601      0.0180
     16  C4        42.5530  -17.6500    3.6730 C.ar  601  UN9601     -0.0013
     17  C5        43.8250  -17.8110    4.2140 C.ar  601  UN9601     -0.0002
     18  C6        44.5060  -19.0070    4.0100 C.ar  601  UN9601      0.0001
     19  C1        43.9240  -20.0390    3.2760 C.ar  601  UN9601      0.0032
@<TRIPOS>BOND
     1     7     6    2
     2     4     5    1
     3     4     2    1
     4     6     5   am
     5     6     8    1
     6     9     8    2
     7     9    10    2
     8     3     2   ar
     9     8    13    1
    10    11    10    1
    11     2     1   ar
    12    10    12    1
    13    13    14    1
    14    13    15    1
    15    12    15   ar
    16    12    19   ar
    17    15    16   ar
    18    19    18   ar
    19    16    17   ar
    20    18    17   ar
