@<TRIPOS>MOLECULE
2y37_H4B_A_1.pdb
 17 18 0 0 0
SMALL
GASTEIGER

@<TRIPOS>ATOM
      1  N1        30.4560  -66.1450   34.8550 N.2   1502  H4B1502    -0.2683
      2  C2        29.1580  -66.5660   34.5360 C.1   1502  H4B1502     0.2608
      3  N2        28.1680  -66.7240   35.5240 N.pl3 1502  H4B1502    -0.0220
      4  N3        28.7920  -66.8370   33.2040 N.2   1502  H4B1502    -0.2474
      5  C4        29.6770  -66.7120   32.1750 C.1   1502  H4B1502     0.2441
      6  O4        29.3320  -66.9220   31.0100 O.2   1502  H4B1502    -0.2063
      7  C4A       30.9920  -66.2970   32.4620 C.2   1502  H4B1502     0.2463
      8  C8A       31.3870  -66.0100   33.8430 C.1   1502  H4B1502     0.1270
      9  N5        31.9420  -66.1180   31.4020 N.2   1502  H4B1502    -0.2460
     10  N8        32.6860  -65.6110   34.1300 N.2   1502  H4B1502    -0.2054
     11  C6        33.3480  -66.3070   31.7890 C.3   1502  H4B1502     0.1627
     12  C7        33.6460  -65.4350   33.0120 C.3   1502  H4B1502     0.1643
     13  C9        34.3580  -66.3180   30.6370 C.3   1502  H4B1502     0.2063
     14  O9        34.3130  -65.2310   29.7370 O.3   1502  H4B1502    -0.2183
     15  C10       35.7190  -66.7100   31.1390 C.3   1502  H4B1502     0.1842
     16  C11       36.7270  -66.6540   30.0080 C.3   1502  H4B1502     0.0383
     17  O10       35.6640  -68.0610   31.5790 O.3   1502  H4B1502    -0.2204
@<TRIPOS>BOND
     1    14    13    1
     2    16    15    1
     3    13    15    1
     4    13    11    1
     5     6     5    2
     6    15    17    1
     7     9    11    1
     8     9     7    2
     9    11    12    1
    10     5     7    1
    11     5     4    2
    12     7     8    1
    13    12    10    1
    14     4     2    2
    15     8    10    2
    16     8     1    2
    17     2     1    2
    18     2     3    1
