@<TRIPOS>MOLECULE
2y37_HEM_A_1.pdb
 43 50 0 0 0
SMALL
GASTEIGER

@<TRIPOS>ATOM
      1  CHA       24.3620  -71.4020   36.6990 C.2   1501  HEM1501     0.0000
      2  CHB       21.3620  -68.6000   39.2390 C.2   1501  HEM1501     0.0000
      3  CHC       18.5730  -72.2630   40.0780 C.2   1501  HEM1501     0.0000
      4  CHD       21.8120  -75.2190   38.0380 C.2   1501  HEM1501     0.0000
      5  C1A       23.7180  -70.2920   37.2590 C.2   1501  HEM1501     0.0000
      6  C2A       24.0860  -68.9290   37.0400 C.2   1501  HEM1501     0.0000
      7  C3A       23.2570  -68.1830   37.7630 C.2   1501  HEM1501     0.0000
      8  C4A       22.3790  -69.0680   38.4190 C.2   1501  HEM1501     0.0000
      9  CMA       23.2520  -66.7240   37.8410 C.3   1501  HEM1501     0.0000
     10  CAA       25.1960  -68.3570   36.1730 C.3   1501  HEM1501     0.0000
     11  CBA       24.7080  -68.7400   34.7810 C.3   1501  HEM1501     0.0000
     12  CGA       25.5710  -68.3010   33.5990 C.2   1501  HEM1501     0.0000
     13  O1A       25.5800  -68.9430   32.5100 O.co2 1501  HEM1501     0.0000
     14  O2A       26.3230  -67.2060   33.7260 O.co2 1501  HEM1501     0.0000
     15  C1B       20.4270  -69.3930   39.8360 C.ar  1501  HEM1501     0.0000
     16  C2B       19.3250  -68.8100   40.6040 C.ar  1501  HEM1501     0.0000
     17  C3B       18.4620  -69.8210   40.7920 C.ar  1501  HEM1501     0.0000
     18  C4B       19.1290  -71.0370   40.1460 C.ar  1501  HEM1501     0.0000
     19  CMB       19.1230  -67.3760   41.0070 C.3   1501  HEM1501     0.0000
     20  CAB       17.1930  -69.6710   41.4950 C.2   1501  HEM1501     0.0000
     21  CBB       16.3670  -70.6820   41.8670 C.2   1501  HEM1501     0.0000
     22  C1C       19.2120  -73.3780   39.5340 C.2   1501  HEM1501     0.0000
     23  C2C       18.5870  -74.6630   39.4380 C.2   1501  HEM1501     0.0000
     24  C3C       19.5570  -75.5560   38.9720 C.2   1501  HEM1501     0.0000
     25  C4C       20.6890  -74.7240   38.6860 C.2   1501  HEM1501     0.0000
     26  CMC       17.1590  -74.9500   39.8540 C.3   1501  HEM1501     0.0000
     27  CAC       19.4850  -76.9970   38.6420 C.2   1501  HEM1501     0.0000
     28  CBC       18.4440  -77.7740   39.0760 C.2   1501  HEM1501     0.0000
     29  C1D       22.8640  -74.3960   37.6270 C.ar  1501  HEM1501     0.0000
     30  C2D       23.9740  -74.9260   36.8070 C.ar  1501  HEM1501     0.0000
     31  C3D       24.6360  -73.8720   36.4390 C.ar  1501  HEM1501     0.0000
     32  C4D       23.9890  -72.7230   37.0220 C.ar  1501  HEM1501     0.0000
     33  CMD       24.2090  -76.3660   36.4300 C.3   1501  HEM1501     0.0000
     34  CAD       25.8040  -73.8090   35.5390 C.3   1501  HEM1501     0.0000
     35  CBD       25.1960  -73.5610   34.1440 C.3   1501  HEM1501     0.0000
     36  CGD       26.3070  -73.4050   33.1480 C.2   1501  HEM1501     0.0000
     37  O1D       26.1440  -72.8760   32.0680 O.co2 1501  HEM1501     0.0000
     38  O2D       27.4970  -73.8690   33.4520 O.co2 1501  HEM1501     0.0000
     39  NA        22.6690  -70.3910   38.1530 N.2   1501  HEM1501     0.0000
     40  NB        20.3630  -70.7290   39.6560 N.ar  1501  HEM1501     0.0000
     41  NC        20.4920  -73.3890   39.0750 N.2   1501  HEM1501     0.0000
     42  ND        22.9350  -73.0820   37.7750 N.ar  1501  HEM1501     0.0000
     43 FE         21.7630  -71.9330   38.8700 Fe    1501  HEM1501     0.0000
@<TRIPOS>BOND
     1    37    36   ar
     2    13    12   ar
     3    36    38   ar
     4    36    35    1
     5    12    14   ar
     6    12    11    1
     7    35    34    1
     8    11    10    1
     9    34    31    1
    10    10     6    1
    11    33    30    1
    12    31    30   ar
    13    31    32   ar
    14     1    32    2
    15     1     5    1
    16    30    29   ar
    17    32    42   ar
    18     6     5    1
    19     6     7    2
    20     5    39    2
    21    29    42   ar
    22    29     4    2
    23     7     9    1
    24     7     8    1
    25    42    43    1
    26     4    25    1
    27    39     8    1
    28    39    43    1
    29     8     2    2
    30    27    24    1
    31    27    28    2
    32    25    24    1
    33    25    41    2
    34    43    41    1
    35    43    40    1
    36    24    23    2
    37    41    22    1
    38     2    15    1
    39    23    22    1
    40    23    26    1
    41    22     3    2
    42    40    15   ar
    43    40    18   ar
    44    15    16   ar
    45     3    18    1
    46    18    17   ar
    47    16    17   ar
    48    16    19    1
    49    17    20    1
    50    20    21    2
