@<TRIPOS>MOLECULE
2y37_A54_A_1.pdb
 20 21 0 0 0
SMALL
GASTEIGER

@<TRIPOS>ATOM
      1  C1        18.4430  -69.9030   30.3590 C.ar  1500  A541500    -0.0000
      2  C2        18.5340  -68.6030   30.7970 C.ar  1500  A541500    -0.0002
      3  C3        19.6140  -68.2310   31.5740 C.ar  1500  A541500    -0.0008
      4  C4        20.6070  -69.1340   31.9100 C.ar  1500  A541500     0.0172
      5  C5        20.5260  -70.4240   31.4340 C.ar  1500  A541500    -0.0008
      6  C6        19.4410  -70.8070   30.6690 C.ar  1500  A541500    -0.0002
      7  C7        21.7860  -68.7520   32.7470 C.3   1500  A541500     0.1897
      8  C8        22.5950  -67.7000   32.0150 C.3   1500  A541500     0.0687
      9  C9        23.2740  -68.2410   30.7710 C.3   1500  A541500     0.1134
     10  N10       23.5240  -67.1760   29.8170 N.3   1500  A541500    -0.1312
     11  O11       21.4250  -68.1830   34.0060 O.3   1500  A541500    -0.4740
     12  C12       20.6410  -68.9740   34.8670 C.ar  1500  A541500     0.1492
     13  C13       20.4920  -70.3490   34.7630 C.ar  1500  A541500     0.0490
     14  C14       19.6690  -71.0060   35.6500 C.ar  1500  A541500     0.0607
     15  C15       19.0130  -70.3450   36.6620 C.ar  1500  A541500     0.0123
     16  C16       19.1760  -68.9800   36.7680 C.ar  1500  A541500     0.0142
     17  C17       19.9850  -68.3040   35.8870 C.ar  1500  A541500     0.1023
     18  C18       20.1050  -66.8950   36.0210 C.1   1500  A541500     0.1035
     19  N19       20.2000  -65.7420   36.1080 N.1   1500  A541500    -0.1907
     20 CL2        19.4610  -72.6900   35.5090 Cl    1500  A541500    -0.0821
@<TRIPOS>BOND
     1    10     9    1
     2     1     6   ar
     3     1     2   ar
     4     6     5   ar
     5     9     8    1
     6     2     3   ar
     7     5     4   ar
     8     3     4   ar
     9     4     7    1
    10     8     7    1
    11     7    11    1
    12    11    12    1
    13    13    12   ar
    14    13    14   ar
    15    12    17   ar
    16    20    14    1
    17    14    15   ar
    18    17    18    1
    19    17    16   ar
    20    18    19    3
    21    15    16   ar
