@<TRIPOS>MOLECULE
2y3a_GD9_A_1.pdb
 35 40 0 0 0
SMALL
GASTEIGER

@<TRIPOS>ATOM
      1  O3        28.1780  -29.7700   -2.2770 O.2   2058  GD92058    -0.4692
      2  C4        24.3570  -31.5540   -2.6360 C.2   2058  GD92058     0.1933
      3  C5        21.1440  -29.7480   -4.0200 C.2   2058  GD92058     0.0223
      4  C6        20.8930  -31.0110   -3.7590 C.2   2058  GD92058     0.0331
      5  N1        21.9870  -33.0290   -2.8720 N.2   2058  GD92058    -0.3431
      6  C7        20.0690  -28.8650   -4.5500 C.3   2058  GD92058     0.1055
      7  C8        23.1060  -35.0000   -2.2120 C.2   2058  GD92058     0.0744
      8  N2        24.2560  -32.8720   -2.4820 N.2   2058  GD92058    -0.3278
      9  C9        18.4420  -27.2690   -3.6530 C.3   2058  GD92058     0.0918
     10  C10       16.9170  -27.2760   -3.3320 C.3   2058  GD92058     0.1128
     11  C11       16.9600  -29.5010   -2.1570 C.3   2058  GD92058     0.1128
     12  C12       18.2910  -29.7780   -2.9360 C.3   2058  GD92058     0.0918
     13  N3        25.5670  -30.9230   -2.3770 N.pl3 2058  GD92058    -0.2568
     14  C13       17.3700  -25.5020   -0.9110 C.3   2058  GD92058     0.1960
     15  C14       26.7160  -31.8770   -2.2200 C.3   2058  GD92058     0.1450
     16  C15       28.1290  -31.2260   -2.4060 C.3   2058  GD92058     0.2274
     17  N4        19.1410  -28.5830   -3.4210 N.3   2058  GD92058    -0.2660
     18  O2        16.0940  -27.5940    0.1890 O.2   2058  GD92058    -0.1572
     19  S2        17.1910  -27.3040   -0.6770 S.O2  2058  GD92058     0.0457
     20  O1        18.5200  -27.7840   -0.4650 O.2   2058  GD92058    -0.1572
     21  N5        16.7060  -28.0340   -2.0640 N.3   2058  GD92058    -0.1565
     22  S1        22.8180  -29.2820   -3.6240 S.3   2058  GD92058    -0.1017
     23  C2        21.9920  -31.7430   -3.2540 C.2   2058  GD92058     0.1397
     24  C1        23.1740  -30.9270   -3.1180 C.3   2058  GD92058     0.1723
     25  C3        23.1040  -33.5850   -2.5380 C.1   2058  GD92058     0.1351
     26  C18       21.9090  -35.7100   -2.1240 C.2   2058  GD92058     0.0085
     27  C19       21.9020  -37.0630   -1.6820 C.2   2058  GD92058     0.0017
     28  C20       23.0960  -37.7880   -1.5390 C.2   2058  GD92058     0.0172
     29  C21       24.3300  -37.1040   -1.7390 C.2   2058  GD92058     0.0907
     30  N6        25.6320  -37.4940   -1.6990 N.2   2058  GD92058    -0.1519
     31  C22       24.3310  -35.7020   -2.0220 C.3   2058  GD92058     0.1187
     32  C23       25.6700  -35.3420   -2.1970 C.2   2058  GD92058     0.1065
     33  N7        26.3930  -36.3810   -2.0140 N.2   2058  GD92058    -0.1507
     34  C16       27.1980  -29.0150   -3.0960 C.2   2058  GD92058     0.1884
     35  C17       25.7880  -29.6340   -3.1650 C.2   2058  GD92058     0.1078
@<TRIPOS>BOND
     1     6     3    1
     2     6    17    1
     3     3     4    2
     4     3    22    1
     5     4    23    1
     6     9    17    1
     7     9    10    1
     8    22    24    1
     9    17    12    1
    10    10    21    1
    11    23    24    1
    12    23     5    2
    13    35    34    2
    14    35    13    1
    15    24     2    1
    16    34     1    1
    17    12    11    1
    18     5    25    2
    19     2     8    2
    20     2    13    1
    21    25     8    2
    22    25     7    1
    23    16     1    1
    24    16    15    1
    25    13    15    1
    26     7    26    2
    27     7    31    1
    28    32    31    1
    29    32    33    2
    30    11    21    1
    31    26    27    1
    32    21    19    1
    33    31    29    1
    34    33    30    1
    35    29    30    2
    36    29    28    1
    37    27    28    2
    38    14    19    1
    39    19    20    2
    40    19    18    2
