@<TRIPOS>MOLECULE
2y3f_BTN_A_1.pdb
 16 17 0 0 0
SMALL
GASTEIGER

@<TRIPOS>ATOM
      1  C11       24.5730  -19.5460  -14.2230 C.2   1136  BTN1136     0.3649
      2  O11       25.6440  -19.5960  -14.8710 O.co2 1136  BTN1136    -0.2457
      3  O12       23.8220  -20.5450  -14.0930 O.co2 1136  BTN1136    -0.2457
      4  C10       24.1370  -18.2330  -13.6040 C.3   1136  BTN1136     0.1141
      5  C9        25.2970  -17.4010  -13.0530 C.3   1136  BTN1136     0.0118
      6  C8        25.9420  -18.0450  -11.8230 C.3   1136  BTN1136     0.0015
      7  C7        27.0680  -17.1960  -11.2380 C.3   1136  BTN1136     0.0129
      8  C2        27.6640  -17.8540   -9.9870 C.3   1136  BTN1136     0.0729
      9  S1        26.6480  -17.7220   -8.5290 S.3   1136  BTN1136    -0.1369
     10  C6        28.0020  -18.3010   -7.5340 C.3   1136  BTN1136     0.0848
     11  C5        29.2540  -17.5930   -8.0980 C.3   1136  BTN1136     0.1509
     12  N1        29.4330  -16.2810   -7.4750 N.2   1136  BTN1136    -0.1859
     13  C3        29.2980  -15.3000   -8.3750 C.1   1136  BTN1136     0.2386
     14  O3        29.3580  -14.0870   -8.1190 O.2   1136  BTN1136    -0.2023
     15  N2        29.0520  -15.8050   -9.5910 N.2   1136  BTN1136    -0.1860
     16  C4        29.0150  -17.2600   -9.5760 C.3   1136  BTN1136     0.1500
@<TRIPOS>BOND
     1     2     1   ar
     2     1     3   ar
     3     1     4    1
     4     4     5    1
     5     5     6    1
     6     6     7    1
     7     7     8    1
     8     8    16    1
     9     8     9    1
    10    15    16    1
    11    15    13    2
    12    16    11    1
    13     9    10    1
    14    13    14    2
    15    13    12    2
    16    11    10    1
    17    11    12    1
