@<TRIPOS>MOLECULE
2y3i_3PG_A_1.pdb
 11 10 0 0 0
SMALL
GASTEIGER

@<TRIPOS>ATOM
      1  C1       -22.4720   -1.5110   -9.2010 C.2   1420  3PG1420     0.3972
      2  O1       -21.3950   -1.8840   -8.6820 O.co2 1420  3PG1420    -0.2427
      3  O2       -22.8200   -1.8530  -10.3560 O.co2 1420  3PG1420    -0.2427
      4  C2       -23.3630   -0.5860   -8.4220 C.3   1420  3PG1420     0.2838
      5  O3       -22.6800   -0.0770   -7.2850 O.3   1420  3PG1420    -0.2081
      6  C3       -24.6670   -1.2350   -7.9590 C.3   1420  3PG1420     0.1983
      7  O1P      -24.5320   -2.4600   -7.2510 O.3   1420  3PG1420    -0.2669
      8  P        -25.7010   -3.5660   -7.4040 P.3   1420  3PG1420     0.5327
      9  O2P      -25.4440   -4.5830   -6.3120 O.3   1420  3PG1420    -0.1145
     10  O3P      -26.9760   -2.7980   -7.2220 O.3   1420  3PG1420    -0.1145
     11  O4P      -25.5110   -4.0620   -8.8200 O.2   1420  3PG1420    -0.2224
@<TRIPOS>BOND
     1     3     1   ar
     2     1     2   ar
     3     1     4    1
     4    11     8    2
     5     4     6    1
     6     4     5    1
     7     6     7    1
     8     8     7    1
     9     8    10    1
    10     8     9    1
