@<TRIPOS>MOLECULE
2y3i_LA8_A_1.pdb
 27 29 0 0 0
SMALL
GASTEIGER

@<TRIPOS>ATOM
      1  PB       -19.7810   -4.6860  -13.5070 P.3   1418  LA81418     0.5373
      2  O1B      -21.3810   -4.5410  -13.6850 O.3   1418  LA81418    -0.1143
      3  O2B      -19.1170   -3.9210  -14.7310 O.2   1418  LA81418    -0.2221
      4  O3B      -19.3200   -4.1480  -12.2120 O.3   1418  LA81418    -0.1143
      5  PA       -20.0020   -7.2780  -12.6970 P.3   1418  LA81418     0.2231
      6  O1A      -20.3440   -6.4930  -11.3250 O.3   1418  LA81418    -0.4370
      7  O2A      -21.1340   -8.0330  -13.2590 O.2   1418  LA81418    -0.5169
      8  O3A      -19.4930   -6.2000  -13.7330 O.3   1418  LA81418    -0.2261
      9  O5'      -18.7140   -8.0950  -12.3350 O.3   1418  LA81418    -0.3111
     10  C5'      -18.5500   -9.4680  -12.6390 C.3   1418  LA81418     0.1813
     11  O4'      -17.1870  -10.5970  -14.0960 O.3   1418  LA81418    -0.3135
     12  C3'      -15.4210  -11.3900  -12.7290 C.3   1418  LA81418     0.2570
     13  O3'      -14.2730  -10.5890  -12.9090 O.3   1418  LA81418    -0.2130
     14  C2'      -16.3760  -10.5790  -11.9090 C.3   1418  LA81418     0.2184
     15  O2'      -15.5720   -9.6980  -11.1530 O.3   1418  LA81418    -0.2174
     16  N9       -16.8020  -12.8310  -14.3890 N.pl3 1418  LA81418    -0.1439
     17  C8       -17.1560  -13.1950  -15.6140 C.3   1418  LA81418     0.3377
     18  N7       -17.7460  -14.3830  -15.5700 N.2   1418  LA81418    -0.2095
     19  C5       -17.7710  -14.7770  -14.3130 C.2   1418  LA81418     0.2526
     20  C6       -18.2590  -15.9180  -13.6960 C.2   1418  LA81418     0.4393
     21  N6       -18.8390  -16.8740  -14.4180 N.pl3 1418  LA81418     0.2180
     22  N1       -18.1320  -16.0400  -12.3670 N.2   1418  LA81418     0.0021
     23  C2       -17.5510  -15.0750  -11.6580 C.3   1418  LA81418     0.5254
     24  N3       -17.0830  -13.9740  -12.2290 N.2   1418  LA81418    -0.0055
     25  C4       -17.1760  -13.7950  -13.5540 C.2   1418  LA81418     0.3518
     26  C4'      -17.0850   -9.7550  -12.9650 C.3   1418  LA81418     0.1821
     27  C1'      -16.1120  -11.5360  -14.0850 C.3   1418  LA81418     0.3186
@<TRIPOS>BOND
     1    17    18    1
     2    17    16    1
     3    18    19    2
     4     3     1    2
     5    21    20    1
     6    16    27    1
     7    16    25    1
     8    19    20    1
     9    19    25    1
    10    11    27    1
    11    11    26    1
    12    27    12    1
    13     8     1    1
    14     8     5    1
    15    20    22    2
    16     2     1    1
    17    25    24    2
    18     1     4    1
    19     7     5    2
    20    26    10    1
    21    26    14    1
    22    13    12    1
    23    12    14    1
    24     5     9    1
    25     5     6    1
    26    10     9    1
    27    22    23    1
    28    24    23    1
    29    14    15    1
