@<TRIPOS>MOLECULE
2y3q_HEM_A_1.pdb
 43 50 0 0 0
SMALL
GASTEIGER

@<TRIPOS>ATOM
      1  CHA       69.9540  138.3580   27.6940 C.2   200  HEM200      0.0000
      2  CHB       74.5880  137.2620   28.2810 C.2   200  HEM200      0.0000
      3  CHC       73.6180  134.7810   32.3200 C.2   200  HEM200      0.0000
      4  CHD       68.9250  135.6410   31.6310 C.2   200  HEM200      0.0000
      5  C1A       71.3060  138.3090   27.5030 C.ar  200  HEM200      0.0000
      6  C2A       72.0530  138.9450   26.4470 C.ar  200  HEM200      0.0000
      7  C3A       73.3300  138.6130   26.6060 C.ar  200  HEM200      0.0000
      8  C4A       73.4440  137.7810   27.7780 C.ar  200  HEM200      0.0000
      9  CMA       74.4680  139.1170   25.7200 C.3   200  HEM200      0.0000
     10  CAA       71.5040  139.8650   25.3480 C.3   200  HEM200      0.0000
     11  CBA       71.6060  141.2810   25.9330 C.3   200  HEM200      0.0000
     12  CGA       71.1890  142.3540   24.9680 C.2   200  HEM200      0.0000
     13  O1A       71.9220  142.5300   23.9600 O.co2 200  HEM200      0.0000
     14  O2A       70.1390  143.0240   25.2210 O.co2 200  HEM200      0.0000
     15  C1B       74.6970  136.5360   29.4360 C.2   200  HEM200      0.0000
     16  C2B       75.9620  136.0690   29.9510 C.2   200  HEM200      0.0000
     17  C3B       75.7030  135.3710   31.0550 C.2   200  HEM200      0.0000
     18  C4B       74.2730  135.3690   31.2700 C.2   200  HEM200      0.0000
     19  CMB       77.3050  136.3780   29.2570 C.3   200  HEM200      0.0000
     20  CAB       76.7440  134.6820   31.9350 C.2   200  HEM200      0.0000
     21  CBB       77.8040  134.1390   31.3370 C.2   200  HEM200      0.0000
     22  C1C       72.2650  134.8220   32.4940 C.ar  200  HEM200      0.0000
     23  C2C       71.5490  134.2360   33.5900 C.ar  200  HEM200      0.0000
     24  C3C       70.2460  134.4650   33.3960 C.ar  200  HEM200      0.0000
     25  C4C       70.1020  135.2190   32.1690 C.ar  200  HEM200      0.0000
     26  CMC       72.2310  133.4880   34.7390 C.3   200  HEM200      0.0000
     27  C1D       68.7900  136.3870   30.4850 C.2   200  HEM200      0.0000
     28  C2D       67.5190  136.6610   29.8730 C.2   200  HEM200      0.0000
     29  C3D       67.8040  137.4960   28.6390 C.2   200  HEM200      0.0000
     30  C4D       69.2560  137.6660   28.6430 C.2   200  HEM200      0.0000
     31  CMD       66.1440  136.1590   30.3700 C.3   200  HEM200      0.0000
     32  CAD       66.7840  138.0400   27.6220 C.3   200  HEM200      0.0000
     33  CBD       66.4260  136.9330   26.6300 C.3   200  HEM200      0.0000
     34  CGD       65.4620  137.4420   25.5840 C.2   200  HEM200      0.0000
     35  O1D       65.8820  138.1330   24.6240 O.co2 200  HEM200      0.0000
     36  O2D       64.2470  137.1570   25.7010 O.co2 200  HEM200      0.0000
     37  NA        72.1810  137.6080   28.2970 N.ar  200  HEM200      0.0000
     38  NB        73.6670  136.1100   30.2560 N.2   200  HEM200      0.0000
     39  NC        71.3520  135.4060   31.6450 N.ar  200  HEM200      0.0000
     40  ND        69.8050  137.0010   29.7430 N.2   200  HEM200      0.0000
     41 FE         71.7290  136.5470   29.9440 Fe    200  HEM200      0.0000
     42  CAC       69.1010  134.0330   34.3290 C.2   200  HEM200      0.0000
     43  CBC       68.0550  133.3570   33.8510 C.2   200  HEM200      0.0000
@<TRIPOS>BOND
     1    13    12   ar
     2    35    34   ar
     3    12    14   ar
     4    12    11    1
     5    10    11    1
     6    10     6    1
     7    34    36   ar
     8    34    33    1
     9     9     7    1
    10     6     7   ar
    11     6     5   ar
    12     7     8   ar
    13    33    32    1
    14     5     1    2
    15     5    37   ar
    16    32    29    1
    17     1    30    1
    18     8     2    2
    19     8    37   ar
    20     2    15    1
    21    37    41    1
    22    29    30    1
    23    29    28    2
    24    30    40    2
    25    19    16    1
    26    15    16    1
    27    15    38    2
    28    40    41    1
    29    40    27    1
    30    28    31    1
    31    28    27    1
    32    41    38    1
    33    41    39    1
    34    16    17    2
    35    38    18    1
    36    27     4    2
    37    17    18    1
    38    17    20    1
    39    18     3    2
    40    21    20    2
    41     4    25    1
    42    39    25   ar
    43    39    22   ar
    44    25    24   ar
    45     3    22    1
    46    22    23   ar
    47    24    23   ar
    48    24    42    1
    49    23    26    1
    50    43    42    2
