@<TRIPOS>MOLECULE
2y3r_TRK_B_1.pdb
 29 31 0 0 0
SMALL
GASTEIGER

@<TRIPOS>ATOM
      1  N         13.2010  -10.7760   74.0560 N.2   700  TRK700     -0.1939
      2  C1         2.8870   -9.6270   72.7920 C.3   700  TRK700      0.1245
      3  O1         3.1970   -8.1990   72.8260 O.3   700  TRK700     -0.3332
      4  C2         3.2730  -10.2120   74.1660 C.3   700  TRK700      0.0488
      5  O2        12.4550   -9.3790   75.7410 O.2   700  TRK700     -0.2220
      6  C3         2.3300   -9.6510   75.2550 C.3   700  TRK700      0.0072
      7  O3        10.2440  -11.7920   72.4020 O.2   700  TRK700     -0.2883
      8  C4         4.6860   -9.7820   74.5770 C.2   700  TRK700     -0.0322
      9  O4         9.5820   -9.0300   75.8780 O.2   700  TRK700     -0.2860
     10  C5         5.8340  -10.4490   74.3660 C.2   700  TRK700     -0.0436
     11  O5         3.9710   -8.1280   70.6390 O.3   700  TRK700     -0.3258
     12  C6         7.1310   -9.9210   74.8920 C.3   700  TRK700      0.0510
     13  O6         1.6920  -10.4600   69.2090 O.2   700  TRK700     -0.2888
     14  C7         8.2660  -10.2320   74.2660 C.2   700  TRK700      0.0211
     15  C8         9.5530   -9.8320   74.8190 C.2   700  TRK700      0.2055
     16  C9        10.8300  -10.3590   74.2670 C.2   700  TRK700      0.1578
     17  C10       12.2140  -10.1360   74.7510 C.1   700  TRK700      0.1565
     18  C11       12.6030  -11.5340   72.9500 C.3   700  TRK700      0.2072
     19  C12       11.1420  -11.2620   73.1780 C.2   700  TRK700      0.2124
     20  C13        5.8460  -11.8220   73.7060 C.3   700  TRK700      0.0264
     21  C14        3.5900  -10.3430   71.6260 C.3   700  TRK700      0.0625
     22  C15        3.1200  -11.7980   71.4780 C.3   700  TRK700      0.0055
     23  C16        3.5320   -9.4910   70.3430 C.3   700  TRK700      0.1812
     24  C17        3.0900   -7.4810   71.5830 C.3   700  TRK700      0.2039
     25  C18        3.5260   -6.0090   71.7580 C.3   700  TRK700      0.0659
     26  C19        1.6190   -7.5130   71.1810 C.2   700  TRK700      0.0094
     27  C20        0.6870   -6.5190   71.8290 C.3   700  TRK700      0.0313
     28  C21        1.1470   -8.4520   70.3320 C.2   700  TRK700      0.0361
     29  C22        2.0940   -9.4950   69.8460 C.2   700  TRK700      0.1996
@<TRIPOS>BOND
     1    13    29    2
     2    29    28    1
     3    29    23    1
     4    28    26    2
     5    23    11    1
     6    23    21    1
     7    11    24    1
     8    26    24    1
     9    26    27    1
    10    22    21    1
    11    24    25    1
    12    24     3    1
    13    21     2    1
    14     7    19    1
    15     2     3    1
    16     2     4    1
    17    18    19    1
    18    18     1    1
    19    19    16    2
    20    20    10    1
    21     1    17    2
    22     4     8    1
    23     4     6    1
    24    14    15    2
    25    14    12    1
    26    16    17    1
    27    16    15    1
    28    10     8    2
    29    10    12    1
    30    17     5    2
    31    15     9    1
