@<TRIPOS>MOLECULE
2y3r_TIR_A_1.pdb
 29 31 0 0 0
SMALL
GASTEIGER

@<TRIPOS>ATOM
      1  N         10.0840   12.0690   73.4050 N.2   700  TIR700     -0.1939
      2  C1        10.7340   12.8160   72.3090 C.3   700  TIR700      0.2072
      3  O1        13.1550   13.0120   71.8910 O.2   700  TIR700     -0.2883
      4  C2        12.1870   12.5540   72.6050 C.2   700  TIR700      0.2124
      5  O2        20.0370    9.4750   72.6280 O.3   700  TIR700     -0.3333
      6  C3        12.4440   11.7460   73.7790 C.2   700  TIR700      0.1578
      7  O3        19.3310    9.3040   70.4250 O.3   700  TIR700     -0.3306
      8  C4        13.6720   11.2600   74.3830 C.2   700  TIR700      0.2055
      9  O4        21.6440   11.8320   69.0550 O.3   700  TIR700     -0.2157
     10  C5        14.9710   11.6650   73.8650 C.2   700  TIR700      0.0211
     11  O5        13.5700   10.4900   75.4710 O.2   700  TIR700     -0.2860
     12  C6        16.1020   11.2790   74.4690 C.3   700  TIR700      0.0510
     13  O6        10.7740   10.7790   75.2140 O.2   700  TIR700     -0.2220
     14  C7        17.4070   11.7770   73.9650 C.2   700  TIR700     -0.0436
     15  C8        18.5150   11.0960   74.3350 C.2   700  TIR700     -0.0322
     16  C9        19.9320   11.5050   73.9190 C.3   700  TIR700      0.0488
     17  C10       20.2920   10.9030   72.5560 C.3   700  TIR700      0.1242
     18  C11       20.1380    8.6960   71.4420 C.3   700  TIR700      0.2032
     19  C12       19.6930    7.2400   71.7010 C.3   700  TIR700      0.0659
     20  C13       19.7180   10.6650   70.0660 C.3   700  TIR700      0.1546
     21  C14       19.6160   11.5530   71.3230 C.3   700  TIR700      0.0578
     22  C15       20.1620   12.9650   71.0950 C.3   700  TIR700      0.0051
     23  C16       21.0930   10.5490   69.3930 C.3   700  TIR700      0.2006
     24  C17       22.0570    9.6020   70.1320 C.2   700  TIR700      0.0047
     25  C18       21.6130    8.7270   71.1000 C.2   700  TIR700      0.0047
     26  C19       22.5000    7.8170   71.9430 C.3   700  TIR700      0.0310
     27  C20       20.9470   10.9590   74.9270 C.3   700  TIR700      0.0072
     28  C21       17.4620   13.0690   73.1250 C.3   700  TIR700      0.0264
     29  C22       11.0390   11.4830   74.1780 C.1   700  TIR700      0.1565
@<TRIPOS>BOND
     1     9    23    1
     2    23    20    1
     3    23    24    1
     4    20     7    1
     5    20    21    1
     6    24    25    2
     7     7    18    1
     8    22    21    1
     9    25    18    1
    10    25    26    1
    11    21    17    1
    12    18    19    1
    13    18     5    1
    14     3     4    1
    15     2     4    1
    16     2     1    1
    17    17     5    1
    18    17    16    1
    19     4     6    2
    20    28    14    1
    21     1    29    2
    22     6    29    1
    23     6     8    1
    24    10     8    2
    25    10    12    1
    26    16    15    1
    27    16    27    1
    28    14    15    2
    29    14    12    1
    30    29    13    2
    31     8    11    1
