@<TRIPOS>MOLECULE
2y3s_TIR_A_1.pdb
 29 31 0 0 0
SMALL
GASTEIGER

@<TRIPOS>ATOM
      1  N         32.3060   -2.4810   17.4890 N.2   700  TIR700     -0.1942
      2  C1        31.5270   -1.6460   16.5270 C.3   700  TIR700      0.2069
      3  O1        32.0220   -1.3250   14.1200 O.2   700  TIR700     -0.2887
      4  O2        34.7950   -5.0290    7.8960 O.3   700  TIR700     -0.3332
      5  O3        32.4800   -5.0340    7.7350 O.3   700  TIR700     -0.3306
      6  C4        34.4780   -3.2340   14.4630 C.3   700  TIR700      0.2100
      7  O4        32.1260   -2.5340    5.1220 O.3   700  TIR700     -0.2157
      8  C5        34.4580   -2.7090   13.1110 C.2   700  TIR700      0.0112
      9  O5        35.4120   -4.0840   14.8480 O.3   700  TIR700     -0.2125
     10  C6        35.2690   -3.1700   12.1900 C.2   700  TIR700     -0.0063
     11  O6        34.1810   -3.8890   17.4160 O.2   700  TIR700     -0.2224
     12  C7        35.3150   -2.6200   10.8240 C.2   700  TIR700     -0.0263
     13  C8        35.8990   -3.4160    9.8680 C.2   700  TIR700     -0.0283
     14  C9        36.0930   -3.0500    8.3830 C.3   700  TIR700      0.0491
     15  C10       34.9260   -3.6290    7.5620 C.3   700  TIR700      0.1242
     16  C11       33.6720   -5.7380    7.2950 C.3   700  TIR700      0.2032
     17  C12       33.5360   -7.1900    7.8340 C.3   700  TIR700      0.0659
     18  C13       32.4020   -3.6720    7.3130 C.3   700  TIR700      0.1546
     19  C14       33.6190   -2.8740    7.8570 C.3   700  TIR700      0.0578
     20  C15       33.5890   -1.4370    7.2870 C.3   700  TIR700      0.0051
     21  C16       32.1840   -3.7800    5.7590 C.3   700  TIR700      0.2006
     22  C17       33.1030   -4.7420    5.0140 C.2   700  TIR700      0.0047
     23  C18       33.7820   -5.6910    5.7460 C.2   700  TIR700      0.0047
     24  C19       34.6390   -6.6600    4.9690 C.3   700  TIR700      0.0310
     25  C20       37.4850   -3.5520    7.9360 C.3   700  TIR700      0.0072
     26  C21       34.7950   -1.2140   10.5340 C.3   700  TIR700      0.0307
     27  C22       33.3240   -3.0980   16.8410 C.1   700  TIR700      0.1520
     28  C3        33.4480   -2.7910   15.4210 C.2   700  TIR700      0.1313
     29  C2        32.3270   -1.8550   15.2790 C.2   700  TIR700      0.2080
@<TRIPOS>BOND
     1    24    23    1
     2    22    23    2
     3    22    21    1
     4     7    21    1
     5    23    16    1
     6    21    18    1
     7    20    19    1
     8    16     5    1
     9    16    17    1
    10    16     4    1
    11    18     5    1
    12    18    19    1
    13    15    19    1
    14    15     4    1
    15    15    14    1
    16    25    14    1
    17    14    13    1
    18    13    12    2
    19    26    12    1
    20    12    10    1
    21    10     8    2
    22     8     6    1
    23     3    29    1
    24     6     9    1
    25     6    28    1
    26    29    28    2
    27    29     2    1
    28    28    27    1
    29     2     1    1
    30    27    11    2
    31    27     1    2
