@<TRIPOS>MOLECULE
2y41_IPM_A_1.pdb
 12 11 0 0 0
SMALL
GASTEIGER

@<TRIPOS>ATOM
      1  C1        -8.3360  -35.7120   18.1020 C.2   800  IPM800      0.3952
      2  C2        -9.2740  -36.0480   16.9700 C.3   800  IPM800      0.2645
      3  C3        -8.5700  -35.6760   15.6230 C.3   800  IPM800      0.1448
      4  C4        -7.1910  -36.3530   15.4850 C.2   800  IPM800      0.3674
      5  C5        -9.4720  -35.8580   14.3850 C.3   800  IPM800      0.0138
      6  C6        -8.6960  -35.4580   13.1210 C.3   800  IPM800      0.0007
      7  C7       -10.7900  -35.0540   14.4880 C.3   800  IPM800      0.0007
      8  O1        -9.5270  -37.4390   16.9460 O.3   800  IPM800     -0.2103
      9  O2        -7.7920  -36.6250   18.6570 O.co2 800  IPM800     -0.2428
     10  O3        -8.0440  -34.4260   18.2860 O.co2 800  IPM800     -0.2428
     11  O4        -6.1150  -35.6630   15.9180 O.co2 800  IPM800     -0.2456
     12  O5        -7.1440  -37.4760   15.0580 O.co2 800  IPM800     -0.2456
@<TRIPOS>BOND
     1     6     5    1
     2     5     7    1
     3     5     3    1
     4    12     4   ar
     5     4     3    1
     6     4    11   ar
     7     3     2    1
     8     8     2    1
     9     2     1    1
    10     1    10   ar
    11     1     9   ar
