@<TRIPOS>MOLECULE
2y42_NAD_A_1.pdb
 44 48 0 0 0
SMALL
GASTEIGER

@<TRIPOS>ATOM
      1  PA         4.1700   10.6450   28.6300 P.3   900  NAD900      0.2189
      2  O1A        2.9780    9.8240   28.1690 O.2   900  NAD900     -0.5170
      3  O2A        4.1750   10.8280   30.1180 O.3   900  NAD900     -0.4371
      4  O5B        4.2240   12.1160   27.9880 O.3   900  NAD900     -0.3112
      5  C5B        3.4820   12.2180   26.7690 C.3   900  NAD900      0.1813
      6  C4B        2.9420   13.6530   26.6200 C.3   900  NAD900      0.1821
      7  O4B        1.5080   13.6540   26.7340 O.3   900  NAD900     -0.3135
      8  C3B        3.4650   14.6020   27.7190 C.3   900  NAD900      0.2184
      9  O3B        3.5990   15.9250   27.1900 O.3   900  NAD900     -0.2174
     10  C2B        2.3580   14.4960   28.8120 C.3   900  NAD900      0.2570
     11  O2B        2.1680   15.6720   29.6030 O.3   900  NAD900     -0.2130
     12  C1B        1.0760   14.2680   27.9770 C.3   900  NAD900      0.3186
     13  N9A        0.1950   13.3780   28.7420 N.pl3 900  NAD900     -0.1439
     14  C8A        0.4900   12.0830   29.0390 C.3   900  NAD900      0.3377
     15  N7A       -0.4620   11.5470   29.7320 N.2   900  NAD900     -0.2095
     16  C5A       -1.4260   12.4560   29.9240 C.2   900  NAD900      0.2526
     17  C6A       -2.6490   12.4090   30.5900 C.2   900  NAD900      0.4393
     18  N6A       -3.0320   11.2410   31.2010 N.pl3 900  NAD900      0.2180
     19  N1A       -3.3940   13.5070   30.6110 N.2   900  NAD900      0.0021
     20  C2A       -2.9840   14.6230   30.0120 C.3   900  NAD900      0.5254
     21  N3A       -1.8280   14.7060   29.3750 N.2   900  NAD900     -0.0055
     22  C4A       -1.0250   13.6510   29.3010 C.2   900  NAD900      0.3518
     23  O3         5.4670    9.7900   28.2540 O.3   900  NAD900     -0.2703
     24  PN         6.7500   10.7530   28.0750 P.3   900  NAD900      0.2189
     25  O1N        7.2110   10.6020   26.6070 O.2   900  NAD900     -0.5170
     26  O2N        6.5030   12.2400   28.4460 O.3   900  NAD900     -0.4371
     27  O5D        7.9470   10.2460   28.9980 O.3   900  NAD900     -0.3112
     28  C5D        7.7050   10.6830   30.3320 C.3   900  NAD900      0.1813
     29  C4D        8.2760    9.6030   31.2500 C.3   900  NAD900      0.1799
     30  O4D        7.4340    8.4180   31.2260 O.3   900  NAD900     -0.3327
     31  C3D        9.6750    9.1850   30.7500 C.3   900  NAD900      0.2158
     32  O3D       10.4970    8.8710   31.8660 O.3   900  NAD900     -0.2175
     33  C2D        9.3820    7.9400   29.8820 C.3   900  NAD900      0.2309
     34  O2D       10.4990    7.0550   29.8760 O.3   900  NAD900     -0.2158
     35  C1D        8.1330    7.3230   30.5730 C.3   900  NAD900      0.2263
     36  N1N        7.2170    6.6100   29.6500 N.pl3 900  NAD900     -0.2787
     37  C2N        6.5130    5.5950   30.1400 C.3   900  NAD900      0.1244
     38  C3N        5.6200    4.8620   29.3380 C.2   900  NAD900      0.0544
     39  C7N        4.8350    3.7280   29.9080 C.2   900  NAD900      0.2818
     40  O7N        4.9420    3.4180   31.0850 O.2   900  NAD900     -0.2670
     41  N7N        3.9800    3.0290   29.1310 N.am  900  NAD900     -0.0839
     42  C4N        5.4830    5.2360   27.9870 C.2   900  NAD900      0.0033
     43  C5N        6.2360    6.3010   27.5100 C.2   900  NAD900      0.0157
     44  C6N        7.0980    6.9710   28.3730 C.2   900  NAD900      0.0633
@<TRIPOS>BOND
     1    25    24    2
     2     6     7    1
     3     6     5    1
     4     6     8    1
     5     7    12    1
     6     5     4    1
     7     9     8    1
     8    43    42    1
     9    43    44    2
    10     8    10    1
    11    12    13    1
    12    12    10    1
    13    42    38    2
    14     4     1    1
    15    24    23    1
    16    24    26    1
    17    24    27    1
    18     2     1    2
    19    23     1    1
    20    44    36    1
    21     1     3    1
    22    13    14    1
    23    13    22    1
    24    10    11    1
    25    27    28    1
    26    14    15    1
    27    41    39   am
    28    22    21    2
    29    22    16    1
    30    38    39    1
    31    38    37    1
    32    21    20    1
    33    36    37    1
    34    36    35    1
    35    15    16    2
    36    34    33    1
    37    33    35    1
    38    33    31    1
    39    39    40    2
    40    16    17    1
    41    20    19    1
    42    28    29    1
    43    35    30    1
    44    17    19    2
    45    17    18    1
    46    31    29    1
    47    31    32    1
    48    30    29    1
