@<TRIPOS>MOLECULE
2y46_HEM_A_1.pdb
 43 50 0 0 0
SMALL
GASTEIGER

@<TRIPOS>ATOM
      1  CHA      -11.0330   -7.6040   60.9260 C.2   450  HEM450      0.0000
      2  CHB       -6.4940   -5.8430   60.6210 C.2   450  HEM450      0.0000
      3  CHC       -6.3730   -7.2360   56.0590 C.2   450  HEM450      0.0000
      4  CHD      -10.9310   -8.9870   56.3060 C.2   450  HEM450      0.0000
      5  C1A       -9.8020   -7.0430   61.2560 C.2   450  HEM450      0.0000
      6  C2A       -9.4270   -6.5820   62.5760 C.2   450  HEM450      0.0000
      7  C3A       -8.1610   -6.1030   62.4880 C.2   450  HEM450      0.0000
      8  C4A       -7.7420   -6.2280   61.1050 C.2   450  HEM450      0.0000
      9  CMA       -7.3480   -5.4730   63.6660 C.3   450  HEM450      0.0000
     10  CAA      -10.2930   -6.5880   63.8710 C.3   450  HEM450      0.0000
     11  CBA      -10.9590   -5.2350   64.1020 C.3   450  HEM450      0.0000
     12  CGA      -11.6080   -5.1760   65.4580 C.2   450  HEM450      0.0000
     13  O1A      -11.8390   -6.2410   66.0960 O.co2 450  HEM450      0.0000
     14  O2A      -11.9330   -4.0480   65.9110 O.co2 450  HEM450      0.0000
     15  C1B       -6.0740   -6.0010   59.3510 C.ar  450  HEM450      0.0000
     16  C2B       -4.8120   -5.5340   58.7810 C.ar  450  HEM450      0.0000
     17  C3B       -4.8290   -5.9270   57.5000 C.ar  450  HEM450      0.0000
     18  C4B       -6.0490   -6.6220   57.2410 C.ar  450  HEM450      0.0000
     19  CMB       -3.7220   -4.7400   59.5490 C.3   450  HEM450      0.0000
     20  CAB       -3.7930   -5.7570   56.3570 C.2   450  HEM450      0.0000
     21  CBB       -2.5150   -5.5600   56.6580 C.2   450  HEM450      0.0000
     22  C1C       -7.5650   -7.9140   55.7690 C.2   450  HEM450      0.0000
     23  C2C       -7.8470   -8.6000   54.5220 C.2   450  HEM450      0.0000
     24  C3C       -9.1170   -9.0300   54.5940 C.2   450  HEM450      0.0000
     25  C4C       -9.6450   -8.6700   55.8910 C.2   450  HEM450      0.0000
     26  CMC       -6.8230   -8.7460   53.3490 C.3   450  HEM450      0.0000
     27  CAC      -10.0120   -9.8500   53.6340 C.2   450  HEM450      0.0000
     28  CBC       -9.5980  -10.3120   52.4370 C.2   450  HEM450      0.0000
     29  C1D      -11.4140   -8.7230   57.5660 C.ar  450  HEM450      0.0000
     30  C2D      -12.7910   -8.9050   57.9720 C.ar  450  HEM450      0.0000
     31  C3D      -12.7940   -8.5060   59.4170 C.ar  450  HEM450      0.0000
     32  C4D      -11.4450   -8.0400   59.7140 C.ar  450  HEM450      0.0000
     33  CMD      -13.8920   -9.4890   57.0750 C.3   450  HEM450      0.0000
     34  CAD      -13.9060   -8.5150   60.4240 C.3   450  HEM450      0.0000
     35  CBD      -14.0620   -9.9080   60.9500 C.3   450  HEM450      0.0000
     36  CGD      -15.2200  -10.0200   61.9490 C.2   450  HEM450      0.0000
     37  O1D      -15.7480   -9.0190   62.4890 O.co2 450  HEM450      0.0000
     38  O2D      -15.5520  -11.1810   62.2500 O.co2 450  HEM450      0.0000
     39  NA        -8.7360   -6.8830   60.3910 N.2   450  HEM450      0.0000
     40  NB        -6.7810   -6.6740   58.3940 N.ar  450  HEM450      0.0000
     41  NC        -8.6740   -7.9790   56.6090 N.2   450  HEM450      0.0000
     42  ND       -10.6720   -8.1690   58.6010 N.ar  450  HEM450      0.0000
     43 FE         -8.6900   -7.4930   58.5040 Fe    450  HEM450      0.0000
@<TRIPOS>BOND
     1    28    27    2
     2    26    23    1
     3    27    24    1
     4    23    24    2
     5    23    22    1
     6    24    25    1
     7    22     3    2
     8    22    41    1
     9    25     4    1
    10    25    41    2
    11     3    18    1
    12     4    29    2
    13    20    21    2
    14    20    17    1
    15    41    43    1
    16    33    30    1
    17    18    17   ar
    18    18    40   ar
    19    17    16   ar
    20    29    30   ar
    21    29    42   ar
    22    30    31   ar
    23    40    43    1
    24    40    15   ar
    25    43    42    1
    26    43    39    1
    27    42    32   ar
    28    16    15   ar
    29    16    19    1
    30    15     2    1
    31    31    32   ar
    32    31    34    1
    33    32     1    2
    34    39     8    1
    35    39     5    2
    36    34    35    1
    37     2     8    2
    38     1     5    1
    39    35    36    1
    40     8     7    1
    41     5     6    1
    42    36    38   ar
    43    36    37   ar
    44     7     6    2
    45     7     9    1
    46     6    10    1
    47    10    11    1
    48    11    12    1
    49    12    14   ar
    50    12    13   ar
