@<TRIPOS>MOLECULE
2y46_MIV_A_1.pdb
 49 51 0 0 0
SMALL
GASTEIGER

@<TRIPOS>ATOM
      1  O5       -14.3450    3.2740   56.6720 O.2   460  MIV460     -0.2449
      2  C24      -13.7820    3.3300   55.5800 C.2   460  MIV460      0.3410
      3  C23      -14.1230    4.2930   54.4960 C.2   460  MIV460      0.0774
      4  C22      -14.7000    5.4410   54.7890 C.2   460  MIV460     -0.0174
      5  C20      -14.9720    6.4400   53.7060 C.3   460  MIV460      0.0495
      6  C21      -14.1410    7.6590   54.1340 C.3   460  MIV460      0.0072
      7  C11      -16.4550    6.8630   53.5790 C.3   460  MIV460      0.1217
      8  O2       -16.5880    7.7030   52.4130 O.3   460  MIV460     -0.3308
      9  C12      -16.8340    9.0820   52.7010 C.3   460  MIV460      0.2679
     10  O4       -18.2430    9.2470   53.0110 O.3   460  MIV460     -0.3311
     11  C18      -18.6420   10.6320   53.1410 C.3   460  MIV460      0.1194
     12  C19      -20.1260   10.6810   53.4560 C.3   460  MIV460      0.0322
     13  C17      -18.2840   11.4650   51.9050 C.3   460  MIV460      0.0483
     14  C14      -16.7730   11.3870   51.6610 C.3   460  MIV460      0.0957
     15  N        -16.3760   12.0410   50.3970 N.3   460  MIV460     -0.2691
     16  C16      -16.9680   11.4570   49.1920 C.3   460  MIV460      0.0897
     17  C15      -16.2140   13.5020   50.4330 C.3   460  MIV460      0.0897
     18  C13      -16.3580    9.9100   51.4970 C.3   460  MIV460      0.2224
     19  O3       -14.9400    9.7640   51.2130 O.3   460  MIV460     -0.2163
     20  C9       -17.4500    5.6970   53.4170 C.3   460  MIV460      0.0281
     21  C10      -18.8810    6.1850   53.6920 C.3   460  MIV460      0.0025
     22  C8       -17.2780    5.0580   52.0200 C.3   460  MIV460      0.0101
     23  C6       -18.2220    3.9180   51.6490 C.3   460  MIV460      0.0620
     24  C7       -18.0510    3.5220   50.1810 C.3   460  MIV460      0.0081
     25  C5       -17.9440    2.7140   52.5090 C.2   460  MIV460      0.1727
     26  O1       -18.8910    2.0760   53.0020 O.2   460  MIV460     -0.2914
     27  C4       -16.5400    2.3130   52.7810 C.2   460  MIV460      0.0374
     28  C3       -16.2900    1.2090   53.5020 C.2   460  MIV460      0.0026
     29  C2       -14.9090    0.8500   53.7840 C.2   460  MIV460     -0.0043
     30  C1       -14.5850    0.4140   55.0080 C.2   460  MIV460     -0.0203
     31  O6       -12.6720    2.4400   55.3050 O.3   460  MIV460     -0.4488
     32  C25      -12.5250    1.2710   56.1190 C.3   460  MIV460      0.1755
     33  C26      -11.0350    1.0530   56.3510 C.3   460  MIV460      0.0441
     34  C27      -10.2860    2.3550   56.5780 C.3   460  MIV460      0.0038
     35  C28      -13.1230    0.0910   55.3360 C.3   460  MIV460      0.0918
     36  C29      -12.8780   -1.2630   56.0140 C.3   460  MIV460      0.1527
     37  O7       -13.3330   -1.2860   57.3710 O.3   460  MIV460     -0.3282
     38  C30      -14.4380   -2.1700   57.5010 C.3   460  MIV460      0.2659
     39  O11      -15.6330   -1.4210   57.7960 O.3   460  MIV460     -0.3284
     40  C36      -16.8340   -2.1910   57.9780 C.3   460  MIV460      0.1507
     41  C37      -18.0380   -1.2470   58.2350 C.3   460  MIV460      0.0350
     42  C35      -16.5890   -3.2520   59.0830 C.3   460  MIV460      0.2084
     43  O10      -17.6930   -4.1490   59.2510 O.3   460  MIV460     -0.2178
     44  C33      -15.2840   -4.0750   58.8810 C.3   460  MIV460      0.1799
     45  O9       -15.3200   -5.2140   57.9450 O.3   460  MIV460     -0.3482
     46  C34      -16.2670   -5.3370   56.8490 C.3   460  MIV460      0.1742
     47  C31      -14.1040   -3.1130   58.6360 C.3   460  MIV460      0.2009
     48  O8       -12.8360   -3.7530   58.3450 O.3   460  MIV460     -0.3458
     49  C32      -12.3290   -4.5670   59.4220 C.3   460  MIV460      0.1743
@<TRIPOS>BOND
     1    16    15    1
     2    24    23    1
     3    15    17    1
     4    15    14    1
     5    19    18    1
     6    18    14    1
     7    18     9    1
     8    23    22    1
     9    23    25    1
    10    14    13    1
    11    13    11    1
    12    22    20    1
    13     8     9    1
    14     8     7    1
    15    25    27    1
    16    25    26    2
    17     9    10    1
    18    27    28    2
    19    10    11    1
    20    11    12    1
    21    20     7    1
    22    20    21    1
    23    28    29    1
    24     7     5    1
    25     5     6    1
    26     5     4    1
    27    29    30    2
    28     3     4    2
    29     3     2    1
    30    30    35    1
    31    31     2    1
    32    31    32    1
    33    35    36    1
    34    35    32    1
    35     2     1    2
    36    36    37    1
    37    32    33    1
    38    33    34    1
    39    46    45    1
    40    37    38    1
    41    38    39    1
    42    38    47    1
    43    39    40    1
    44    45    44    1
    45    40    41    1
    46    40    42    1
    47    48    47    1
    48    48    49    1
    49    47    44    1
    50    44    42    1
    51    42    43    1
