@<TRIPOS>MOLECULE
2y4a_BH6_A_1.pdb
 14 14 0 0 0
SMALL
GASTEIGER

@<TRIPOS>ATOM
      1 CL         -2.4290    2.2580   37.2110 Cl    500  BH6500      0.0000
      2  C14       -2.6600    2.1670   35.4120 C.ar  500  BH6500      0.0000
      3  C13       -3.4240    3.1530   34.7850 C.ar  500  BH6500      0.0000
      4  C12       -3.6020    3.1110   33.4060 C.ar  500  BH6500      0.0000
      5  C11       -3.0290    2.0870   32.6470 C.ar  500  BH6500      0.0000
      6  C8        -2.2670    1.0990   33.2650 C.ar  500  BH6500      0.0000
      7  C7        -2.0970    1.1390   34.6480 C.ar  500  BH6500      0.0000
      8  C5        -1.2320    0.0900   35.2650 C.2   500  BH6500      0.0000
      9  O6        -0.5800    0.3810   36.2520 O.2   500  BH6500      0.0000
     10  N4        -1.1420   -1.1090   34.7030 N.am  500  BH6500      0.0000
     11  C3        -0.3040   -2.1990   35.1660 C.3   500  BH6500      0.0000
     12  B         -0.9490   -2.9790   36.4080 B     500  BH6500      0.0000
     13  O1        -2.2520   -3.5730   35.8590 O.3   500  BH6500      0.0000
     14  O2        -1.2240   -2.0050   37.5790 O.3   500  BH6500      0.0000
@<TRIPOS>BOND
     1     5     6   ar
     2     5     4   ar
     3     6     7   ar
     4     4     3   ar
     5     7     8    1
     6     7     2   ar
     7    10    11    1
     8    10     8   am
     9     3     2   ar
    10    11    12    1
    11     8     9    2
    12     2     1    1
    13    13    12    1
    14    12    14    1
