@<TRIPOS>MOLECULE
2y4e_PP9_A_1.pdb
 42 46 0 0 0
SMALL
GASTEIGER

@<TRIPOS>ATOM
      1  CHA      -30.1680  -28.2580  -19.8670 C.2   1389  PP91389     0.0981
      2  CHB      -27.8910  -24.4130  -18.2790 C.2   1389  PP91389     0.0981
      3  CHC      -25.0390  -27.1310  -15.5260 C.2   1389  PP91389     0.1301
      4  CHD      -27.2880  -30.9610  -17.1370 C.2   1389  PP91389     0.1301
      5  NA       -28.9380  -26.4720  -18.8910 N.2   1389  PP91389    -0.3338
      6  C1A      -29.7590  -26.9390  -19.8320 C.1   1389  PP91389     0.0112
      7  C2A      -30.1200  -25.9160  -20.6910 C.2   1389  PP91389     0.0404
      8  C3A      -29.4470  -24.8090  -20.2260 C.2   1389  PP91389     0.0402
      9  C4A      -28.7120  -25.1740  -19.1090 C.1   1389  PP91389     0.0112
     10  CMA      -29.4950  -23.4020  -20.8280 C.3   1389  PP91389     0.0418
     11  CAA      -31.0350  -26.0460  -21.9230 C.3   1389  PP91389     0.0482
     12  CBA      -32.5290  -25.8020  -21.6890 C.3   1389  PP91389     0.1194
     13  CGA      -33.1000  -26.7210  -20.6270 C.2   1389  PP91389     0.3652
     14  O1A      -33.3940  -27.9020  -20.9480 O.co2 1389  PP91389    -0.2456
     15  O2A      -33.2330  -26.1990  -19.5050 O.co2 1389  PP91389    -0.2456
     16  NB       -26.6780  -25.9690  -16.8830 N.2   1389  PP91389    -0.3673
     17  C1B      -26.7420  -24.8310  -17.6100 C.2   1389  PP91389     0.1469
     18  C2B      -25.5110  -24.2000  -17.5060 C.2   1389  PP91389     0.0141
     19  C3B      -24.7020  -24.9850  -16.7220 C.2   1389  PP91389     0.0333
     20  C4B      -25.4440  -26.0890  -16.3460 C.1   1389  PP91389     0.0084
     21  CMB      -25.1130  -22.8790  -18.1530 C.3   1389  PP91389     0.0341
     22  CAB      -23.3770  -24.7280  -16.3640 C.3   1389  PP91389     0.0358
     23  CBB      -22.3880  -25.7020  -16.4990 C.3   1389  PP91389     0.0057
     24  NC       -26.2840  -28.8970  -16.5100 N.2   1389  PP91389    -0.3327
     25  C1C      -25.4000  -28.4560  -15.6090 C.1   1389  PP91389     0.0183
     26  C2C      -24.9650  -29.5280  -14.8520 C.2   1389  PP91389     0.0407
     27  C3C      -25.6170  -30.6350  -15.3240 C.2   1389  PP91389     0.0404
     28  C4C      -26.4430  -30.2110  -16.3510 C.1   1389  PP91389     0.0183
     29  CMC      -23.9560  -29.4870  -13.7040 C.3   1389  PP91389     0.0418
     30  CAC      -25.5020  -31.9350  -14.8370 C.3   1389  PP91389     0.0364
     31  CBC      -24.8550  -32.9360  -15.5440 C.3   1389  PP91389     0.0058
     32  ND       -28.5370  -29.3220  -18.4320 N.2   1389  PP91389    -0.3673
     33  C1D      -28.3280  -30.5580  -17.9530 C.1   1389  PP91389     0.0084
     34  C2D      -29.3230  -31.3780  -18.4370 C.2   1389  PP91389     0.0336
     35  C3D      -30.1660  -30.6410  -19.2230 C.2   1389  PP91389     0.0143
     36  C4D      -29.6410  -29.3540  -19.2040 C.2   1389  PP91389     0.1469
     37  CMD      -29.4390  -32.8640  -18.1290 C.3   1389  PP91389     0.0412
     38  CAD      -31.4060  -31.1380  -19.9800 C.3   1389  PP91389     0.0411
     39  CBD      -30.9880  -31.5780  -21.3860 C.3   1389  PP91389     0.1188
     40  CGD      -31.3250  -30.5270  -22.4570 C.2   1389  PP91389     0.3652
     41  O1D      -32.2390  -30.8360  -23.2600 O.co2 1389  PP91389    -0.2456
     42  O2D      -30.6560  -29.4610  -22.4680 O.co2 1389  PP91389    -0.2456
@<TRIPOS>BOND
     1    41    40   ar
     2    42    40   ar
     3    40    39    1
     4    11    12    1
     5    11     7    1
     6    12    13    1
     7    39    38    1
     8    14    13   ar
     9    10     8    1
    10     7     8    2
    11     7     6    1
    12    13    15   ar
    13     8     9    1
    14    38    35    1
    15     1     6    2
    16     1    36    1
    17     6     5    2
    18    35    36    1
    19    35    34    2
    20    36    32    2
    21     9     5    2
    22     9     2    2
    23    34    37    1
    24    34    33    1
    25    32    33    2
    26     2    17    1
    27    21    18    1
    28    33     4    2
    29    17    18    1
    30    17    16    2
    31    18    19    2
    32     4    28    1
    33    16    20    2
    34    19    22    1
    35    19    20    1
    36    24    28    2
    37    24    25    2
    38    23    22    1
    39    28    27    2
    40    20     3    2
    41    25     3    1
    42    25    26    2
    43    31    30    1
    44    27    26    1
    45    27    30    1
    46    26    29    1
