@<TRIPOS>MOLECULE
2y4f_HEM_A_1.pdb
 43 50 0 0 0
SMALL
GASTEIGER

@<TRIPOS>ATOM
      1  CHA       11.3240  -28.4640  -20.0870 C.2   389  HEM389      0.0000
      2  CHB       13.6390  -24.5180  -18.6340 C.2   389  HEM389      0.0000
      3  CHC       16.4510  -27.3830  -15.9660 C.2   389  HEM389      0.0000
      4  CHD       13.6840  -31.2190  -16.8780 C.2   389  HEM389      0.0000
      5  C1A       11.7880  -27.1740  -20.0040 C.ar  389  HEM389      0.0000
      6  C2A       11.4070  -26.0950  -20.8940 C.ar  389  HEM389      0.0000
      7  C3A       12.0450  -24.9990  -20.4790 C.ar  389  HEM389      0.0000
      8  C4A       12.8400  -25.3630  -19.3420 C.ar  389  HEM389      0.0000
      9  CMA       11.9710  -23.5760  -21.0630 C.3   389  HEM389      0.0000
     10  CAA       10.4140  -26.2380  -22.0700 C.3   389  HEM389      0.0000
     11  CBA        8.9660  -25.9920  -21.6260 C.3   389  HEM389      0.0000
     12  CGA        8.4390  -27.1450  -20.8090 C.2   389  HEM389      0.0000
     13  O1A        8.1110  -26.9350  -19.6170 O.co2 389  HEM389      0.0000
     14  O2A        8.3450  -28.2790  -21.3340 O.co2 389  HEM389      0.0000
     15  C1B       14.6710  -24.9780  -17.8590 C.2   389  HEM389      0.0000
     16  C2B       15.8110  -24.1990  -17.4450 C.2   389  HEM389      0.0000
     17  C3B       16.5920  -25.0030  -16.7210 C.2   389  HEM389      0.0000
     18  C4B       15.9630  -26.3100  -16.6470 C.2   389  HEM389      0.0000
     19  CMB       16.0610  -22.7290  -17.8160 C.3   389  HEM389      0.0000
     20  CAB       17.9410  -24.6240  -16.0760 C.2   389  HEM389      0.0000
     21  CBB       17.9520  -23.6600  -15.1640 C.2   389  HEM389      0.0000
     22  C1C       15.9110  -28.6280  -15.9250 C.ar  389  HEM389      0.0000
     23  C2C       16.3750  -29.7110  -15.0810 C.ar  389  HEM389      0.0000
     24  C3C       15.6140  -30.7910  -15.3480 C.ar  389  HEM389      0.0000
     25  C4C       14.6500  -30.4070  -16.3620 C.ar  389  HEM389      0.0000
     26  CMC       17.5310  -29.6020  -14.0710 C.3   389  HEM389      0.0000
     27  CAC       15.6690  -32.2020  -14.7090 C.2   389  HEM389      0.0000
     28  CBC       16.7780  -32.9430  -14.6770 C.2   389  HEM389      0.0000
     29  C1D       12.7720  -30.8490  -17.8260 C.2   389  HEM389      0.0000
     30  C2D       11.7470  -31.7020  -18.3900 C.2   389  HEM389      0.0000
     31  C3D       11.0230  -30.8200  -19.3940 C.2   389  HEM389      0.0000
     32  C4D       11.6750  -29.5420  -19.3230 C.2   389  HEM389      0.0000
     33  CMD       11.4280  -33.1820  -18.0700 C.3   389  HEM389      0.0000
     34  CAD        9.8360  -31.2070  -20.3030 C.3   389  HEM389      0.0000
     35  CBD       10.3590  -31.3190  -21.7320 C.3   389  HEM389      0.0000
     36  CGD        9.4870  -32.2520  -22.5230 C.2   389  HEM389      0.0000
     37  O1D        9.1650  -31.9150  -23.6910 O.co2 389  HEM389      0.0000
     38  O2D        9.1220  -33.3270  -21.9890 O.co2 389  HEM389      0.0000
     39  NA        12.6660  -26.6980  -19.0680 N.ar  389  HEM389      0.0000
     40  NB        14.7910  -26.2640  -17.3570 N.2   389  HEM389      0.0000
     41  NC        14.8550  -29.0830  -16.6940 N.ar  389  HEM389      0.0000
     42  ND        12.6980  -29.5930  -18.3940 N.2   389  HEM389      0.0000
     43 FE         13.7500  -27.9120  -17.9030 Fe    389  HEM389      0.0000
@<TRIPOS>BOND
     1    37    36   ar
     2    36    38   ar
     3    36    35    1
     4    10    11    1
     5    10     6    1
     6    35    34    1
     7    11    12    1
     8    14    12   ar
     9     9     7    1
    10     6     7   ar
    11     6     5   ar
    12    12    13   ar
    13     7     8   ar
    14    34    31    1
    15     1     5    2
    16     1    32    1
    17     5    39   ar
    18    31    32    1
    19    31    30    2
    20     8    39   ar
    21     8     2    2
    22    32    42    2
    23    39    43    1
    24     2    15    1
    25    42    43    1
    26    42    29    1
    27    30    33    1
    28    30    29    1
    29    43    40    1
    30    43    41    1
    31    15    16    1
    32    15    40    2
    33    29     4    2
    34    19    16    1
    35    16    17    2
    36    40    18    1
    37     4    25    1
    38    17    18    1
    39    17    20    1
    40    41    25   ar
    41    41    22   ar
    42    18     3    2
    43    25    24   ar
    44    20    21    2
    45     3    22    1
    46    22    23   ar
    47    24    23   ar
    48    24    27    1
    49    23    26    1
    50    27    28    2
