@<TRIPOS>MOLECULE
2y4g_TIR_A_1.pdb
 29 31 0 0 0
SMALL
GASTEIGER

@<TRIPOS>ATOM
      1  N          4.7400   12.6370  -12.2740 N.2   800  TIR800     -0.1939
      2  C1         5.4350   13.6130  -13.1560 C.3   800  TIR800      0.2072
      3  O1         7.6580   14.7000  -12.7830 O.2   800  TIR800     -0.2883
      4  O2        14.9840   13.9230   -9.6870 O.3   800  TIR800     -0.3333
      5  O3        14.9820   13.4950  -11.9580 O.3   800  TIR800     -0.3306
      6  C4         7.9100   13.1520  -10.1310 C.2   800  TIR800      0.2055
      7  O4        16.3770   16.6820  -13.0810 O.3   800  TIR800     -0.2157
      8  C5         9.0860   14.0480  -10.3420 C.2   800  TIR800      0.0211
      9  O5         7.8170   12.4110   -9.0270 O.2   800  TIR800     -0.2860
     10  C6        10.0240   14.1310   -9.3900 C.3   800  TIR800      0.0510
     11  O6         5.1740   11.5850  -10.2230 O.2   800  TIR800     -0.2220
     12  C7        11.1840   15.0460   -9.4520 C.2   800  TIR800     -0.0436
     13  C8        12.3450   14.7400   -8.8090 C.2   800  TIR800     -0.0322
     14  C9        13.5510   15.6640   -8.7810 C.3   800  TIR800      0.0488
     15  C10       14.5820   15.3220   -9.8540 C.3   800  TIR800      0.1242
     16  C11       15.7180   13.2660  -10.7500 C.3   800  TIR800      0.2032
     17  C12       15.8060   11.7560  -10.4540 C.3   800  TIR800      0.0659
     18  C13       14.8950   14.8920  -12.3220 C.3   800  TIR800      0.1546
     19  C14       14.0930   15.6890  -11.2720 C.3   800  TIR800      0.0578
     20  C15       13.9640   17.1950  -11.5550 C.3   800  TIR800      0.0051
     21  C16       16.3310   15.3180  -12.6820 C.3   800  TIR800      0.2006
     22  C17       17.4100   14.8760  -11.6970 C.2   800  TIR800      0.0047
     23  C18       17.1240   13.8790  -10.8270 C.2   800  TIR800      0.0047
     24  C19       18.1560   13.4070   -9.8490 C.3   800  TIR800      0.0310
     25  C20       14.2050   15.5100   -7.4150 C.3   800  TIR800      0.0072
     26  C21       10.9730   16.3530  -10.1840 C.3   800  TIR800      0.0264
     27  C22        5.5220   12.4020  -11.1720 C.1   800  TIR800      0.1565
     28  C3         6.8000   13.1620  -11.1170 C.2   800  TIR800      0.1578
     29  C2         6.7080   13.8750  -12.3890 C.2   800  TIR800      0.2124
@<TRIPOS>BOND
     1     2    29    1
     2     2     1    1
     3     7    21    1
     4     3    29    1
     5    21    18    1
     6    21    22    1
     7    29    28    2
     8    18     5    1
     9    18    19    1
    10     1    27    2
    11     5    16    1
    12    22    23    2
    13    20    19    1
    14    19    15    1
    15    27    28    1
    16    27    11    2
    17    28     6    1
    18    23    16    1
    19    23    24    1
    20    16    17    1
    21    16     4    1
    22     8     6    2
    23     8    10    1
    24    26    12    1
    25     6     9    1
    26    15     4    1
    27    15    14    1
    28    12    10    1
    29    12    13    2
    30    13    14    1
    31    14    25    1
