@<TRIPOS>MOLECULE
2y4i_ATP_B_1.pdb
 31 33 0 0 0
SMALL
GASTEIGER

@<TRIPOS>ATOM
      1  PG       -12.9860   59.9710   -3.7550 P.3   1932  ATP1932     0.5373
      2  O1G      -11.9040   59.1080   -3.1490 O.3   1932  ATP1932    -0.1143
      3  O2G      -14.2290   60.0970   -2.9080 O.3   1932  ATP1932    -0.1143
      4  O3G      -13.2660   59.6820   -5.2110 O.2   1932  ATP1932    -0.2221
      5  PB       -10.7650   61.6490   -3.8270 P.3   1932  ATP1932     0.2277
      6  O1B      -10.4430   63.0930   -4.1380 O.2   1932  ATP1932    -0.5168
      7  O2B      -10.1570   61.0050   -2.6060 O.3   1932  ATP1932    -0.4368
      8  O3B      -12.3610   61.4580   -3.7580 O.3   1932  ATP1932    -0.2258
      9  PA        -9.5390   61.1170   -6.3670 P.3   1932  ATP1932     0.2189
     10  O1A       -9.9180   60.1930   -7.5050 O.2   1932  ATP1932    -0.5170
     11  O2A       -9.5910   62.6150   -6.5520 O.3   1932  ATP1932    -0.4371
     12  O3A      -10.4790   60.7260   -5.1200 O.3   1932  ATP1932    -0.2700
     13  O5'       -8.0600   60.7350   -5.8650 O.3   1932  ATP1932    -0.3112
     14  C5'       -7.7770   60.7320   -4.4710 C.3   1932  ATP1932     0.1813
     15  C4'       -6.3760   61.2580   -4.2180 C.3   1932  ATP1932     0.1821
     16  O4'       -5.8580   61.8640   -5.4030 O.3   1932  ATP1932    -0.3135
     17  C3'       -6.4160   62.3070   -3.1180 C.3   1932  ATP1932     0.2184
     18  O3'       -5.6740   61.8490   -1.9840 O.3   1932  ATP1932    -0.2174
     19  C2'       -5.7720   63.5390   -3.7170 C.3   1932  ATP1932     0.2570
     20  O2'       -4.7120   64.0240   -2.8850 O.3   1932  ATP1932    -0.2130
     21  C1'       -5.2410   63.1090   -5.0770 C.3   1932  ATP1932     0.3186
     22  N9        -5.6490   64.1150   -6.0780 N.pl3 1932  ATP1932    -0.1439
     23  C8        -6.6630   63.9560   -6.9430 C.3   1932  ATP1932     0.3377
     24  N7        -6.7960   65.0520   -7.7310 N.2   1932  ATP1932    -0.2095
     25  C5        -5.8500   65.9370   -7.3670 C.2   1932  ATP1932     0.2526
     26  C6        -5.4400   67.2930   -7.8000 C.2   1932  ATP1932     0.4393
     27  N6        -6.0950   67.9270   -8.8060 N.pl3 1932  ATP1932     0.2180
     28  N1        -4.3960   67.8670   -7.1570 N.2   1932  ATP1932     0.0021
     29  C2        -3.7490   67.2360   -6.1600 C.3   1932  ATP1932     0.5254
     30  N3        -4.0710   66.0060   -5.7200 N.2   1932  ATP1932    -0.0055
     31  C4        -5.0930   65.3140   -6.2740 C.2   1932  ATP1932     0.3518
@<TRIPOS>BOND
     1    27    26    1
     2    26    25    1
     3    26    28    2
     4    24    25    2
     5    24    23    1
     6    10     9    2
     7    25    31    1
     8    28    29    1
     9    23    22    1
    10    11     9    1
    11     9    13    1
    12     9    12    1
    13    31    22    1
    14    31    30    2
    15    29    30    1
    16    22    21    1
    17    13    14    1
    18    16    21    1
    19    16    15    1
    20     4     1    2
    21    12     5    1
    22    21    19    1
    23    14    15    1
    24    15    17    1
    25     6     5    2
    26     5     8    1
    27     5     7    1
    28     8     1    1
    29     1     2    1
    30     1     3    1
    31    19    17    1
    32    19    20    1
    33    17    18    1
