@<TRIPOS>MOLECULE
2y4k_GDP_A_1.pdb
 28 30 0 0 0
SMALL
GASTEIGER

@<TRIPOS>ATOM
      1  PB        38.7830  -45.1400   -5.0610 P.3   401  GDP401      0.5373
      2  O1B       40.0050  -45.0260   -5.9600 O.2   401  GDP401     -0.2221
      3  O2B       37.5030  -45.1440   -5.9110 O.3   401  GDP401     -0.1143
      4  O3B       38.8910  -46.4030   -4.2060 O.3   401  GDP401     -0.1143
      5  O3A       38.8380  -43.8540   -4.0610 O.3   401  GDP401     -0.2261
      6  PA        38.2470  -42.3980   -4.3810 P.3   401  GDP401      0.2231
      7  O1A       39.3730  -41.3870   -4.3950 O.3   401  GDP401     -0.4370
      8  O2A       37.4240  -42.3570   -5.6590 O.2   401  GDP401     -0.5169
      9  O5'       37.3060  -42.3080   -3.0960 O.3   401  GDP401     -0.3111
     10  C5'       36.3430  -43.3150   -2.7800 C.3   401  GDP401      0.1813
     11  C4'       35.0690  -42.6220   -2.2820 C.3   401  GDP401      0.1799
     12  O4'       35.1740  -42.1100   -0.9360 O.3   401  GDP401     -0.3326
     13  C3'       34.7020  -41.4180   -3.1230 C.3   401  GDP401      0.2158
     14  O3'       33.2760  -41.3420   -3.1140 O.3   401  GDP401     -0.2175
     15  C2'       35.3250  -40.2590   -2.3480 C.3   401  GDP401      0.2310
     16  O2'       34.6680  -39.0310   -2.5850 O.3   401  GDP401     -0.2158
     17  C1'       35.1380  -40.6780   -0.9100 C.3   401  GDP401      0.2293
     18  N9        36.2020  -40.2260    0.0050 N.pl3 401  GDP401     -0.2354
     19  C8        37.5430  -40.4200   -0.1190 C.3   401  GDP401      0.2246
     20  N7        38.2130  -39.9060    0.9530 N.2   401  GDP401     -0.2322
     21  C5        37.2860  -39.3860    1.7830 C.2   401  GDP401      0.2182
     22  C6        37.2950  -38.6690    3.0830 C.1   401  GDP401      0.2372
     23  O6        38.3640  -38.4450    3.6770 O.2   401  GDP401     -0.2069
     24  N1        36.1190  -38.3050    3.6070 N.2   401  GDP401     -0.2485
     25  C2        34.9350  -38.5370    2.9840 C.1   401  GDP401      0.2531
     26  N2        33.7820  -38.1200    3.5810 N.pl3 401  GDP401     -0.0226
     27  N3        34.8530  -39.1770    1.7870 N.2   401  GDP401     -0.3074
     28  C4        35.9660  -39.6010    1.1550 C.2   401  GDP401      0.2300
@<TRIPOS>BOND
     1     2     1    2
     2     3     1    1
     3     8     6    2
     4     1     4    1
     5     1     5    1
     6     7     6    1
     7     6     5    1
     8     6     9    1
     9    13    14    1
    10    13    15    1
    11    13    11    1
    12     9    10    1
    13    10    11    1
    14    16    15    1
    15    15    17    1
    16    11    12    1
    17    12    17    1
    18    17    18    1
    19    19    18    1
    20    19    20    1
    21    18    28    1
    22    20    21    2
    23    28    21    1
    24    28    27    2
    25    21    22    1
    26    27    25    2
    27    25    26    1
    28    25    24    2
    29    22    24    2
    30    22    23    2
