@<TRIPOS>MOLECULE
2y4l_GDP_A_1.pdb
 28 30 0 0 0
SMALL
GASTEIGER

@<TRIPOS>ATOM
      1  PB        92.5460  -22.3780  111.5800 P.3   401  GDP401      0.5373
      2  O1B       92.2230  -23.3290  110.4540 O.2   401  GDP401     -0.2221
      3  O2B       91.3140  -22.1090  112.3990 O.3   401  GDP401     -0.1143
      4  O3B       92.9680  -21.0580  110.9530 O.3   401  GDP401     -0.1143
      5  O3A       93.7400  -22.9840  112.4600 O.3   401  GDP401     -0.2261
      6  PA        95.2030  -23.3720  111.8680 P.3   401  GDP401      0.2231
      7  O1A       95.2790  -24.5740  110.9450 O.2   401  GDP401     -0.5169
      8  O2A       95.8970  -22.2580  111.1470 O.3   401  GDP401     -0.4370
      9  O5'       95.8820  -23.6170  113.3130 O.3   401  GDP401     -0.3111
     10  C5'       95.5260  -22.7750  114.4000 C.3   401  GDP401      0.1813
     11  C4'       96.7780  -22.6090  115.2340 C.3   401  GDP401      0.1799
     12  O4'       97.1010  -23.8510  115.8380 O.3   401  GDP401     -0.3326
     13  C3'       97.9780  -22.3460  114.3770 C.3   401  GDP401      0.2158
     14  O3'       98.8290  -21.5800  115.2330 O.3   401  GDP401     -0.2175
     15  C2'       98.5230  -23.7330  114.0640 C.3   401  GDP401      0.2310
     16  O2'       99.9040  -23.7210  113.8430 O.3   401  GDP401     -0.2158
     17  C1'       98.3540  -24.3730  115.3840 C.3   401  GDP401      0.2293
     18  N9        98.2520  -25.8400  115.3750 N.pl3 401  GDP401     -0.2354
     19  C8        97.4050  -26.6170  114.6530 C.3   401  GDP401      0.2246
     20  N7        97.5490  -27.9340  114.9670 N.2   401  GDP401     -0.2322
     21  C5        98.5170  -27.9790  115.9200 C.2   401  GDP401      0.2182
     22  C6        99.1920  -29.0310  116.7140 C.1   401  GDP401      0.2372
     23  O6        98.8570  -30.2080  116.5380 O.2   401  GDP401     -0.2069
     24  N1       100.1300  -28.6950  117.6150 N.2   401  GDP401     -0.2485
     25  C2       100.4760  -27.4070  117.8150 C.1   401  GDP401      0.2531
     26  N2       101.4170  -27.1250  118.7300 N.pl3 401  GDP401     -0.0226
     27  N3        99.9140  -26.3860  117.1340 N.2   401  GDP401     -0.3074
     28  C4        98.9570  -26.6080  116.1990 C.2   401  GDP401      0.2300
@<TRIPOS>BOND
     1     2     1    2
     2     7     6    2
     3     4     1    1
     4     8     6    1
     5     1     3    1
     6     1     5    1
     7     6     5    1
     8     6     9    1
     9     9    10    1
    10    16    15    1
    11    15    13    1
    12    15    17    1
    13    13    14    1
    14    13    11    1
    15    10    11    1
    16    19    20    1
    17    19    18    1
    18    20    21    2
    19    11    12    1
    20    18    17    1
    21    18    28    1
    22    17    12    1
    23    21    28    1
    24    21    22    1
    25    28    27    2
    26    23    22    2
    27    22    24    2
    28    27    25    2
    29    24    25    2
    30    25    26    1
