@<TRIPOS>MOLECULE
2y4m_GDX_A_1.pdb
 39 42 0 0 0
SMALL
GASTEIGER

@<TRIPOS>ATOM
      1  N2        47.1320  -28.2210   67.2350 N.pl3 401  GDX401     -0.0226
      2  C2        47.9440  -28.7980   66.3150 C.1   401  GDX401      0.2531
      3  N1        49.3050  -28.4040   66.1690 N.2   401  GDX401     -0.2485
      4  N3        47.3760  -29.7320   65.5500 N.2   401  GDX401     -0.3074
      5  C4        48.0780  -30.3730   64.6120 C.2   401  GDX401      0.2300
      6  C5        49.4040  -30.0680   64.3970 C.2   401  GDX401      0.2182
      7  C6        50.0110  -29.0810   65.1600 C.1   401  GDX401      0.2372
      8  O6        51.2070  -28.8110   64.9240 O.2   401  GDX401     -0.2069
      9  N7        49.8520  -30.8730   63.3960 N.2   401  GDX401     -0.2322
     10  C8        48.8070  -31.6510   63.0170 C.3   401  GDX401      0.2246
     11  N9        47.7360  -31.3320   63.7640 N.pl3 401  GDX401     -0.2354
     12  C1D       46.4090  -31.9610   63.7400 C.3   401  GDX401      0.2293
     13  C2D       45.9020  -32.0810   62.3490 C.3   401  GDX401      0.2310
     14  O2D       45.2150  -30.8620   62.0840 O.3   401  GDX401     -0.2158
     15  C3D       45.0360  -33.3310   62.4810 C.3   401  GDX401      0.2158
     16  O3D       43.7920  -33.0790   63.1490 O.3   401  GDX401     -0.2175
     17  C4D       45.7860  -34.2190   63.4360 C.3   401  GDX401      0.1799
     18  O4D       46.5990  -33.3070   64.1690 O.3   401  GDX401     -0.3326
     19  C5D       46.6180  -35.2780   62.7300 C.3   401  GDX401      0.1813
     20  O5D       47.2130  -34.6370   61.6210 O.3   401  GDX401     -0.3112
     21  PA        47.2360  -35.3140   60.1730 P.3   401  GDX401      0.2189
     22  O1A       45.8340  -35.7470   59.8570 O.3   401  GDX401     -0.4371
     23  O2A       47.9770  -34.3650   59.2610 O.2   401  GDX401     -0.5170
     24  O3A       48.1270  -36.6200   60.4510 O.3   401  GDX401     -0.2703
     25  PB        47.8510  -38.1640   60.0870 P.3   401  GDX401      0.2208
     26  O2B       48.7880  -38.4670   58.9630 O.2   401  GDX401     -0.5170
     27  O3B       46.3890  -38.4970   59.9800 O.3   401  GDX401     -0.4371
     28  O1B       48.4080  -38.9040   61.4110 O.3   401  GDX401     -0.2857
     29  C1'       48.0530  -40.1280   62.0930 C.3   401  GDX401      0.2745
     30  O5'       49.1960  -40.6200   62.8390 O.3   401  GDX401     -0.3201
     31  C5'       49.8820  -39.6340   63.6510 C.3   401  GDX401      0.2147
     32  C6'       51.1390  -40.2430   64.2370 C.2   401  GDX401      0.2394
     33  O6A       51.5610  -39.9910   65.4000 O.2   401  GDX401     -0.2855
     34  C2'       47.0350  -39.8110   63.1910 C.3   401  GDX401      0.2409
     35  O2'       46.8040  -40.9630   64.0410 O.3   401  GDX401     -0.2149
     36  C3'       47.5840  -38.6520   64.0340 C.3   401  GDX401      0.2202
     37  O3'       46.6320  -38.1880   65.0080 O.3   401  GDX401     -0.2174
     38  C4'       48.8990  -39.0540   64.6970 C.3   401  GDX401      0.2194
     39  O4'       49.3970  -37.8940   65.3950 O.3   401  GDX401     -0.2172
@<TRIPOS>BOND
     1    26    25    2
     2    23    21    2
     3    22    21    1
     4    27    25    1
     5    25    24    1
     6    25    28    1
     7    21    24    1
     8    21    20    1
     9    28    29    1
    10    20    19    1
    11    14    13    1
    12    29    30    1
    13    29    34    1
    14    13    15    1
    15    13    12    1
    16    15    16    1
    17    15    17    1
    18    19    17    1
    19    30    31    1
    20    10     9    1
    21    10    11    1
    22    34    36    1
    23    34    35    1
    24     9     6    2
    25    17    18    1
    26    31    32    1
    27    31    38    1
    28    12    11    1
    29    12    18    1
    30    11     5    1
    31    36    38    1
    32    36    37    1
    33    32    33    2
    34     6     5    1
    35     6     7    1
    36     5     4    2
    37    38    39    1
    38     8     7    2
    39     7     3    2
    40     4     2    2
    41     3     2    2
    42     2     1    1
