@<TRIPOS>MOLECULE
2y4n_DLL_A_1.pdb
 32 35 0 0 0
SMALL
GASTEIGER

@<TRIPOS>ATOM
      1  O         -7.2000    6.8370   11.4860 O.2   1436  DLL1436    -0.2495
      2  CB        -4.7860    6.8550   11.7680 C.3   1436  DLL1436     0.1361
      3  CG        -4.8940    5.4070   12.2550 C.ar  1436  DLL1436    -0.0111
      4  CD2       -4.7840    4.3650   11.3410 C.ar  1436  DLL1436    -0.0037
      5  CD1       -4.9180    5.1310   13.6200 C.ar  1436  DLL1436    -0.0037
      6  CE2       -4.8440    3.0440   11.7730 C.ar  1436  DLL1436    -0.0003
      7  CE1       -4.9890    3.8140   14.0530 C.ar  1436  DLL1436    -0.0003
      8  CZ        -4.9220    2.7710   13.1320 C.ar  1436  DLL1436    -0.0000
      9  P         -7.2590    9.6200   10.3490 P.3   1436  DLL1436     0.2722
     10  O2P       -7.7330    9.0360    9.0710 O.2   1436  DLL1436    -0.5082
     11  O3P       -6.7260   10.9880   10.3560 O.3   1436  DLL1436    -0.4273
     12  O1P       -6.0170    8.7530   10.9380 O.3   1436  DLL1436    -0.4098
     13  O5'       -8.4400    9.5020   11.4140 O.3   1436  DLL1436    -0.3024
     14  C5'       -8.1720   10.2010   12.5490 C.3   1436  DLL1436     0.1823
     15  O4'       -9.7540    8.7200   13.8190 O.3   1436  DLL1436    -0.3135
     16  O3'       -8.7440   11.8120   15.2690 O.3   1436  DLL1436    -0.2174
     17  C2'       -9.8310    9.7550   15.9810 C.3   1436  DLL1436     0.2570
     18  O2'      -10.9890   10.6090   15.9580 O.3   1436  DLL1436    -0.2130
     19  C1'      -10.0960    8.4660   15.1950 C.3   1436  DLL1436     0.3186
     20  N9        -9.2850    7.3720   15.8020 N.pl3 1436  DLL1436    -0.1439
     21  C8        -8.0420    6.8330   15.2460 C.3   1436  DLL1436     0.3377
     22  N7        -7.6300    5.8740   16.2770 N.2   1436  DLL1436    -0.2095
     23  C5        -8.6000    5.7900   17.1960 C.2   1436  DLL1436     0.2526
     24  C6        -8.7610    5.0310   18.3580 C.2   1436  DLL1436     0.4393
     25  CAZ       -6.1390    7.4380   11.3030 C.2   1436  DLL1436     0.3254
     26  N6        -7.8920    4.0780   18.7040 N.pl3 1436  DLL1436     0.2180
     27  C4'       -9.0170    9.8710   13.7730 C.3   1436  DLL1436     0.1822
     28  N1        -9.8340    5.2400   19.1430 N.2   1436  DLL1436     0.0021
     29  C3'       -8.7040   10.3800   15.1840 C.3   1436  DLL1436     0.2184
     30  C2       -10.7350    6.1520   18.8440 C.3   1436  DLL1436     0.5254
     31  C4        -9.5600    6.7600   16.9380 C.2   1436  DLL1436     0.3518
     32  N3       -10.6080    6.9020   17.7680 N.2   1436  DLL1436    -0.0055
@<TRIPOS>BOND
     1    10     9    2
     2     9    11    1
     3     9    12    1
     4     9    13    1
     5    12    25    1
     6    25     1    2
     7    25     2    1
     8     4     6   ar
     9     4     3   ar
    10    13    14    1
    11     2     3    1
    12     6     8   ar
    13     3     5   ar
    14    14    27    1
    15     8     7   ar
    16     5     7   ar
    17    27    15    1
    18    27    29    1
    19    15    19    1
    20    29    16    1
    21    29    17    1
    22    19    20    1
    23    19    17    1
    24    21    20    1
    25    21    22    1
    26    20    31    1
    27    18    17    1
    28    22    23    2
    29    31    23    1
    30    31    32    2
    31    23    24    1
    32    32    30    1
    33    24    26    1
    34    24    28    2
    35    30    28    1
