@<TRIPOS>MOLECULE
2y4n_PAC_B_1.pdb
 10 10 0 0 0
SMALL
GASTEIGER

@<TRIPOS>ATOM
      1  C1        -2.9260   -9.7460   -9.4220 C.2   1433  PAC1433     0.3692
      2  C2        -3.2840   -8.7380  -10.4920 C.3   1433  PAC1433     0.1404
      3  C1'       -3.4780   -7.3570   -9.8980 C.ar  1433  PAC1433    -0.0109
      4  C2'       -3.9120   -7.2050   -8.5830 C.ar  1433  PAC1433    -0.0037
      5  C3'       -4.0910   -5.9330   -8.0470 C.ar  1433  PAC1433    -0.0003
      6  C4'       -3.8680   -4.8080   -8.8370 C.ar  1433  PAC1433    -0.0000
      7  C5'       -3.4550   -4.9570  -10.1570 C.ar  1433  PAC1433    -0.0003
      8  C6'       -3.2550   -6.2290  -10.6850 C.ar  1433  PAC1433    -0.0037
      9  O1        -3.7110   -9.9060   -8.4630 O.co2 1433  PAC1433    -0.2453
     10  O2        -1.8840  -10.4260   -9.5560 O.co2 1433  PAC1433    -0.2453
@<TRIPOS>BOND
     1     8     7   ar
     2     8     3   ar
     3     2     3    1
     4     2     1    1
     5     7     6   ar
     6     3     4   ar
     7    10     1   ar
     8     1     9   ar
     9     6     5   ar
    10     4     5   ar
