@<TRIPOS>MOLECULE
2y4o_DLL_A_1.pdb
 32 35 0 0 0
SMALL
GASTEIGER

@<TRIPOS>ATOM
      1  O         50.0190   52.1940   69.6190 O.2   1441  DLL1441    -0.2495
      2  CB        47.9370   51.4730   68.6160 C.3   1441  DLL1441     0.1361
      3  CG        48.1590   52.5140   67.5250 C.ar  1441  DLL1441    -0.0111
      4  CD2       47.6370   53.7930   67.6840 C.ar  1441  DLL1441    -0.0037
      5  CD1       48.6140   52.0830   66.2730 C.ar  1441  DLL1441    -0.0037
      6  CE2       47.7370   54.7120   66.6390 C.ar  1441  DLL1441    -0.0003
      7  CE1       48.6540   52.9850   65.2060 C.ar  1441  DLL1441    -0.0003
      8  CZ        48.2690   54.3130   65.4130 C.ar  1441  DLL1441    -0.0000
      9  P         49.7670   50.2550   71.8700 P.3   1441  DLL1441     0.2722
     10  O2P       50.9100   49.5300   71.2610 O.2   1441  DLL1441    -0.5082
     11  O3P       48.9410   49.5850   72.8820 O.3   1441  DLL1441    -0.4273
     12  O1P       48.6820   50.6880   70.7440 O.3   1441  DLL1441    -0.4098
     13  O5'       50.3870   51.6220   72.4740 O.3   1441  DLL1441    -0.3024
     14  C5'       49.5130   52.4140   73.1550 C.3   1441  DLL1441     0.1823
     15  O4'       50.9380   54.3670   72.5250 O.3   1441  DLL1441    -0.3135
     16  O3'       48.8630   54.5870   75.4110 O.3   1441  DLL1441    -0.2174
     17  C2'       50.1210   56.1180   73.9340 C.3   1441  DLL1441     0.2570
     18  O2'       51.0540   56.1470   75.0230 O.3   1441  DLL1441    -0.2130
     19  C1'       50.9090   55.8000   72.6530 C.3   1441  DLL1441     0.3186
     20  N9        50.2670   56.4530   71.5130 N.pl3 1441  DLL1441    -0.1439
     21  C8        49.3600   55.7650   70.5980 C.3   1441  DLL1441     0.3377
     22  N7        49.0500   56.8060   69.6170 N.2   1441  DLL1441    -0.2095
     23  C5        49.5400   57.9690   70.0650 C.2   1441  DLL1441     0.2526
     24  C6        49.4320   59.2740   69.6010 C.2   1441  DLL1441     0.4393
     25  CAZ       49.0530   51.4340   69.6670 C.2   1441  DLL1441     0.3254
     26  N6        48.7340   59.5550   68.4890 N.pl3 1441  DLL1441     0.2180
     27  C4'       50.0020   53.8390   73.3790 C.3   1441  DLL1441     0.1822
     28  N1        50.0590   60.2590   70.2650 N.2   1441  DLL1441     0.0021
     29  C3'       49.1710   54.9280   74.0400 C.3   1441  DLL1441     0.2184
     30  C2        50.7280   60.0240   71.3850 C.3   1441  DLL1441     0.5254
     31  C4        50.2840   57.7500   71.2230 C.2   1441  DLL1441     0.3518
     32  N3        50.8350   58.7920   71.8640 N.2   1441  DLL1441    -0.0055
@<TRIPOS>BOND
     1     7     8   ar
     2     7     5   ar
     3     8     6   ar
     4     5     3   ar
     5     6     4   ar
     6     3     4   ar
     7     3     2    1
     8    26    24    1
     9     2    25    1
    10    24    23    1
    11    24    28    2
    12    22    23    2
    13    22    21    1
    14     1    25    2
    15    25    12    1
    16    23    31    1
    17    28    30    1
    18    21    20    1
    19    12     9    1
    20    31    20    1
    21    31    32    2
    22    10     9    2
    23    30    32    1
    24    20    19    1
    25     9    13    1
    26     9    11    1
    27    13    14    1
    28    15    19    1
    29    15    27    1
    30    19    17    1
    31    14    27    1
    32    27    29    1
    33    17    29    1
    34    17    18    1
    35    29    16    1
