@<TRIPOS>MOLECULE
2y4r_PLP_A_1.pdb
 15 15 0 0 0
SMALL
GASTEIGER

@<TRIPOS>ATOM
      1  N1       -10.9950    2.8030  -42.3770 N.2   1140  PLP1140    -0.2458
      2  C2       -10.8920    3.1350  -41.0490 C.2   1140  PLP1140     0.0942
      3  C2A      -10.2390    2.0630  -40.2050 C.3   1140  PLP1140     0.0552
      4  C3       -11.3790    4.3270  -40.5420 C.2   1140  PLP1140     0.1899
      5  O3       -11.2770    4.6310  -39.3130 O.2   1140  PLP1140    -0.2898
      6  C4       -12.0240    5.2050  -41.4700 C.3   1140  PLP1140     0.0852
      7  C4A      -12.6250    6.5010  -40.9470 C.3   1140  PLP1140     0.0127
      8  C5       -12.0740    4.8370  -42.8560 C.2   1140  PLP1140     0.0118
      9  C6       -11.5460    3.6260  -43.2890 C.2   1140  PLP1140     0.0929
     10  C5A      -12.6750    5.6630  -43.9700 C.3   1140  PLP1140     0.1779
     11  O4P      -13.1830    6.9360  -43.5920 O.3   1140  PLP1140    -0.2656
     12  P        -14.0410    8.1880  -44.1640 P.3   1140  PLP1140     0.5329
     13  O1P      -13.2340    9.3070  -43.6020 O.3   1140  PLP1140    -0.1145
     14  O2P      -14.0590    8.2280  -45.6370 O.2   1140  PLP1140    -0.2224
     15  O3P      -15.2950    7.8960  -43.5000 O.3   1140  PLP1140    -0.1145
@<TRIPOS>BOND
     1    14    12    2
     2    12    13    1
     3    12    11    1
     4    12    15    1
     5    10    11    1
     6    10     8    1
     7     9     8    2
     8     9     1    1
     9     8     6    1
    10     1     2    2
    11     6     7    1
    12     6     4    1
    13     2     4    1
    14     2     3    1
    15     4     5    2
