@<TRIPOS>MOLECULE
2y53_NAP_A_1.pdb
 48 52 0 0 0
SMALL
GASTEIGER

@<TRIPOS>ATOM
      1  PA        -8.1190   -6.4070    7.6870 P.3   1534  NAP1534     0.2189
      2  O1A       -7.5590   -5.1720    8.5720 O.3   1534  NAP1534    -0.4371
      3  O2A       -8.1810   -7.6670    8.4700 O.2   1534  NAP1534    -0.5170
      4  O5B       -7.1870   -6.5000    6.3780 O.3   1534  NAP1534    -0.3112
      5  C5B       -5.8180   -6.8950    6.5010 C.3   1534  NAP1534     0.1813
      6  C4B       -5.6960   -8.4140    6.6380 C.3   1534  NAP1534     0.1820
      7  O4B       -5.7920   -8.7790    8.0230 O.3   1534  NAP1534    -0.3136
      8  C3B       -6.9100   -9.0840    5.9920 C.3   1534  NAP1534     0.2157
      9  O3B       -6.5520   -9.5700    4.6950 O.3   1534  NAP1534    -0.2175
     10  C2B       -7.2130  -10.2660    6.9140 C.3   1534  NAP1534     0.2314
     11  O2B       -7.0600  -11.4890    6.1900 O.3   1534  NAP1534    -0.2630
     12  C1B       -6.1330  -10.1730    7.9940 C.3   1534  NAP1534     0.3158
     13  N9A       -6.7050  -10.5700    9.3000 N.pl3 1534  NAP1534    -0.1439
     14  C8A       -7.9470  -10.3240    9.7190 C.3   1534  NAP1534     0.3377
     15  N7A       -8.1070  -10.8280   10.9430 N.2   1534  NAP1534    -0.2095
     16  C5A       -6.9620  -11.3980   11.3030 C.2   1534  NAP1534     0.2526
     17  C6A       -6.5410  -12.0690   12.4410 C.2   1534  NAP1534     0.4393
     18  N6A       -7.3700  -12.2460   13.4660 N.pl3 1534  NAP1534     0.2180
     19  N1A       -5.2860  -12.5360   12.4910 N.2   1534  NAP1534     0.0021
     20  C2A       -4.4570  -12.3620   11.4730 C.3   1534  NAP1534     0.5254
     21  N3A       -4.8290  -11.7260   10.3730 N.2   1534  NAP1534    -0.0055
     22  C4A       -6.0710  -11.2350   10.2600 C.2   1534  NAP1534     0.3518
     23  O3        -9.5840   -5.9340    7.1850 O.3   1534  NAP1534    -0.2703
     24  PN        -9.7200   -4.8980    5.9600 P.3   1534  NAP1534     0.2189
     25  O1N       -9.9950   -3.4410    6.6090 O.3   1534  NAP1534    -0.4371
     26  O2N      -10.7640   -5.2710    4.9730 O.2   1534  NAP1534    -0.5170
     27  O5D       -8.2560   -4.7870    5.2780 O.3   1534  NAP1534    -0.3112
     28  C5D       -8.1370   -4.4520    3.8930 C.3   1534  NAP1534     0.1813
     29  C4D       -8.3900   -2.9600    3.6650 C.3   1534  NAP1534     0.1799
     30  O4D       -8.2000   -2.2480    4.8980 O.3   1534  NAP1534    -0.3327
     31  C3D       -7.3120   -2.3930    2.7400 C.3   1534  NAP1534     0.2158
     32  O3D       -7.8280   -2.2920    1.4110 O.3   1534  NAP1534    -0.2175
     33  C2D       -7.0510   -0.9920    3.2950 C.3   1534  NAP1534     0.2309
     34  O2D       -7.4060   -0.0160    2.3130 O.3   1534  NAP1534    -0.2158
     35  C1D       -8.0040   -0.8870    4.4880 C.3   1534  NAP1534     0.2263
     36  N1N       -7.3490   -0.1310    5.5790 N.pl3 1534  NAP1534    -0.2787
     37  C2N       -8.1150    0.4010    6.6220 C.3   1534  NAP1534     0.1244
     38  C3N       -7.4940    1.1090    7.6440 C.2   1534  NAP1534     0.0544
     39  C7N       -8.3300    1.6920    8.7860 C.2   1534  NAP1534     0.2818
     40  O7N       -8.9410    2.7510    8.6480 O.2   1534  NAP1534    -0.2670
     41  N7N       -8.3340    0.9710    9.9040 N.am  1534  NAP1534    -0.0839
     42  C4N       -6.1160    1.2890    7.6310 C.2   1534  NAP1534     0.0033
     43  C5N       -5.3510    0.7630    6.5960 C.2   1534  NAP1534     0.0157
     44  C6N       -5.9620    0.0530    5.5690 C.2   1534  NAP1534     0.0633
     45  P2B       -8.2760  -12.0470    5.2800 P.3   1534  NAP1534     0.5328
     46  O1X       -7.9460  -13.6110    5.0330 O.3   1534  NAP1534    -0.1145
     47  O2X       -9.5760  -12.0280    6.2430 O.3   1534  NAP1534    -0.1145
     48  O3X       -8.4660  -11.2840    4.0260 O.2   1534  NAP1534    -0.2224
@<TRIPOS>BOND
     1    32    31    1
     2    34    33    1
     3    31    33    1
     4    31    29    1
     5    33    35    1
     6    29    28    1
     7    29    30    1
     8    28    27    1
     9    48    45    2
    10    35    30    1
    11    35    36    1
    12     9     8    1
    13    26    24    2
    14    46    45    1
    15    27    24    1
    16    45    11    1
    17    45    47    1
    18    44    36    1
    19    44    43    2
    20    36    37    1
    21    24    25    1
    22    24    23    1
    23     8     6    1
    24     8    10    1
    25    11    10    1
    26     4     5    1
    27     4     1    1
    28     5     6    1
    29    43    42    1
    30    37    38    1
    31     6     7    1
    32    10    12    1
    33    23     1    1
    34    42    38    2
    35    38    39    1
    36     1     3    2
    37     1     2    1
    38    12     7    1
    39    12    13    1
    40    40    39    2
    41    39    41   am
    42    13    14    1
    43    13    22    1
    44    14    15    1
    45    22    21    2
    46    22    16    1
    47    21    20    1
    48    15    16    2
    49    16    17    1
    50    20    19    1
    51    17    19    2
    52    17    18    1
