@<TRIPOS>MOLECULE
2y54_V63_A_1.pdb
 17 19 0 0 0
SMALL
GASTEIGER

@<TRIPOS>ATOM
      1  C3        87.7860   34.2380  -30.2470 C.ar  301  V63301      0.0064
      2  C11       87.1410   35.4140  -27.8040 C.ar  301  V63301      0.0002
      3  C1        87.6940   34.1330  -27.8350 C.ar  301  V63301      0.0064
      4  C13       91.3100   31.6960  -32.1800 C.3   301  V63301      0.0189
      5  C5        88.6030   32.1520  -29.1080 C.2   301  V63301      0.3411
      6  C10       89.0250   29.5290  -31.7330 C.3   301  V63301      0.0610
      7  C7        86.9080   36.1050  -28.9920 C.ar  301  V63301      0.0000
      8  C8        90.8870   30.3100  -30.1480 C.3   301  V63301      0.0610
      9  C6        91.7370   30.4480  -31.4130 C.3   301  V63301      0.0764
     10  C2        87.2250   35.5150  -30.2160 C.ar  301  V63301      0.0002
     11  C12       90.2120   31.2290  -33.1240 C.3   301  V63301      0.0189
     12  C4        90.0610   29.7390  -32.8380 C.3   301  V63301      0.0764
     13  C14       88.0190   33.5390  -29.0570 C.ar  301  V63301      0.0756
     14  C80       89.3790   30.2220  -30.4130 C.3   301  V63301      0.1719
     15  O15       88.8860   31.5540  -28.0810 O.2   301  V63301     -0.2449
     16  N         91.3650   29.3290  -32.2910 N.3   301  V63301     -0.2206
     17  O17       88.8130   31.5310  -30.4130 O.3   301  V63301     -0.4491
@<TRIPOS>BOND
     1    11    12    1
     2    11     4    1
     3    12    16    1
     4    12     6    1
     5    16     9    1
     6     4     9    1
     7     6    14    1
     8     9     8    1
     9    17    14    1
    10    17     5    1
    11    14     8    1
    12     1    10   ar
    13     1    13   ar
    14    10     7   ar
    15     5    13    1
    16     5    15    2
    17    13     3   ar
    18     7     2   ar
    19     3     2   ar
