@<TRIPOS>MOLECULE
2y55_FP5_A_1.pdb
 12 12 0 0 0
SMALL
GASTEIGER

@<TRIPOS>ATOM
      1  O6        -3.2180   -3.6670   38.3640 O.2   500  FP5500      0.0000
      2  C5        -2.2710   -2.8930   38.5760 C.2   500  FP5500      0.0000
      3  N4        -1.1750   -3.2170   39.2690 N.am  500  FP5500      0.0000
      4  C3        -0.8830   -4.5040   39.8820 C.3   500  FP5500      0.0000
      5  B          0.5220   -4.9680   39.2630 B     500  FP5500      0.0000
      6  C7        -2.2380   -1.4850   38.0240 C.3   500  FP5500      0.0000
      7  CG        -1.5710   -1.7480   36.7120 C.ar  500  FP5500      0.0000
      8  CD2       -2.3020   -2.3310   35.6820 C.ar  500  FP5500      0.0000
      9  CE2       -1.6810   -2.5960   34.4610 C.ar  500  FP5500      0.0000
     10  CZ        -0.3170   -2.3220   34.3040 C.ar  500  FP5500      0.0000
     11  CE1        0.4160   -1.7550   35.3590 C.ar  500  FP5500      0.0000
     12  CD1       -0.2190   -1.4680   36.5630 C.ar  500  FP5500      0.0000
@<TRIPOS>BOND
     1    10     9   ar
     2    10    11   ar
     3     9     8   ar
     4    11    12   ar
     5     8     7   ar
     6    12     7   ar
     7     7     6    1
     8     6     2    1
     9     1     2    2
    10     2     3   am
    11     5     4    1
    12     3     4    1
