@<TRIPOS>MOLECULE
2y56_V11_A_1.pdb
 26 29 0 0 0
SMALL
GASTEIGER

@<TRIPOS>ATOM
      1  O2        90.7710   31.5510  -29.0800 O.2   301  V11301     -0.2449
      2  C1        90.2860   32.1450  -30.0350 C.2   301  V11301      0.3411
      3  C2        89.6840   33.5320  -29.9070 C.ar  301  V11301      0.0756
      4  C7        89.6070   34.3650  -31.0330 C.ar  301  V11301      0.0064
      5  C6        89.0260   35.6330  -30.9410 C.ar  301  V11301      0.0002
      6  C5        88.5190   36.0860  -29.7250 C.ar  301  V11301      0.0000
      7  C4        88.5700   35.2550  -28.6030 C.ar  301  V11301      0.0002
      8  C3        89.1430   33.9810  -28.6900 C.ar  301  V11301      0.0064
      9  O1        90.2410   31.4970  -31.3360 O.3   301  V11301     -0.4491
     10  C8        90.8700   30.2260  -31.4360 C.3   301  V11301      0.1718
     11  C12       92.3890   30.3660  -31.2880 C.3   301  V11301      0.0596
     12  C11       93.1250   30.6800  -32.5910 C.3   301  V11301      0.0612
     13  C13       92.5900   31.9870  -33.1770 C.3   301  V11301      0.0175
     14  C14       91.4430   31.5710  -34.0790 C.3   301  V11301      0.0175
     15  C10       91.3780   30.0470  -33.9420 C.3   301  V11301      0.0612
     16  C9        90.4570   29.6460  -32.7880 C.3   301  V11301      0.0596
     17  N         92.7230   29.6220  -33.5300 N.3   301  V11301     -0.2726
     18  C15       93.6240   29.5440  -34.6910 C.3   301  V11301      0.1099
     19  C16       94.4190   28.2510  -34.5710 C.3   301  V11301      0.1901
     20  O3        95.5970   28.4900  -33.7900 O.3   301  V11301     -0.2168
     21  C17       94.8060   27.7290  -35.9040 C.ar  301  V11301      0.0091
     22  C22       95.6810   28.4610  -36.7190 C.ar  301  V11301     -0.0018
     23  C21       96.0750   27.9570  -37.9620 C.ar  301  V11301     -0.0002
     24  C20       95.5840   26.7210  -38.3900 C.ar  301  V11301     -0.0000
     25  C19       94.7100   25.9860  -37.5760 C.ar  301  V11301     -0.0002
     26  C18       94.3230   26.4830  -36.3280 C.ar  301  V11301     -0.0018
@<TRIPOS>BOND
     1    24    23   ar
     2    24    25   ar
     3    23    22   ar
     4    25    26   ar
     5    22    21   ar
     6    26    21   ar
     7    21    19    1
     8    18    19    1
     9    18    17    1
    10    19    20    1
    11    14    15    1
    12    14    13    1
    13    15    17    1
    14    15    16    1
    15    17    12    1
    16    13    12    1
    17    16    10    1
    18    12    11    1
    19    10     9    1
    20    10    11    1
    21     9     2    1
    22     4     5   ar
    23     4     3   ar
    24     5     6   ar
    25     2     3    1
    26     2     1    2
    27     3     8   ar
    28     6     7   ar
    29     8     7   ar
