@<TRIPOS>MOLECULE
2y57_V37_A_1.pdb
 25 28 0 0 0
SMALL
GASTEIGER

@<TRIPOS>ATOM
      1  O2       -31.1780  -86.6850   27.1200 O.2   301  V37301     -0.2449
      2  C1       -31.7510  -86.3820   28.1610 C.2   301  V37301      0.3411
      3  C2       -33.0910  -85.7000   28.1430 C.ar  301  V37301      0.0756
      4  C7       -33.6460  -85.2500   29.3340 C.ar  301  V37301      0.0064
      5  C6       -34.8750  -84.5960   29.3190 C.ar  301  V37301      0.0002
      6  C5       -35.5670  -84.4100   28.1210 C.ar  301  V37301      0.0000
      7  C4       -35.0200  -84.8680   26.9250 C.ar  301  V37301      0.0002
      8  C3       -33.7750  -85.5010   26.9420 C.ar  301  V37301      0.0064
      9  O1       -31.1370  -86.6810   29.4410 O.3   301  V37301     -0.4491
     10  C8       -29.7880  -87.1200   29.3840 C.3   301  V37301      0.1718
     11  C12      -29.0780  -86.5150   30.6060 C.3   301  V37301      0.0596
     12  C11      -29.2000  -87.3670   31.8680 C.3   301  V37301      0.0611
     13  C13      -30.6750  -87.6060   32.2060 C.3   301  V37301      0.0175
     14  C14      -31.0690  -88.8540   31.4190 C.3   301  V37301      0.0175
     15  C10      -29.7940  -89.3030   30.7150 C.3   301  V37301      0.0611
     16  C9       -29.7750  -88.6570   29.3300 C.3   301  V37301      0.0596
     17  N        -28.6900  -88.6930   31.5020 N.3   301  V37301     -0.2747
     18  C15      -28.4290  -89.4490   32.7310 C.3   301  V37301      0.0767
     19  C16      -27.6640  -90.7230   32.3980 C.3   301  V37301      0.0437
     20  C17      -27.2330  -91.3060   33.7220 C.ar  301  V37301     -0.0208
     21  C22      -27.9330  -92.3910   34.2590 C.ar  301  V37301     -0.0042
     22  C21      -27.5630  -92.9160   35.4980 C.ar  301  V37301     -0.0003
     23  C20      -26.4890  -92.3660   36.1920 C.ar  301  V37301     -0.0000
     24  C19      -25.8020  -91.2810   35.6530 C.ar  301  V37301     -0.0003
     25  C18      -26.1720  -90.7350   34.4250 C.ar  301  V37301     -0.0042
@<TRIPOS>BOND
     1     7     8   ar
     2     7     6   ar
     3     8     3   ar
     4     1     2    2
     5     6     5   ar
     6     3     2    1
     7     3     4   ar
     8     2     9    1
     9     5     4   ar
    10    16    10    1
    11    16    15    1
    12    10     9    1
    13    10    11    1
    14    11    12    1
    15    15    14    1
    16    15    17    1
    17    14    13    1
    18    17    12    1
    19    17    18    1
    20    12    13    1
    21    19    18    1
    22    19    20    1
    23    20    21   ar
    24    20    25   ar
    25    21    22   ar
    26    25    24   ar
    27    22    23   ar
    28    24    23   ar
