@<TRIPOS>MOLECULE
2y58_V38_A_1.pdb
 27 30 0 0 0
SMALL
GASTEIGER

@<TRIPOS>ATOM
      1  O2       -87.8420  -32.2350  -30.3220 O.2   301  V38301     -0.2449
      2  C1       -88.0800  -31.0650  -30.0430 C.2   301  V38301      0.3411
      3  C2       -88.1400  -30.5890  -28.6160 C.ar  301  V38301      0.0756
      4  C7       -88.6040  -29.2870  -28.3480 C.ar  301  V38301      0.0064
      5  C6       -88.6640  -28.8050  -27.0320 C.ar  301  V38301      0.0002
      6  C5       -88.2490  -29.6210  -25.9750 C.ar  301  V38301      0.0000
      7  C4       -87.7620  -30.9050  -26.2400 C.ar  301  V38301      0.0002
      8  C3       -87.7020  -31.3940  -27.5560 C.ar  301  V38301      0.0064
      9  O1       -88.3070  -30.0460  -31.0630 O.3   301  V38301     -0.4494
     10  C8       -88.4690  -30.4690  -32.4150 C.3   301  V38301      0.1651
     11  C12      -89.6860  -31.3830  -32.6150 C.3   301  V38301      0.0233
     12  C11      -90.9470  -30.6500  -33.0680 C.3   301  V38301     -0.0506
     13  C13      -91.2870  -29.6670  -31.9540 C.3   301  V38301     -0.0222
     14  C14      -90.6110  -28.3540  -32.3410 C.3   301  V38301     -0.0222
     15  C10      -89.8900  -28.6780  -33.6470 C.3   301  V38301     -0.0506
     16  C9       -88.5000  -29.1980  -33.2730 C.3   301  V38301      0.0233
     17  N        -90.6590  -29.7850  -34.2340 N.4   301  V38301      0.3932
     18  C23      -91.9130  -29.2750  -34.8110 C.3   301  V38301     -0.0954
     19  C15      -89.9130  -30.4350  -35.3160 C.3   301  V38301     -0.0347
     20  C16      -90.7140  -31.6360  -35.7790 C.3   301  V38301      0.1543
     21  O3       -90.1380  -32.8140  -35.2270 O.3   301  V38301     -0.2206
     22  C17      -90.6620  -31.7110  -37.2430 C.ar  301  V38301      0.0056
     23  C22      -91.8600  -31.6230  -37.9710 C.ar  301  V38301     -0.0019
     24  C21      -91.8440  -31.6660  -39.3700 C.ar  301  V38301     -0.0002
     25  C20      -90.6070  -31.8120  -40.0120 C.ar  301  V38301     -0.0000
     26  C19      -89.4040  -31.9080  -39.2760 C.ar  301  V38301     -0.0002
     27  C18      -89.4240  -31.8600  -37.8830 C.ar  301  V38301     -0.0019
@<TRIPOS>BOND
     1    25    24   ar
     2    25    26   ar
     3    24    23   ar
     4    26    27   ar
     5    23    22   ar
     6    27    22   ar
     7    22    20    1
     8    20    19    1
     9    20    21    1
    10    19    17    1
    11    18    17    1
    12    17    15    1
    13    17    12    1
    14    15    16    1
    15    15    14    1
    16    16    10    1
    17    12    11    1
    18    12    13    1
    19    11    10    1
    20    10     9    1
    21    14    13    1
    22     9     2    1
    23     1     2    2
    24     2     3    1
    25     3     4   ar
    26     3     8   ar
    27     4     5   ar
    28     8     7   ar
    29     5     6   ar
    30     7     6   ar
