@<TRIPOS>MOLECULE
2y59_ZA3_A_1.pdb
 16 16 0 0 0
SMALL
GASTEIGER

@<TRIPOS>ATOM
      1  O6        -0.1160    0.5480   35.2650 O.2   500  ZA3500      0.0000
      2  C5        -1.2760    0.2870   35.5320 C.2   500  ZA3500      0.0000
      3  N4        -1.7970   -0.9140   35.3950 N.am  500  ZA3500      0.0000
      4  C3        -1.0880   -2.0830   34.9580 C.3   500  ZA3500      0.0000
      5  B         -0.9950   -2.8250   36.3740 B     500  ZA3500      0.0000
      6  C7        -2.0880    1.3850   36.0930 C.ar  500  ZA3500      0.0000
      7  C8        -2.0680    1.4070   37.4740 C.ar  500  ZA3500      0.0000
      8  C11       -2.7560    2.3880   38.1640 C.ar  500  ZA3500      0.0000
      9  C12       -3.4500    3.3580   37.4500 C.ar  500  ZA3500      0.0000
     10  C13       -3.4620    3.3340   36.0520 C.ar  500  ZA3500      0.0000
     11  C14       -2.7690    2.3450   35.3570 C.ar  500  ZA3500      0.0000
     12  N15       -2.8090    2.3600   33.9950 N.pl3 500  ZA3500      0.0000
     13  O16       -3.5310    3.3490   33.3230 O.2   500  ZA3500      0.0000
     14  O17       -2.1380    1.3930   33.2510 O.2   500  ZA3500      0.0000
     15  O2        -2.0690   -3.9110   36.4210 O.3   500  ZA3500      0.0000
     16  O1        -1.0810   -1.8690   37.5900 O.3   500  ZA3500      0.0000
@<TRIPOS>BOND
     1    14    12    2
     2    13    12    2
     3    12    11    1
     4     4     3    1
     5     4     5    1
     6     1     2    2
     7    11    10   ar
     8    11     6   ar
     9     3     2   am
    10     2     6    1
    11    10     9   ar
    12     6     7   ar
    13     5    15    1
    14     5    16    1
    15     9     8   ar
    16     7     8   ar
