@<TRIPOS>MOLECULE
2y5a_HEM_A_1.pdb
 43 50 0 0 0
SMALL
GASTEIGER

@<TRIPOS>ATOM
      1  CHA      -14.2390   -0.4000   -1.2010 C.2   1001  HEM1001     0.0000
      2  CHB      -10.1990   -0.4620   -3.8490 C.2   1001  HEM1001     0.0000
      3  CHC       -8.8470   -4.5560   -1.6680 C.2   1001  HEM1001     0.0000
      4  CHD      -12.6640   -4.2710    1.2550 C.2   1001  HEM1001     0.0000
      5  C1A      -13.2540   -0.0510   -2.0890 C.ar  1001  HEM1001     0.0000
      6  C2A      -13.2580    1.1370   -2.9070 C.ar  1001  HEM1001     0.0000
      7  C3A      -12.1390    1.1220   -3.6440 C.ar  1001  HEM1001     0.0000
      8  C4A      -11.3980   -0.0750   -3.3140 C.ar  1001  HEM1001     0.0000
      9  CMA      -11.6760    2.1660   -4.6800 C.3   1001  HEM1001     0.0000
     10  CAA      -14.3720    2.2040   -2.8760 C.3   1001  HEM1001     0.0000
     11  CBA      -14.1760    3.1590   -1.6940 C.3   1001  HEM1001     0.0000
     12  CGA      -15.3290    4.1310   -1.6890 C.2   1001  HEM1001     0.0000
     13  O1A      -15.5650    4.7590   -2.7510 O.co2 1001  HEM1001     0.0000
     14  O2A      -16.0230    4.2750   -0.6450 O.co2 1001  HEM1001     0.0000
     15  C1B       -9.5030   -1.5950   -3.5250 C.2   1001  HEM1001     0.0000
     16  C2B       -8.3060   -2.0660   -4.1760 C.2   1001  HEM1001     0.0000
     17  C3B       -7.9290   -3.2100   -3.5880 C.2   1001  HEM1001     0.0000
     18  C4B       -8.8790   -3.4870   -2.5320 C.2   1001  HEM1001     0.0000
     19  CMB       -7.6420   -1.3210   -5.3450 C.3   1001  HEM1001     0.0000
     20  CAB       -6.7230   -4.1120   -3.9090 C.2   1001  HEM1001     0.0000
     21  CBB       -6.1960   -4.1870   -5.1380 C.2   1001  HEM1001     0.0000
     22  C1C       -9.7120   -4.7890   -0.6210 C.ar  1001  HEM1001     0.0000
     23  C2C       -9.5260   -5.7730    0.4160 C.ar  1001  HEM1001     0.0000
     24  C3C      -10.5880   -5.6990    1.2380 C.ar  1001  HEM1001     0.0000
     25  C4C      -11.4560   -4.6560    0.7390 C.ar  1001  HEM1001     0.0000
     26  CMC       -8.3030   -6.7020    0.5030 C.3   1001  HEM1001     0.0000
     27  CAC      -10.8780   -6.4950    2.5280 C.2   1001  HEM1001     0.0000
     28  CBC      -10.6430   -7.7970    2.6730 C.2   1001  HEM1001     0.0000
     29  C1D      -13.4880   -3.2840    0.7820 C.2   1001  HEM1001     0.0000
     30  C2D      -14.8320   -3.0720    1.2320 C.2   1001  HEM1001     0.0000
     31  C3D      -15.3220   -1.8700    0.4840 C.2   1001  HEM1001     0.0000
     32  C4D      -14.2260   -1.4700   -0.3540 C.2   1001  HEM1001     0.0000
     33  CMD      -15.6040   -3.9070    2.2500 C.3   1001  HEM1001     0.0000
     34  CAD      -16.7120   -1.2330    0.6030 C.3   1001  HEM1001     0.0000
     35  CBD      -16.6500   -0.0400    1.5580 C.3   1001  HEM1001     0.0000
     36  CGD      -17.9680    0.6740    1.7010 C.2   1001  HEM1001     0.0000
     37  O1D      -17.9920    1.7370    2.3740 O.co2 1001  HEM1001     0.0000
     38  O2D      -18.9980    0.2000    1.1690 O.co2 1001  HEM1001     0.0000
     39  NA       -12.1080   -0.7730   -2.3590 N.ar  1001  HEM1001     0.0000
     40  NB        -9.8320   -2.4920   -2.5310 N.2   1001  HEM1001     0.0000
     41  NC       -10.8880   -4.1150   -0.3910 N.ar  1001  HEM1001     0.0000
     42  ND       -13.1600   -2.3350   -0.1730 N.2   1001  HEM1001     0.0000
     43 FE        -11.5060   -2.4590   -1.3940 Fe    1001  HEM1001     0.0000
@<TRIPOS>BOND
     1    19    16    1
     2    21    20    2
     3     9     7    1
     4    16    17    2
     5    16    15    1
     6    20    17    1
     7     2    15    1
     8     2     8    2
     9     7     8   ar
    10     7     6   ar
    11    17    18    1
    12    15    40    2
    13     8    39   ar
    14     6    10    1
    15     6     5   ar
    16    10    11    1
    17    13    12   ar
    18    18    40    1
    19    18     3    2
    20    40    43    1
    21    39     5   ar
    22    39    43    1
    23     5     1    2
    24    11    12    1
    25    12    14   ar
    26     3    22    1
    27    43    41    1
    28    43    42    1
    29     1    32    1
    30    22    41   ar
    31    22    23   ar
    32    41    25   ar
    33    32    42    2
    34    32    31    1
    35    42    29    1
    36    23    26    1
    37    23    24   ar
    38    31    34    1
    39    31    30    2
    40    34    35    1
    41    25    24   ar
    42    25     4    1
    43    29    30    1
    44    29     4    2
    45    38    36   ar
    46    30    33    1
    47    24    27    1
    48    35    36    1
    49    36    37   ar
    50    27    28    2
