@<TRIPOS>MOLECULE
2y5d_NAP_A_1.pdb
 48 52 0 0 0
SMALL
GASTEIGER

@<TRIPOS>ATOM
      1  PA        -1.0410   -4.9430   22.0240 P.3   1525  NAP1525     0.2189
      2  O1A       -0.3960   -5.3160   20.6980 O.2   1525  NAP1525    -0.5170
      3  O2A       -2.3580   -5.5030   22.3660 O.3   1525  NAP1525    -0.4371
      4  O5B       -1.0370   -3.2790   21.9620 O.3   1525  NAP1525    -0.3112
      5  C5B       -2.0810   -2.6460   22.6260 C.3   1525  NAP1525     0.1813
      6  C4B       -2.4780   -1.2070   22.1860 C.3   1525  NAP1525     0.1820
      7  O4B       -3.4290   -1.3700   21.2080 O.3   1525  NAP1525    -0.3136
      8  C3B       -3.0990   -0.4690   23.3330 C.3   1525  NAP1525     0.2157
      9  O3B       -3.0860    0.8810   22.9240 O.3   1525  NAP1525    -0.2175
     10  C2B       -4.5530   -0.9300   23.1860 C.3   1525  NAP1525     0.2314
     11  O2B       -5.4880    0.0210   23.7410 O.3   1525  NAP1525    -0.2630
     12  C1B       -4.7050   -1.0270   21.6550 C.3   1525  NAP1525     0.3158
     13  N9A       -5.9260   -1.7590   21.1860 N.pl3 1525  NAP1525    -0.1439
     14  C8A       -6.3020   -2.9650   21.5200 C.3   1525  NAP1525     0.3377
     15  N7A       -7.4860   -3.2140   20.9020 N.2   1525  NAP1525    -0.2095
     16  C5A       -7.8340   -2.1660   20.2500 C.2   1525  NAP1525     0.2526
     17  C6A       -8.8970   -1.8330   19.4010 C.2   1525  NAP1525     0.4393
     18  N6A       -9.8640   -2.6770   19.1610 N.pl3 1525  NAP1525     0.2180
     19  N1A       -8.9460   -0.6420   18.8340 N.2   1525  NAP1525     0.0021
     20  C2A       -7.9710    0.1960   19.0600 C.3   1525  NAP1525     0.5254
     21  N3A       -6.9620   -0.1290   19.8150 N.2   1525  NAP1525    -0.0055
     22  C4A       -6.8520   -1.2590   20.4080 C.2   1525  NAP1525     0.3518
     23  O3        -0.1520   -5.5250   23.2000 O.3   1525  NAP1525    -0.2703
     24  PN         1.4530   -5.7350   23.3170 P.3   1525  NAP1525     0.2189
     25  O1N        1.9770   -7.2720   22.9800 O.2   1525  NAP1525    -0.5170
     26  O2N        1.8010   -5.4160   24.6380 O.3   1525  NAP1525    -0.4371
     27  O5D        2.3310   -4.7330   22.3570 O.3   1525  NAP1525    -0.3112
     28  C5D        3.7190   -4.8180   22.4510 C.3   1525  NAP1525     0.1813
     29  C4D        4.4270   -5.3410   21.2280 C.3   1525  NAP1525     0.1799
     30  O4D        5.3970   -4.4380   20.7500 O.3   1525  NAP1525    -0.3327
     31  C3D        5.3800   -6.5430   21.2980 C.3   1525  NAP1525     0.2158
     32  O3D        4.8660   -7.7820   21.8830 O.3   1525  NAP1525    -0.2175
     33  C2D        5.8910   -6.5870   19.7980 C.3   1525  NAP1525     0.2309
     34  O2D        5.0930   -7.5530   18.9910 O.3   1525  NAP1525    -0.2158
     35  C1D        5.7650   -5.0490   19.4130 C.3   1525  NAP1525     0.2263
     36  N1N        6.6220   -3.9750   18.6630 N.pl3 1525  NAP1525    -0.2787
     37  C2N        6.6910   -3.9050   17.2940 C.3   1525  NAP1525     0.1244
     38  C3N        7.4940   -2.8930   16.6980 C.2   1525  NAP1525     0.0544
     39  C7N        7.4970   -2.9650   15.2060 C.2   1525  NAP1525     0.2818
     40  O7N        8.0120   -2.0520   14.5890 O.2   1525  NAP1525    -0.2670
     41  N7N        6.9900   -4.1380   14.7960 N.am  1525  NAP1525    -0.0839
     42  C4N        8.2470   -1.8740   17.3920 C.2   1525  NAP1525     0.0033
     43  C5N        8.0450   -2.0520   18.7220 C.2   1525  NAP1525     0.0157
     44  C6N        7.2700   -3.0640   19.3180 C.2   1525  NAP1525     0.0633
     45  P2B       -6.0520   -0.1830   25.2560 P.3   1525  NAP1525     0.5328
     46  O1X       -5.7620   -1.6380   25.6330 O.3   1525  NAP1525    -0.1145
     47  O2X       -5.1300    0.7430   26.1240 O.3   1525  NAP1525    -0.1145
     48  O3X       -7.4390    0.1820   25.1170 O.2   1525  NAP1525    -0.2224
@<TRIPOS>BOND
     1    40    39    2
     2    41    39   am
     3    39    38    1
     4    38    37    1
     5    38    42    2
     6    37    36    1
     7    42    43    1
     8    36    44    1
     9    36    35    1
    10    43    44    2
    11    19    20    1
    12    19    17    2
    13    34    33    1
    14    20    21    1
    15    18    17    1
    16    17    16    1
    17    35    33    1
    18    35    30    1
    19    33    31    1
    20    21    22    2
    21    16    22    1
    22    16    15    2
    23    22    13    1
    24     2     1    2
    25    30    29    1
    26    15    14    1
    27    13    14    1
    28    13    12    1
    29     7    12    1
    30     7     6    1
    31    29    31    1
    32    29    28    1
    33    31    32    1
    34    12    10    1
    35     4     1    1
    36     4     5    1
    37     1     3    1
    38     1    23    1
    39     6     5    1
    40     6     8    1
    41    27    28    1
    42    27    24    1
    43     9     8    1
    44    25    24    2
    45    10     8    1
    46    10    11    1
    47    23    24    1
    48    24    26    1
    49    11    45    1
    50    48    45    2
    51    45    46    1
    52    45    47    1
