@<TRIPOS>MOLECULE
2y5k_YCU_A_1.pdb
 30 31 0 0 0
SMALL
GASTEIGER

@<TRIPOS>ATOM
      1  S1        16.6550   58.9840   18.5350 S.O2  1336  YCU1336     0.1023
      2  C2        18.3840   58.7730   18.7280 C.ar  1336  YCU1336     0.1560
      3  N3        16.0970   59.9680   19.7540 N.am  1336  YCU1336    -0.0393
      4  S4        19.5360   59.9090   18.0840 S.2   1336  YCU1336    -0.0715
      5  C5        15.8220   59.5850   21.0300 C.2   1336  YCU1336     0.3665
      6  C6        15.0190   60.5190   23.1800 C.2   1336  YCU1336     0.1931
      7  C7        14.2000   61.7640   24.9610 C.2   1336  YCU1336     0.2110
      8  C8        19.0280   57.7710   19.3340 C.ar  1336  YCU1336     0.0228
      9  N9        14.6430   61.6700   23.7180 N.2   1336  YCU1336    -0.3722
     10  C10       20.8830   58.9560   18.6800 C.ar  1336  YCU1336     0.0071
     11  N11       15.4180   60.5790   21.8520 N.am  1336  YCU1336    -0.1328
     12  N12       13.8110   62.9990   25.4800 N.am  1336  YCU1336    -0.1305
     13  C13       20.4100   57.8750   19.3050 C.ar  1336  YCU1336    -0.0179
     14  C14       13.3370   63.9940   24.6880 C.2   1336  YCU1336     0.3457
     15  C15       14.9370   59.3380   23.9110 C.3   1336  YCU1336     0.1406
     16  C16       14.1100   60.6330   25.7630 C.2   1336  YCU1336     0.0824
     17  O17       16.5320   59.7420   17.3380 O.2   1336  YCU1336    -0.1477
     18  O18       16.0790   57.7050   18.7020 O.2   1336  YCU1336    -0.1477
     19  C19       14.4760   59.3950   25.2350 C.2   1336  YCU1336     0.1287
     20  O20       15.9600   58.4300   21.4120 O.2   1336  YCU1336    -0.2470
     21  O21       12.9920   65.0360   25.2040 O.2   1336  YCU1336    -0.2487
     22  N22       13.2610   63.8500   23.3430 N.am  1336  YCU1336    -0.1850
     23  C23       22.3510   59.3070   18.5230 C.3   1336  YCU1336     0.0647
     24  O24       14.3920   58.2790   26.0190 O.2   1336  YCU1336    -0.4751
     25  C25       21.3280   56.8500   19.9330 C.3   1336  YCU1336     0.0313
     26  O26       24.2230   59.5130   16.9840 O.3   1336  YCU1336    -0.3507
     27  C27       22.8150   59.2090   17.0600 C.3   1336  YCU1336     0.1475
     28  C28       12.7790   64.9050   22.4410 C.3   1336  YCU1336     0.1403
     29  C29       13.5380   58.3570   27.1660 C.3   1336  YCU1336     0.2520
     30  C30       24.7280   59.8130   15.6740 C.3   1336  YCU1336     0.1741
@<TRIPOS>BOND
     1    30    26    1
     2    26    27    1
     3    27    23    1
     4    17     1    2
     5     4    10   ar
     6     4     2   ar
     7    23    10    1
     8     1    18    2
     9     1     2    1
    10     1     3    1
    11    10    13   ar
    12     2     8   ar
    13    13     8   ar
    14    13    25    1
    15     3     5   am
    16     5    20    2
    17     5    11   am
    18    11     6    1
    19    28    22    1
    20     6     9    2
    21     6    15    1
    22    22    14   am
    23     9     7    2
    24    15    19    1
    25    14    21    2
    26    14    12   am
    27     7    12    1
    28     7    16    1
    29    19    16    2
    30    19    24    1
    31    24    29    1
