@<TRIPOS>MOLECULE
2y5l_RO8_A_1.pdb
 20 21 0 0 0
SMALL
GASTEIGER

@<TRIPOS>ATOM
      1 CL         33.7980   12.4810  -19.3920 Cl    1000  RO81000    -0.0822
      2  S1        39.4370    7.9450  -21.0730 S.2   1000  RO81000    -0.0428
      3  C2        40.0940    8.6230  -22.5310 C.ar  1000  RO81000     0.1878
      4  N3        40.9220    7.8190  -23.2570 N.ar  1000  RO81000    -0.2204
      5  C4        40.9880    6.6010  -22.6640 C.ar  1000  RO81000     0.1141
      6  C5        40.2640    6.5190  -21.5150 C.ar  1000  RO81000     0.0856
      7 BR6        40.1210    4.9580  -20.4050 Br    1000  RO81000    -0.0402
      8  N7        39.8710    9.9060  -22.8230 N.am  1000  RO81000    -0.1345
      9  S8        38.6720   13.2420  -21.7080 S.O2  1000  RO81000     0.0967
     10  N9        39.2370   12.0260  -22.4440 N.am  1000  RO81000    -0.0397
     11  C10       39.3100   10.7760  -21.9930 C.2   1000  RO81000     0.3663
     12  O11       38.8730   10.4310  -20.9060 O.2   1000  RO81000    -0.2470
     13  O12       39.1030   13.2680  -20.3350 O.2   1000  RO81000    -0.1482
     14  O13       39.2000   14.4150  -22.3500 O.2   1000  RO81000    -0.1482
     15  C14       36.9650   13.2740  -21.7790 C.ar  1000  RO81000     0.1280
     16  C15       36.2050   12.9090  -20.6810 C.ar  1000  RO81000     0.0316
     17  C16       36.3450   13.7120  -22.9290 C.ar  1000  RO81000     0.0203
     18  C17       34.8100   12.9570  -20.7820 C.ar  1000  RO81000     0.0590
     19  C18       34.9520   13.7670  -23.0230 C.ar  1000  RO81000     0.0022
     20  C19       34.1770   13.3810  -21.9440 C.ar  1000  RO81000     0.0115
@<TRIPOS>BOND
     1     4     5   ar
     2     4     3   ar
     3    19    17   ar
     4    19    20   ar
     5    17    15   ar
     6     8     3    1
     7     8    11   am
     8     5     6   ar
     9     3     2   ar
    10    10    11   am
    11    10     9    1
    12    14     9    2
    13    11    12    2
    14    20    18   ar
    15    15     9    1
    16    15    16   ar
    17     9    13    2
    18     6     2   ar
    19     6     7    1
    20    18    16   ar
    21    18     1    1
