@<TRIPOS>MOLECULE
2y5n_HEM_A_1.pdb
 43 50 0 0 0
SMALL
GASTEIGER

@<TRIPOS>ATOM
      1  CHA      -37.4510    6.1720   13.4660 C.2   450  HEM450      0.0000
      2  CHB      -34.7950    2.5340   11.6420 C.2   450  HEM450      0.0000
      3  CHC      -31.0740    3.7470   14.5370 C.2   450  HEM450      0.0000
      4  CHD      -33.6930    7.3480   16.3870 C.2   450  HEM450      0.0000
      5  C1A      -37.0120    5.1190   12.6830 C.ar  450  HEM450      0.0000
      6  C2A      -37.7590    4.5140   11.5870 C.ar  450  HEM450      0.0000
      7  C3A      -37.0320    3.4880   11.0720 C.ar  450  HEM450      0.0000
      8  C4A      -35.7790    3.4660   11.8330 C.ar  450  HEM450      0.0000
      9  CMA      -37.4220    2.5130    9.8820 C.3   450  HEM450      0.0000
     10  CAA      -39.1570    4.9870   11.0960 C.3   450  HEM450      0.0000
     11  CBA      -40.2090    4.0490   11.6820 C.3   450  HEM450      0.0000
     12  CGA      -41.6010    4.3670   11.2140 C.2   450  HEM450      0.0000
     13  O1A      -41.8580    5.4820   10.6310 O.co2 450  HEM450      0.0000
     14  O2A      -42.4710    3.4840   11.4100 O.co2 450  HEM450      0.0000
     15  C1B      -33.5860    2.4930   12.3320 C.2   450  HEM450      0.0000
     16  C2B      -32.5640    1.4520   12.1850 C.2   450  HEM450      0.0000
     17  C3B      -31.5300    1.8270   12.9960 C.2   450  HEM450      0.0000
     18  C4B      -31.9050    3.0490   13.6830 C.2   450  HEM450      0.0000
     19  CMB      -32.6990    0.2330   11.2300 C.3   450  HEM450      0.0000
     20  CAB      -30.1880    1.1360   13.3100 C.2   450  HEM450      0.0000
     21  CBB      -29.6000    0.3220   12.3780 C.2   450  HEM450      0.0000
     22  C1C      -31.3850    4.8660   15.2420 C.ar  450  HEM450      0.0000
     23  C2C      -30.5220    5.6070   16.1420 C.ar  450  HEM450      0.0000
     24  C3C      -31.2940    6.5900   16.6860 C.ar  450  HEM450      0.0000
     25  C4C      -32.6380    6.4930   16.1270 C.ar  450  HEM450      0.0000
     26  CMC      -29.0230    5.2920   16.3700 C.3   450  HEM450      0.0000
     27  CAC      -30.9730    7.6850   17.7330 C.2   450  HEM450      0.0000
     28  CBC      -29.7550    7.9080   18.2570 C.2   450  HEM450      0.0000
     29  C1D      -34.9390    7.3040   15.8240 C.2   450  HEM450      0.0000
     30  C2D      -36.0640    8.1550   16.2360 C.2   450  HEM450      0.0000
     31  C3D      -37.2080    7.7640   15.3590 C.2   450  HEM450      0.0000
     32  C4D      -36.6680    6.7690   14.4680 C.2   450  HEM450      0.0000
     33  CMD      -36.1170    9.1820   17.3730 C.3   450  HEM450      0.0000
     34  CAD      -38.6410    8.3800   15.3690 C.3   450  HEM450      0.0000
     35  CBD      -38.5960    9.5590   14.3850 C.3   450  HEM450      0.0000
     36  CGD      -40.0040   10.2200   14.3140 C.2   450  HEM450      0.0000
     37  O1D      -41.0370    9.5590   14.6590 O.co2 450  HEM450      0.0000
     38  O2D      -40.0940   11.4230   13.9060 O.co2 450  HEM450      0.0000
     39  NA       -35.7890    4.4710   12.8050 N.ar  450  HEM450      0.0000
     40  NB       -33.1690    3.4190   13.2740 N.2   450  HEM450      0.0000
     41  NC       -32.6520    5.4650   15.2250 N.ar  450  HEM450      0.0000
     42  ND       -35.3210    6.5000   14.7390 N.2   450  HEM450      0.0000
     43 FE        -34.2310    5.0050   13.9490 Fe    450  HEM450      0.0000
@<TRIPOS>BOND
     1     9     7    1
     2    13    12   ar
     3     7     6   ar
     4     7     8   ar
     5    10     6    1
     6    10    11    1
     7    12    14   ar
     8    12    11    1
     9    19    16    1
    10     6     5   ar
    11     2     8    2
    12     2    15    1
    13     8    39   ar
    14    16    15    1
    15    16    17    2
    16    15    40    2
    17    21    20    2
    18     5    39   ar
    19     5     1    2
    20    39    43    1
    21    17    20    1
    22    17    18    1
    23    40    18    1
    24    40    43    1
    25     1    32    1
    26    18     3    2
    27    38    36   ar
    28    43    42    1
    29    43    41    1
    30    36    35    1
    31    36    37   ar
    32    35    34    1
    33    32    42    2
    34    32    31    1
    35     3    22    1
    36    42    29    1
    37    41    22   ar
    38    41    25   ar
    39    22    23   ar
    40    31    34    1
    41    31    30    2
    42    29    30    1
    43    29     4    2
    44    25     4    1
    45    25    24   ar
    46    23    26    1
    47    23    24   ar
    48    30    33    1
    49    24    27    1
    50    27    28    2
