@<TRIPOS>MOLECULE
2y5n_MYV_A_1.pdb
 50 52 0 0 0
SMALL
GASTEIGER

@<TRIPOS>ATOM
      1  O11      -40.9630   -1.6430   21.7210 O.2   460  MYV460     -0.2449
      2  C34      -39.8640   -2.0680   22.0910 C.2   460  MYV460      0.3411
      3  C33      -39.5730   -2.8620   23.3150 C.2   460  MYV460      0.0774
      4  C32      -40.5610   -3.2550   24.1200 C.2   460  MYV460     -0.0174
      5  C30      -40.2470   -4.0610   25.3260 C.3   460  MYV460      0.0495
      6  C31      -40.4380   -5.5450   24.9560 C.3   460  MYV460      0.0072
      7  C21      -41.2610   -3.7000   26.4160 C.3   460  MYV460      0.1217
      8  O8       -40.8900   -4.4020   27.5750 O.3   460  MYV460     -0.3308
      9  C22      -41.7160   -5.4720   28.0370 C.3   460  MYV460      0.2679
     10  O10      -42.8630   -4.8960   28.6660 O.3   460  MYV460     -0.3311
     11  C28      -43.7890   -5.8540   29.1810 C.3   460  MYV460      0.1194
     12  C29      -45.0630   -5.1880   29.7120 C.3   460  MYV460      0.0322
     13  C27      -43.0690   -6.6710   30.2390 C.3   460  MYV460      0.0483
     14  C24      -41.7860   -7.3100   29.6810 C.3   460  MYV460      0.0957
     15  N        -41.0020   -7.9620   30.7660 N.3   460  MYV460     -0.2691
     16  C26      -40.5620   -7.0600   31.8280 C.3   460  MYV460      0.0897
     17  C25      -41.6430   -9.1320   31.3370 C.3   460  MYV460      0.0897
     18  C23      -40.8980   -6.2290   29.0620 C.3   460  MYV460      0.2224
     19  O9       -39.7650   -6.8490   28.4300 O.3   460  MYV460     -0.2163
     20  C19      -41.2720   -2.2030   26.8000 C.3   460  MYV460      0.0281
     21  C20      -42.5880   -1.8640   27.5320 C.3   460  MYV460      0.0025
     22  C18      -40.0030   -1.7750   27.5860 C.3   460  MYV460      0.0101
     23  C16      -39.9720   -0.2670   27.9650 C.3   460  MYV460      0.0620
     24  C17      -38.7290    0.1320   28.7400 C.3   460  MYV460      0.0081
     25  C15      -40.0540    0.6070   26.7370 C.2   460  MYV460      0.1727
     26  O7       -40.9430    1.4670   26.6850 O.2   460  MYV460     -0.2914
     27  C14      -39.1530    0.3750   25.5740 C.2   460  MYV460      0.0374
     28  C13      -39.3840    0.9300   24.3700 C.2   460  MYV460      0.0027
     29  C12      -38.4990    0.5330   23.2850 C.2   460  MYV460     -0.0019
     30  C11      -38.7840    0.8290   22.0260 C.2   460  MYV460      0.0094
     31  O12      -38.7040   -1.8440   21.3170 O.3   460  MYV460     -0.4462
     32  C35      -38.6570   -0.8670   20.2590 C.3   460  MYV460      0.2030
     33  C36      -37.7910   -1.4880   19.1260 C.3   460  MYV460      0.0467
     34  C37      -38.2180   -2.8510   18.6640 C.3   460  MYV460      0.0039
     35  C1       -37.9660    0.3890   20.8320 C.3   460  MYV460      0.2086
     36  O6       -36.6430   -0.0120   21.2020 O.3   460  MYV460     -0.2148
     37  C2       -37.8300    1.5520   19.8500 C.3   460  MYV460      0.1829
     38  O1       -39.1500    1.8050   19.3450 O.3   460  MYV460     -0.3255
     39  C3       -39.5340    3.1630   19.6220 C.3   460  MYV460      0.2660
     40  C4       -39.5430    4.0150   18.3670 C.3   460  MYV460      0.2009
     41  O2       -38.2070    4.0460   17.8120 O.3   460  MYV460     -0.3458
     42  C5       -38.1390    4.4820   16.4690 C.3   460  MYV460      0.1743
     43  O5       -40.8210    3.1360   20.2320 O.3   460  MYV460     -0.3284
     44  C9       -41.3330    4.3830   20.7070 C.3   460  MYV460      0.1507
     45  C10      -42.6630    4.1060   21.4030 C.3   460  MYV460      0.0350
     46  C8       -41.4580    5.2690   19.4360 C.3   460  MYV460      0.2084
     47  O4       -41.9780    6.5640   19.7480 O.3   460  MYV460     -0.2178
     48  C6       -40.1070    5.4070   18.7170 C.3   460  MYV460      0.1799
     49  O3       -39.1840    6.1290   19.5870 O.3   460  MYV460     -0.3482
     50  C7       -38.6050    7.3730   19.0760 C.3   460  MYV460      0.1742
@<TRIPOS>BOND
     1    42    41    1
     2    41    40    1
     3    40    48    1
     4    40    39    1
     5    34    33    1
     6    48    46    1
     7    48    49    1
     8    50    49    1
     9    33    32    1
    10    38    39    1
    11    38    37    1
    12    46    47    1
    13    46    44    1
    14    39    43    1
    15    37    35    1
    16    43    44    1
    17    32    35    1
    18    32    31    1
    19    44    45    1
    20    35    36    1
    21    35    30    1
    22    31     2    1
    23     1     2    2
    24    30    29    2
    25     2     3    1
    26    29    28    1
    27     3     4    2
    28     4     5    1
    29    28    27    2
    30     6     5    1
    31     5     7    1
    32    27    25    1
    33     7    20    1
    34     7     8    1
    35    26    25    2
    36    25    23    1
    37    20    21    1
    38    20    22    1
    39     8     9    1
    40    22    23    1
    41    23    24    1
    42     9    10    1
    43     9    18    1
    44    19    18    1
    45    10    11    1
    46    18    14    1
    47    11    12    1
    48    11    13    1
    49    14    13    1
    50    14    15    1
    51    15    17    1
    52    15    16    1
