@<TRIPOS>MOLECULE
2y5s_78H_A_1.pdb
 23 25 0 0 0
SMALL
GASTEIGER

@<TRIPOS>ATOM
      1  O4        50.1290  -12.6870   -1.6060 O.2   1293  78H1293    -0.2052
      2  C4        51.3380  -12.6090   -1.8280 C.1   1293  78H1293     0.2569
      3  C5        51.8690  -13.0190   -3.0550 C.2   1293  78H1293     0.2988
      4  N3        52.2110  -12.1050   -0.8380 N.2   1293  78H1293    -0.2466
      5  C9        53.2480  -12.9180   -3.2440 C.1   1293  78H1293     0.1401
      6  N5        51.0670  -13.4750   -4.0480 N.2   1293  78H1293    -0.3839
      7  C2        53.6000  -12.0550   -1.0950 C.1   1293  78H1293     0.2609
      8  N8        53.8120  -13.3100   -4.4520 N.2   1293  78H1293    -0.1992
      9  N1        54.0640  -12.4430   -2.2910 N.2   1293  78H1293    -0.2672
     10  C6        51.5740  -14.0190   -5.1650 C.2   1293  78H1293     0.1356
     11  N2        54.4600  -11.6210   -0.1640 N.pl3 1293  78H1293    -0.0220
     12  C7        53.0880  -14.2040   -5.3690 C.3   1293  78H1293     0.1931
     13  C10       50.6300  -14.4570   -6.2690 C.3   1293  78H1293     0.1683
     14  N11       50.1890  -15.8270   -6.0410 N.pl3 1293  78H1293    -0.2303
     15  C15       48.8970  -16.1370   -6.0570 C.ar  1293  78H1293     0.0658
     16  C16       48.1170  -15.6970   -7.1230 C.ar  1293  78H1293     0.0163
     17  C17       48.3470  -16.8880   -5.0140 C.ar  1293  78H1293     0.0163
     18  C18       46.7680  -16.0260   -7.1480 C.ar  1293  78H1293     0.0079
     19  C19       47.0060  -17.2040   -5.0360 C.ar  1293  78H1293     0.0079
     20  C20       46.2160  -16.7710   -6.1060 C.ar  1293  78H1293     0.0799
     21  C21       44.7170  -17.1130   -6.1240 C.2   1293  78H1293     0.3878
     22  O22       44.2230  -17.5360   -5.0730 O.co2 1293  78H1293    -0.2406
     23  O23       44.0630  -16.8780   -7.1530 O.co2 1293  78H1293    -0.2406
@<TRIPOS>BOND
     1    23    21   ar
     2    18    16   ar
     3    18    20   ar
     4    16    15   ar
     5    13    14    1
     6    13    10    1
     7    21    20    1
     8    21    22   ar
     9    20    19   ar
    10    15    14    1
    11    15    17   ar
    12    12    10    1
    13    12     8    1
    14    10     6    2
    15    19    17   ar
    16     8     5    2
    17     6     3    2
    18     5     3    1
    19     5     9    2
    20     3     2    1
    21     9     7    2
    22     2     1    2
    23     2     4    2
    24     7     4    2
    25     7    11    1
