@<TRIPOS>MOLECULE
2y5w_ADP_A_1.pdb
 27 29 0 0 0
SMALL
GASTEIGER

@<TRIPOS>ATOM
      1  PB        11.7170  -22.6070   34.1860 P.3   600  ADP600      0.5373
      2  O1B       12.8990  -21.7110   34.4590 O.3   600  ADP600     -0.1143
      3  O2B       11.1320  -22.4470   32.7950 O.2   600  ADP600     -0.2221
      4  O3B       10.6640  -22.5390   35.2500 O.3   600  ADP600     -0.1143
      5  PA        12.3810  -25.0300   33.0670 P.3   600  ADP600      0.2231
      6  O1A       13.2610  -24.4530   31.9930 O.2   600  ADP600     -0.5169
      7  O2A       10.9330  -25.2600   32.6800 O.3   600  ADP600     -0.4370
      8  O3A       12.4630  -24.0310   34.3140 O.3   600  ADP600     -0.2261
      9  O5'       13.0570  -26.4220   33.4830 O.3   600  ADP600     -0.3111
     10  C5'       14.1530  -26.5050   34.3900 C.3   600  ADP600      0.1813
     11  C4'       14.9530  -27.7870   34.1230 C.3   600  ADP600      0.1821
     12  O4'       14.4530  -28.9220   34.8450 O.3   600  ADP600     -0.3135
     13  C3'       14.9390  -28.1610   32.6550 C.3   600  ADP600      0.2184
     14  O3'       16.2220  -28.7300   32.3940 O.3   600  ADP600     -0.2174
     15  C2'       13.8620  -29.2260   32.5580 C.3   600  ADP600      0.2570
     16  O2'       14.1850  -30.1470   31.5020 O.3   600  ADP600     -0.2130
     17  C1'       13.8230  -29.8390   33.9580 C.3   600  ADP600      0.3186
     18  N9        12.4530  -30.0490   34.4990 N.pl3 600  ADP600     -0.1439
     19  C8        11.5370  -29.1090   34.8030 C.3   600  ADP600      0.3377
     20  N7        10.4070  -29.6790   35.2880 N.2   600  ADP600     -0.2095
     21  C5        10.5730  -31.0120   35.3240 C.2   600  ADP600      0.2526
     22  C6         9.7870  -32.2140   35.7220 C.2   600  ADP600      0.4393
     23  N6         8.5270  -32.1410   36.2040 N.pl3 600  ADP600      0.2180
     24  N1        10.3540  -33.4290   35.5780 N.2   600  ADP600      0.0021
     25  C2        11.6030  -33.5500   35.1020 C.3   600  ADP600      0.5254
     26  N3        12.3670  -32.5220   34.7180 N.2   600  ADP600     -0.0055
     27  C4        11.9280  -31.2490   34.8020 C.2   600  ADP600      0.3518
@<TRIPOS>BOND
     1    16    15    1
     2     6     5    2
     3    14    13    1
     4    15    13    1
     5    15    17    1
     6    13    11    1
     7     7     5    1
     8     3     1    2
     9     5     9    1
    10     5     8    1
    11     9    10    1
    12    17    18    1
    13    17    12    1
    14    11    10    1
    15    11    12    1
    16     1     8    1
    17     1     2    1
    18     1     4    1
    19    18    27    1
    20    18    19    1
    21    26    27    2
    22    26    25    1
    23    27    21    1
    24    19    20    1
    25    25    24    1
    26    20    21    2
    27    21    22    1
    28    24    22    2
    29    22    23    1
