@<TRIPOS>MOLECULE
2y5y_TGA_A_1.pdb
 15 15 0 0 0
SMALL
GASTEIGER

@<TRIPOS>ATOM
      1  O2        60.5330   72.9450  167.1070 O.3   701  TGA701     -0.2149
      2  C2        60.2530   74.0010  166.1830 C.3   701  TGA701      0.2406
      3  C3        60.3140   75.3380  166.9390 C.3   701  TGA701      0.2198
      4  O3        61.6780   75.7120  167.1480 O.3   701  TGA701     -0.2174
      5  C4        59.5910   76.4520  166.1850 C.3   701  TGA701      0.2144
      6  O4        60.2820   76.7390  164.9610 O.3   701  TGA701     -0.2176
      7  C5        58.1660   76.0000  165.8840 C.3   701  TGA701      0.1835
      8  C6        57.2380   77.1240  165.4090 C.3   701  TGA701      0.2142
      9  O6        57.8880   77.9520  164.4370 O.3   701  TGA701     -0.2176
     10  O5        58.2250   74.9050  164.9570 O.3   701  TGA701     -0.3256
     11  C1        58.8910   73.7360  165.5010 C.3   701  TGA701      0.2695
     12  O1        59.0980   72.8230  164.4020 O.3   701  TGA701     -0.3276
     13  C13       57.9570   71.9600  164.2240 C.3   701  TGA701      0.1574
     14  C14       56.9120   72.6110  163.3080 C.3   701  TGA701      0.1008
     15  S15       56.0300   71.4220  162.2260 S.3   701  TGA701     -0.0794
@<TRIPOS>BOND
     1    15    14    1
     2    14    13    1
     3    13    12    1
     4    12    11    1
     5     9     8    1
     6    10    11    1
     7    10     7    1
     8     6     5    1
     9     8     7    1
    10    11     2    1
    11     7     5    1
    12     2     3    1
    13     2     1    1
    14     5     3    1
    15     3     4    1
