@<TRIPOS>MOLECULE
2y5z_HEM_A_1.pdb
 43 50 0 0 0
SMALL
GASTEIGER

@<TRIPOS>ATOM
      1  CHA      -11.1720   -7.5970   60.7350 C.2   450  HEM450      0.0000
      2  CHB       -6.6780   -5.7160   60.3540 C.2   450  HEM450      0.0000
      3  CHC       -6.5530   -7.1680   55.7800 C.2   450  HEM450      0.0000
      4  CHD      -11.1130   -8.8490   55.9950 C.2   450  HEM450      0.0000
      5  C1A       -9.9640   -7.0100   61.0070 C.2   450  HEM450      0.0000
      6  C2A       -9.5460   -6.5610   62.3170 C.2   450  HEM450      0.0000
      7  C3A       -8.3120   -6.0510   62.2150 C.2   450  HEM450      0.0000
      8  C4A       -7.9040   -6.1470   60.8250 C.2   450  HEM450      0.0000
      9  CMA       -7.4990   -5.4110   63.4080 C.3   450  HEM450      0.0000
     10  CAA      -10.3250   -6.6070   63.6550 C.3   450  HEM450      0.0000
     11  CBA      -11.1120   -5.3090   63.8280 C.3   450  HEM450      0.0000
     12  CGA      -11.7730   -5.2040   65.2200 C.2   450  HEM450      0.0000
     13  O1A      -12.0870   -6.2410   65.8340 O.co2 450  HEM450      0.0000
     14  O2A      -12.0690   -4.0870   65.7150 O.co2 450  HEM450      0.0000
     15  C1B       -6.2530   -5.9010   59.0660 C.ar  450  HEM450      0.0000
     16  C2B       -4.9810   -5.4540   58.5110 C.ar  450  HEM450      0.0000
     17  C3B       -4.9740   -5.8650   57.2450 C.ar  450  HEM450      0.0000
     18  C4B       -6.2310   -6.5710   56.9690 C.ar  450  HEM450      0.0000
     19  CMB       -3.8630   -4.6710   59.2810 C.3   450  HEM450      0.0000
     20  CAB       -3.8760   -5.6310   56.1910 C.2   450  HEM450      0.0000
     21  CBB       -2.5930   -5.4750   56.5320 C.2   450  HEM450      0.0000
     22  C1C       -7.7320   -7.8100   55.4720 C.2   450  HEM450      0.0000
     23  C2C       -8.0110   -8.5120   54.2240 C.2   450  HEM450      0.0000
     24  C3C       -9.3210   -8.9540   54.2980 C.2   450  HEM450      0.0000
     25  C4C       -9.8400   -8.5550   55.5870 C.2   450  HEM450      0.0000
     26  CMC       -6.9410   -8.6490   53.0960 C.3   450  HEM450      0.0000
     27  CAC      -10.2620   -9.7840   53.3600 C.2   450  HEM450      0.0000
     28  CBC       -9.7840  -10.4640   52.2950 C.2   450  HEM450      0.0000
     29  C1D      -11.5760   -8.5910   57.2850 C.ar  450  HEM450      0.0000
     30  C2D      -12.9270   -8.8230   57.7290 C.ar  450  HEM450      0.0000
     31  C3D      -12.9360   -8.4470   59.1960 C.ar  450  HEM450      0.0000
     32  C4D      -11.6010   -8.0200   59.4910 C.ar  450  HEM450      0.0000
     33  CMD      -14.1030   -9.3310   56.8530 C.3   450  HEM450      0.0000
     34  CAD      -14.1150   -8.4660   60.1640 C.3   450  HEM450      0.0000
     35  CBD      -14.1200   -9.8350   60.9000 C.3   450  HEM450      0.0000
     36  CGD      -15.3090  -10.0570   61.8030 C.2   450  HEM450      0.0000
     37  O1D      -15.9690   -9.0720   62.3000 O.co2 450  HEM450      0.0000
     38  O2D      -15.5970  -11.2790   62.0240 O.co2 450  HEM450      0.0000
     39  NA        -8.9190   -6.7840   60.1120 N.2   450  HEM450      0.0000
     40  NB        -6.9940   -6.5680   58.1160 N.ar  450  HEM450      0.0000
     41  NC        -8.8580   -7.8700   56.2800 N.2   450  HEM450      0.0000
     42  ND       -10.8230   -8.0940   58.3310 N.ar  450  HEM450      0.0000
     43 FE         -8.8640   -7.3580   58.2630 Fe    450  HEM450      0.0000
@<TRIPOS>BOND
     1    28    27    2
     2    26    23    1
     3    27    24    1
     4    23    24    2
     5    23    22    1
     6    24    25    1
     7    22     3    2
     8    22    41    1
     9    25     4    1
    10    25    41    2
    11     3    18    1
    12     4    29    2
    13    20    21    2
    14    20    17    1
    15    41    43    1
    16    33    30    1
    17    18    17   ar
    18    18    40   ar
    19    17    16   ar
    20    29    30   ar
    21    29    42   ar
    22    30    31   ar
    23    40    43    1
    24    40    15   ar
    25    43    42    1
    26    43    39    1
    27    42    32   ar
    28    16    15   ar
    29    16    19    1
    30    15     2    1
    31    31    32   ar
    32    31    34    1
    33    32     1    2
    34    39     8    1
    35    39     5    2
    36    34    35    1
    37     2     8    2
    38     1     5    1
    39     8     7    1
    40    35    36    1
    41     5     6    1
    42    36    38   ar
    43    36    37   ar
    44     7     6    2
    45     7     9    1
    46     6    10    1
    47    10    11    1
    48    11    12    1
    49    12    14   ar
    50    12    13   ar
