@<TRIPOS>MOLECULE
2y5z_ZM3_A_1.pdb
 37 38 0 0 0
SMALL
GASTEIGER

@<TRIPOS>ATOM
      1  O5       -14.1440    2.9230   56.3560 O.2   460  ZM3460     -0.2449
      2  C24      -13.4280    3.0060   55.3530 C.2   460  ZM3460      0.3410
      3  O6       -12.3630    1.9890   55.1390 O.3   460  ZM3460     -0.4488
      4  C25      -12.1700    1.0350   56.2060 C.3   460  ZM3460      0.1756
      5  C28      -12.7700   -0.3340   55.8310 C.3   460  ZM3460      0.0951
      6  C1       -14.2120   -0.0140   55.3680 C.2   460  ZM3460     -0.0202
      7  C2       -14.5080    0.7200   54.2490 C.2   460  ZM3460     -0.0043
      8  C29      -12.5480   -1.3170   57.0370 C.3   460  ZM3460      0.1900
      9  O7       -13.5950   -2.2740   57.3920 O.3   460  ZM3460     -0.2199
     10  C26      -10.6810    0.9390   56.5610 C.3   460  ZM3460      0.0441
     11  C27      -10.0200    2.2810   56.3230 C.3   460  ZM3460      0.0038
     12  C23      -13.6550    4.1650   54.4340 C.2   460  ZM3460      0.0774
     13  C22      -14.7970    4.8750   54.4410 C.2   460  ZM3460     -0.0174
     14  C20      -14.9220    6.0970   53.5490 C.3   460  ZM3460      0.0495
     15  C21      -14.3050    7.2790   54.3220 C.3   460  ZM3460      0.0072
     16  C11      -16.3740    6.5240   53.2770 C.3   460  ZM3460      0.1217
     17  C9       -17.3700    5.3880   53.0350 C.3   460  ZM3460      0.0281
     18  C10      -18.8230    5.9090   53.1600 C.3   460  ZM3460      0.0025
     19  C8       -17.0750    4.7010   51.6840 C.3   460  ZM3460      0.0101
     20  C6       -17.9460    3.4750   51.4950 C.3   460  ZM3460      0.0620
     21  C7       -18.0360    2.9600   50.0580 C.3   460  ZM3460      0.0081
     22  C5       -17.4960    2.3930   52.4110 C.2   460  ZM3460      0.1727
     23  O1       -18.4100    1.7730   52.9020 O.2   460  ZM3460     -0.2914
     24  C4       -16.0970    2.0490   52.8040 C.2   460  ZM3460      0.0374
     25  C3       -15.8670    1.1040   53.7720 C.2   460  ZM3460      0.0026
     26  O2       -16.3830    7.3700   52.1160 O.3   460  ZM3460     -0.3308
     27  C12      -16.6760    8.7480   52.3870 C.3   460  ZM3460      0.2679
     28  O4       -18.1070    8.8160   52.5480 O.3   460  ZM3460     -0.3311
     29  C18      -18.6870   10.1140   52.6770 C.3   460  ZM3460      0.1194
     30  C19      -20.1720    9.8850   52.4750 C.3   460  ZM3460      0.0322
     31  C17      -18.1520   11.1420   51.6600 C.3   460  ZM3460      0.0483
     32  C14      -16.6360   11.0880   51.3990 C.3   460  ZM3460      0.0957
     33  N        -16.3500   11.7350   50.0830 N.3   460  ZM3460     -0.2691
     34  C16      -17.5490   12.3110   49.4710 C.3   460  ZM3460      0.0897
     35  C15      -15.2480   12.7500   50.1150 C.3   460  ZM3460      0.0897
     36  C13      -16.1890    9.6290   51.2170 C.3   460  ZM3460      0.2224
     37  O3       -14.7540    9.5590   50.9440 O.3   460  ZM3460     -0.2163
@<TRIPOS>BOND
     1    34    33    1
     2    21    20    1
     3    33    35    1
     4    33    32    1
     5    37    36    1
     6    36    32    1
     7    36    27    1
     8    32    31    1
     9    20    19    1
    10    20    22    1
    11    31    29    1
    12    19    17    1
    13    26    27    1
    14    26    16    1
    15    27    28    1
    16    22    24    1
    17    22    23    2
    18    30    29    1
    19    28    29    1
    20    24    25    2
    21    17    18    1
    22    17    16    1
    23    16    14    1
    24    14    15    1
    25    14    13    1
    26    25     7    1
    27     7     6    2
    28    12    13    2
    29    12     2    1
    30     3     2    1
    31     3     4    1
    32     2     1    2
    33     6     5    1
    34     5     4    1
    35     5     8    1
    36     4    10    1
    37    11    10    1
    38     8     9    1
