@<TRIPOS>MOLECULE
2y60_M8F_A_1.pdb
 25 24 0 0 0
SMALL
GASTEIGER

@<TRIPOS>ATOM
      1  C8        11.8960   39.4090    5.5180 C.2   1332  M8F1332     0.2418
      2  O9        11.6380   39.7930    6.6880 O.2   1332  M8F1332    -0.2733
      3  O4        18.1310   36.2100    6.4710 O.co2 1332  M8F1332    -0.2441
      4  C7        13.3370   39.1520    5.0980 C.3   1332  M8F1332     0.0869
      5  C2        17.2180   36.0640    5.5860 C.2   1332  M8F1332     0.3819
      6  C1        15.8400   36.3210    6.0830 C.3   1332  M8F1332     0.1943
      7  C5        15.2430   37.5600    5.3940 C.3   1332  M8F1332     0.0311
      8  C6        13.7710   37.8380    5.7720 C.3   1332  M8F1332     0.0117
      9  N1        15.8520   36.4780    7.6140 N.3   1332  M8F1332    -0.1208
     10  O3        17.4090   35.8170    4.4030 O.co2 1332  M8F1332    -0.2441
     11  N10       10.9520   39.2730    4.5840 N.am  1332  M8F1332    -0.1968
     12  C11        9.4970   39.5070    4.8470 C.3   1332  M8F1332     0.1843
     13  C14        8.7330   38.1630    4.7340 C.2   1332  M8F1332     0.2626
     14  O15        9.3070   37.0560    4.5970 O.2   1332  M8F1332    -0.2714
     15  C12        9.0140   40.4520    3.7100 C.3   1332  M8F1332     0.0997
     16  S13        9.4350   39.7730    2.0560 S.3   1332  M8F1332    -0.0797
     17  N16        7.4170   38.2670    4.6660 N.am  1332  M8F1332    -0.1941
     18  C17        6.5780   37.0600    4.5360 C.3   1332  M8F1332     0.1987
     19  C22        5.2610   37.2020    5.2290 C.2   1332  M8F1332     0.3842
     20  O24        5.1990   38.0860    6.0830 O.co2 1332  M8F1332    -0.2437
     21  C18        6.3810   36.6430    3.0850 C.3   1332  M8F1332     0.0449
     22  C19        6.9270   37.6240    2.0590 C.3   1332  M8F1332     0.0599
     23  S20        6.0700   39.2460    1.9810 S.3   1332  M8F1332    -0.1393
     24  C21        4.7090   38.5960    1.0480 C.3   1332  M8F1332     0.0692
     25  O23        4.3070   36.4440    4.9290 O.co2 1332  M8F1332    -0.2437
@<TRIPOS>BOND
     1    24    23    1
     2    23    22    1
     3    16    15    1
     4    22    21    1
     5    21    18    1
     6    15    12    1
     7    10     5   ar
     8    18    17    1
     9    18    19    1
    10    11    12    1
    11    11     1   am
    12    14    13    2
    13    17    13   am
    14    13    12    1
    15    25    19   ar
    16     4     1    1
    17     4     8    1
    18    19    20   ar
    19     7     8    1
    20     7     6    1
    21     1     2    2
    22     5     6    1
    23     5     3   ar
    24     6     9    1
