@<TRIPOS>MOLECULE
2y64_XYP_A_1.pdb
 10 10 0 0 0
SMALL
GASTEIGER

@<TRIPOS>ATOM
      1  O4A       18.6160    5.8070  -21.7860 O.3   170  XYP170     -0.1869
      2  C1B       17.2130    5.7120  -21.6030 C.3   170  XYP170      0.3024
      3  C2B       16.9050    6.2240  -20.2290 C.3   170  XYP170      0.2434
      4  C3B       15.4030    6.3100  -20.0260 C.3   170  XYP170      0.2199
      5  C4B       14.7210    6.9960  -21.2050 C.3   170  XYP170      0.2143
      6  C5B       15.2240    6.4310  -22.5270 C.3   170  XYP170      0.1804
      7  O2B       17.4690    5.3470  -19.2780 O.3   170  XYP170     -0.2148
      8  O3B       15.1280    7.0530  -18.8600 O.3   170  XYP170     -0.2174
      9  O4B       13.3290    6.7970  -21.0760 O.3   170  XYP170     -0.2176
     10  O5B       16.6280    6.4900  -22.5340 O.3   170  XYP170     -0.3237
@<TRIPOS>BOND
     1    10     6    1
     2    10     2    1
     3     6     5    1
     4     1     2    1
     5     2     3    1
     6     5     9    1
     7     5     4    1
     8     3     4    1
     9     3     7    1
    10     4     8    1
