@<TRIPOS>MOLECULE
2y65_ADP_A_1.pdb
 27 29 0 0 0
SMALL
GASTEIGER

@<TRIPOS>ATOM
      1  PB        23.9040    9.6310  -34.0180 P.3   603  ADP603      0.5373
      2  O1B       23.1040   10.1550  -35.1910 O.2   603  ADP603     -0.2221
      3  O2B       25.3810    9.5060  -34.3190 O.3   603  ADP603     -0.1143
      4  O3B       23.3580    8.4650  -33.2970 O.3   603  ADP603     -0.1143
      5  PA        25.0680   11.7900  -32.4770 P.3   603  ADP603      0.2231
      6  O1A       25.5710   12.6640  -33.5740 O.2   603  ADP603     -0.5169
      7  O2A       26.0280   11.0380  -31.5880 O.3   603  ADP603     -0.4370
      8  O3A       23.8390   10.8520  -32.9610 O.3   603  ADP603     -0.2261
      9  O5'       24.1890   12.6650  -31.4300 O.3   603  ADP603     -0.3111
     10  C5'       23.2360   13.6190  -31.8790 C.3   603  ADP603      0.1813
     11  C4'       23.4730   14.9680  -31.1950 C.3   603  ADP603      0.1821
     12  O4'       23.2410   14.8390  -29.7810 O.3   603  ADP603     -0.3135
     13  C3'       24.9440   15.3370  -31.3660 C.3   603  ADP603      0.2184
     14  O3'       25.0280   16.7450  -31.4230 O.3   603  ADP603     -0.2174
     15  C2'       25.5890   14.9670  -30.0340 C.3   603  ADP603      0.2570
     16  O2'       26.5870   15.8920  -29.6150 O.3   603  ADP603     -0.2130
     17  C1'       24.4520   15.0920  -29.0440 C.3   603  ADP603      0.3186
     18  N9        24.5800   14.0640  -27.9910 N.pl3 603  ADP603     -0.1439
     19  C8        24.4270   12.7370  -28.1480 C.3   603  ADP603      0.3377
     20  N7        24.5530   12.0970  -26.9600 N.2   603  ADP603     -0.2095
     21  C5        24.7200   13.0370  -26.0020 C.2   603  ADP603      0.2526
     22  C6        24.9100   13.0220  -24.5310 C.2   603  ADP603      0.4393
     23  N6        24.9370   11.8480  -23.8520 N.pl3 603  ADP603      0.2180
     24  N1        25.0510   14.1980  -23.9180 N.2   603  ADP603      0.0021
     25  C2        25.0230   15.3610  -24.6000 C.3   603  ADP603      0.5254
     26  N3        24.8560   15.4600  -25.9350 N.2   603  ADP603     -0.0055
     27  C4        24.7270   14.3350  -26.6830 C.2   603  ADP603      0.3518
@<TRIPOS>BOND
     1     2     1    2
     2     3     1    1
     3     1     4    1
     4     1     8    1
     5     6     5    2
     6     8     5    1
     7     5     7    1
     8     5     9    1
     9    10     9    1
    10    10    11    1
    11    14    13    1
    12    13    11    1
    13    13    15    1
    14    11    12    1
    15    15    16    1
    16    15    17    1
    17    12    17    1
    18    17    18    1
    19    19    18    1
    20    19    20    1
    21    18    27    1
    22    20    21    2
    23    27    21    1
    24    27    26    2
    25    21    22    1
    26    26    25    1
    27    25    24    1
    28    22    24    2
    29    22    23    1
