@<TRIPOS>MOLECULE
2y66_N04_A_1.pdb
 34 36 0 0 0
SMALL
GASTEIGER

@<TRIPOS>ATOM
      1  OE2        0.5060   27.3950  120.7780 O.co2 500  N04500     -0.2457
      2  CD         1.3290   27.5570  121.7100 C.2   500  N04500      0.3649
      3  OE1        1.1970   28.3990  122.6230 O.co2 500  N04500     -0.2457
      4  CG         2.6020   26.7710  121.7830 C.3   500  N04500      0.1164
      5  CB         2.7840   25.8010  120.6420 C.3   500  N04500      0.0451
      6  C          5.0820   25.2400  121.3850 C.2   500  N04500      0.3842
      7  OXT        5.7790   25.3830  120.3500 O.co2 500  N04500     -0.2437
      8  O          5.4730   25.4990  122.5470 O.co2 500  N04500     -0.2437
      9  N          3.6310   23.5220  120.4310 N.am  500  N04500     -0.1918
     10  CAU        4.1170   22.3580  120.8470 C.2   500  N04500      0.2652
     11  OBC        4.7920   22.2390  121.8630 O.2   500  N04500     -0.2684
     12  CAT        3.7890   21.1920  119.9630 C.ar  500  N04500      0.0549
     13  CAQ        2.5190   21.1280  119.4020 C.ar  500  N04500      0.0039
     14  CAS        4.7280   20.2120  119.6670 C.ar  500  N04500      0.0045
     15  CAR        4.3840   19.1610  118.8230 C.ar  500  N04500     -0.0001
     16  CAP        3.1150   19.0910  118.2620 C.ar  500  N04500     -0.0007
     17  CAO        2.1870   20.0800  118.5530 C.ar  500  N04500      0.0213
     18  CAN        0.7980   20.0220  117.9760 C.3   500  N04500      0.2320
     19  CAA       -1.1760   17.8390  118.3200 C.ar  500  N04500      0.0369
     20  CAB       -1.6900   16.5850  118.6000 C.ar  500  N04500      0.0031
     21  CAG       -1.6390   16.0800  119.8890 C.ar  500  N04500      0.0002
     22  CAC       -0.6270   18.6050  119.3400 C.ar  500  N04500      0.1391
     23  CAE       -0.5800   18.1050  120.6400 C.ar  500  N04500      0.0370
     24  CAF       -1.0800   16.8350  120.9080 C.ar  500  N04500      0.0043
     25  CAH       -1.0210   16.3260  122.3300 C.2   500  N04500      0.0201
     26  SBG       -1.3970   13.5480  121.4530 S.3   500  N04500      0.0317
     27  CAL       -1.5590   12.4480  122.8210 C.1   500  N04500      0.2492
     28  NAX       -1.4950   12.9230  124.0880 N.2   500  N04500     -0.2516
     29  CA         3.6830   24.7140  121.2340 C.3   500  N04500      0.1986
     30  CAK       -1.3200   14.2530  124.0010 C.1   500  N04500      0.2223
     31  CAI       -1.2350   14.8470  122.6450 C.2   500  N04500      0.1364
     32  OBE       -1.2260   14.9730  125.0630 O.2   500  N04500     -0.2080
     33  OAY       -0.1350   19.8550  119.0470 O.3   500  N04500     -0.4706
     34  OBH       -1.7310   11.1930  122.6700 O.2   500  N04500     -0.2014
@<TRIPOS>BOND
     1    18    17    1
     2    18    33    1
     3    16    17   ar
     4    16    15   ar
     5    19    20   ar
     6    19    22   ar
     7    17    13   ar
     8    20    21   ar
     9    15    14   ar
    10    33    22    1
    11    22    23   ar
    12    13    12   ar
    13    14    12   ar
    14    21    24   ar
    15    12    10    1
    16     7     6   ar
    17     9    10   am
    18     9    29    1
    19    23    24   ar
    20     5    29    1
    21     5     4    1
    22     1     2   ar
    23    10    11    2
    24    24    25    1
    25    29     6    1
    26     6     8   ar
    27    26    31    1
    28    26    27    1
    29     2     4    1
    30     2     3   ar
    31    25    31    2
    32    31    30    1
    33    34    27    2
    34    27    28    2
    35    30    28    2
    36    30    32    2
