@<TRIPOS>MOLECULE
2y67_N21_A_1.pdb
 35 37 0 0 0
SMALL
GASTEIGER

@<TRIPOS>ATOM
      1  OE1       37.1420    0.9450   21.4090 O.co2 500  N21500     -0.2457
      2  CD        37.9550    1.1000   20.4760 C.2   500  N21500      0.3649
      3  OE2       38.0470    0.2840   19.5260 O.co2 500  N21500     -0.2457
      4  CG        38.8340    2.3340   20.5600 C.3   500  N21500      0.1161
      5  CB        39.7190    2.5610   19.3500 C.3   500  N21500      0.0427
      6  C         40.1490    4.9190   20.0860 C.2   500  N21500      0.3822
      7  OXT       40.0290    5.2120   21.3060 O.co2 500  N21500     -0.2440
      8  O         39.7600    5.6830   19.1710 O.co2 500  N21500     -0.2440
      9  N         41.5760    3.7210   18.4560 N.3   500  N21500     -0.0677
     10  OBC       43.3870    5.1810   17.8080 O.2   500  N21500     -0.1516
     11  CAT       44.8720    2.9270   16.8670 C.ar  500  N21500      0.0197
     12  CAQ       45.4330    1.8360   16.1920 C.ar  500  N21500      0.0007
     13  CAS       43.7810    2.7350   17.7290 C.ar  500  N21500      0.1235
     14  CAR       43.2550    1.4460   17.9010 C.ar  500  N21500      0.0197
     15  CAP       43.8130    0.3600   17.2260 C.ar  500  N21500      0.0007
     16  CAO       44.9070    0.5460   16.3710 C.ar  500  N21500      0.0212
     17  CAN       45.4890   -0.6640   15.6490 C.3   500  N21500      0.2320
     18  CAA       47.4500   -1.0090   17.0990 C.ar  500  N21500      0.1391
     19  CAB       46.8980   -0.3590   18.2050 C.ar  500  N21500      0.0369
     20  CAG       47.4430   -0.5220   19.4760 C.ar  500  N21500      0.0031
     21  CAC       48.5670   -1.8280   17.2730 C.ar  500  N21500      0.0369
     22  CAE       49.1170   -1.9890   18.5470 C.ar  500  N21500      0.0031
     23  CAF       48.5650   -1.3270   19.6480 C.ar  500  N21500      0.0015
     24  CAH       49.0990   -1.4580   21.0580 C.2   500  N21500      0.0200
     25  SBG       51.8440   -1.5040   20.0840 S.3   500  N21500      0.0317
     26  CAL       52.9710   -1.7360   21.3970 C.1   500  N21500      0.2492
     27  NAX       52.5130   -1.8600   22.6490 N.2   500  N21500     -0.2516
     28  CA        40.7880    3.6030   19.6800 C.3   500  N21500      0.2007
     29  CAK       51.1750   -1.7710   22.5640 C.1   500  N21500      0.2223
     30  CAI       50.5960   -1.5850   21.3270 C.2   500  N21500      0.1364
     31  OBE       50.3140   -1.8630   23.7650 O.2   500  N21500     -0.2080
     32  SAU       43.0880    3.9660   18.5040 S.O2  500  N21500      0.0773
     33  OBD       43.5250    4.0320   19.8680 O.2   500  N21500     -0.1516
     34  OBH       54.4190   -1.8160   21.1720 O.2   500  N21500     -0.2014
     35  OAY       46.9000   -0.8320   15.8470 O.3   500  N21500     -0.4706
@<TRIPOS>BOND
     1    17    35    1
     2    17    16    1
     3    35    18    1
     4    12    16   ar
     5    12    11   ar
     6    16    15   ar
     7    11    13   ar
     8    18    21   ar
     9    18    19   ar
    10    15    14   ar
    11    21    22   ar
    12    13    14   ar
    13    13    32    1
    14    10    32    2
    15    19    20   ar
    16     9    32    1
    17     9    28    1
    18    32    33    2
    19    22    23   ar
    20     8     6   ar
    21     5    28    1
    22     5     4    1
    23    20    23   ar
    24     3     2   ar
    25    23    24    1
    26    28     6    1
    27    25    30    1
    28    25    26    1
    29     6     7   ar
    30     2     4    1
    31     2     1   ar
    32    24    30    2
    33    34    26    2
    34    30    29    1
    35    26    27    2
    36    29    27    2
    37    29    31    2
