@<TRIPOS>MOLECULE
2y68_T04_A_1.pdb
 35 37 0 0 0
SMALL
GASTEIGER

@<TRIPOS>ATOM
      1  OE1       27.4390    0.4830   47.2550 O.co2 500  T04500     -0.2405
      2  CD        27.5810    1.3050   46.3040 C.2   500  T04500      0.3880
      3  OE2       28.3870    1.2190   45.3770 O.co2 500  T04500     -0.2405
      4  CG        26.6450    2.4370   46.1720 C.2   500  T04500      0.0877
      5  CB        25.9700    2.7970   47.2260 C.2   500  T04500      0.0301
      6  C         25.3620    5.2240   46.6410 C.2   500  T04500      0.4028
      7  O         25.5620    5.5180   45.4200 O.co2 500  T04500     -0.2391
      8  OXT       25.4980    6.0320   47.5570 O.co2 500  T04500     -0.2391
      9  N         23.8710    3.6220   47.6500 N.am  500  T04500     -0.1687
     10  CAU       22.8030    4.4020   47.7330 C.2   500  T04500      0.2713
     11  OBC       22.5100    5.2200   46.8780 O.2   500  T04500     -0.2679
     12  CAT       21.9340    4.1000   48.9240 C.ar  500  T04500      0.0825
     13  CAQ       21.6210    2.7490   49.1150 C.ar  500  T04500      0.0043
     14  CAS       21.4720    5.0620   49.8350 C.ar  500  T04500      0.1445
     15  CAR       20.6950    4.6680   50.9160 C.ar  500  T04500      0.0295
     16  CAP       20.3720    3.3310   51.1060 C.ar  500  T04500     -0.0002
     17  CAO       20.8290    2.3750   50.2100 C.ar  500  T04500     -0.0004
     18  CAN       20.5060    0.9640   50.4760 C.3   500  T04500      0.1385
     19  NAY       19.1690    0.5770   50.5740 N.pl3 500  T04500     -0.2328
     20  CAA       18.5450    0.1670   49.4100 C.ar  500  T04500      0.0657
     21  CAC       19.1190    0.4500   48.1690 C.ar  500  T04500      0.0161
     22  CAE       18.4670    0.0400   47.0080 C.ar  500  T04500      0.0014
     23  CAB       17.3350   -0.5030   49.5070 C.ar  500  T04500      0.0161
     24  CAG       16.6860   -0.9210   48.3600 C.ar  500  T04500      0.0014
     25  CAF       17.2660   -0.6720   47.1160 C.ar  500  T04500      0.0014
     26  CAH       16.6120   -0.9870   45.8400 C.2   500  T04500      0.0199
     27  CAI       15.1550   -1.1180   45.6180 C.2   500  T04500      0.1340
     28  SBG       13.9460   -1.0220   46.8700 S.3   500  T04500     -0.0013
     29  CAL       12.7710   -1.2870   45.6280 C.1   500  T04500      0.0848
     30  SBH       11.0800   -1.3960   46.0230 S.2   500  T04500      0.0320
     31  NAX       13.1920   -1.4390   44.3610 N.2   500  T04500     -0.2824
     32  CAK       14.5460   -1.3430   44.3860 C.1   500  T04500      0.2198
     33  FAS       21.7460    6.3860   49.7190 F     500  T04500     -0.2040
     34  OBE       15.2150   -1.4260   43.2820 O.2   500  T04500     -0.2081
     35  CA        24.9920    3.8940   47.1200 C.2   500  T04500      0.1534
@<TRIPOS>BOND
     1    34    32    2
     2    31    32    2
     3    31    29    2
     4    32    27    1
     5     3     2   ar
     6     7     6   ar
     7    27    26    2
     8    27    28    1
     9    29    30    2
    10    29    28    1
    11    26    25    1
    12     4     2    1
    13     4     5    2
    14     2     1   ar
    15     6    35    1
    16     6     8   ar
    17    11    10    2
    18    22    25   ar
    19    22    21   ar
    20    25    24   ar
    21    35     5    1
    22    35     9    2
    23     9    10    1
    24    10    12    1
    25    21    20   ar
    26    24    23   ar
    27    12    13   ar
    28    12    14   ar
    29    13    17   ar
    30    20    23   ar
    31    20    19    1
    32    33    14    1
    33    14    15   ar
    34    17    18    1
    35    17    16   ar
    36    18    19    1
    37    15    16   ar
