@<TRIPOS>MOLECULE
2y69_DMU_M_1.pdb
 33 34 0 0 0
SMALL
GASTEIGER

@<TRIPOS>ATOM
      1  C1        28.3360  322.8700  194.9530 C.3   1044  DMU1044     0.2404
      2  C2        27.5240  323.7120  193.9630 C.3   1044  DMU1044     0.2167
      3  C3        26.1470  323.1720  193.7940 C.3   1044  DMU1044     0.1804
      4  C4        25.9280  321.8720  193.7630 C.3   1044  DMU1044     0.1803
      5  O5        26.9050  320.9760  194.3420 O.3   1044  DMU1044    -0.3257
      6  C6        27.6420  321.5970  195.3910 C.3   1044  DMU1044     0.2695
      7  O7        25.0250  324.0610  193.6580 O.3   1044  DMU1044    -0.3257
      8  O16       28.7300  320.7580  195.7020 O.3   1044  DMU1044    -0.3286
      9  C18       28.3650  319.4090  196.0000 C.3   1044  DMU1044     0.1449
     10  C19       29.6030  318.5930  195.6730 C.3   1044  DMU1044     0.0322
     11  C22       29.3500  317.1120  195.8700 C.3   1044  DMU1044     0.0026
     12  C25       30.1910  316.3410  194.8630 C.3   1044  DMU1044     0.0001
     13  C28       31.6260  316.8570  194.8310 C.3   1044  DMU1044     0.0000
     14  C31       32.4770  315.8220  194.0980 C.3   1044  DMU1044     0.0000
     15  C34       33.8680  315.7400  194.7000 C.3   1044  DMU1044     0.0000
     16  C37       34.7360  316.8670  194.1750 C.3   1044  DMU1044     0.0000
     17  C40       36.2170  316.4960  194.2690 C.3   1044  DMU1044     0.0000
     18  C43       36.8470  316.2880  192.9040 C.3   1044  DMU1044     0.0000
     19  O49       28.7330  323.5730  196.1410 O.3   1044  DMU1044    -0.2149
     20  O55       27.3970  325.0600  194.3880 O.3   1044  DMU1044    -0.2175
     21  C57       24.6760  321.3710  193.1000 C.3   1044  DMU1044     0.2141
     22  O61       24.4850  319.9800  193.3920 O.3   1044  DMU1044    -0.2176
     23  C5        25.0660  326.2620  192.9480 C.3   1044  DMU1044     0.2406
     24  C7        23.7180  326.9420  193.2620 C.3   1044  DMU1044     0.2198
     25  C8        22.5200  326.3400  192.5470 C.3   1044  DMU1044     0.2144
     26  C9        22.6320  324.8300  192.5280 C.3   1044  DMU1044     0.1835
     27  O1        23.7810  324.5070  191.7440 O.3   1044  DMU1044    -0.3256
     28  C10       24.9880  324.8170  192.4510 C.3   1044  DMU1044     0.2695
     29  O2        21.3320  326.6750  193.2670 O.3   1044  DMU1044    -0.2176
     30  O3        25.9180  327.0520  192.1070 O.3   1044  DMU1044    -0.2149
     31  O4        23.7960  328.3340  192.9610 O.3   1044  DMU1044    -0.2174
     32  C11       21.3380  324.2050  192.0060 C.3   1044  DMU1044     0.2142
     33  O6        21.6080  323.3470  190.8890 O.3   1044  DMU1044    -0.2176
@<TRIPOS>BOND
     1    33    32    1
     2    27    28    1
     3    27    26    1
     4    32    26    1
     5    30    23    1
     6    28    23    1
     7    28     7    1
     8    26    25    1
     9    25    24    1
    10    25    29    1
    11    18    17    1
    12    23    24    1
    13    31    24    1
    14    21    22    1
    15    21     4    1
    16     7     3    1
    17     4     3    1
    18     4     5    1
    19     3     2    1
    20     2    20    1
    21     2     1    1
    22    14    15    1
    23    14    13    1
    24    16    17    1
    25    16    15    1
    26     5     6    1
    27    13    12    1
    28    12    11    1
    29     1     6    1
    30     1    19    1
    31     6     8    1
    32    10    11    1
    33    10     9    1
    34     8     9    1
