@<TRIPOS>MOLECULE
2y6a_HEM_A_1.pdb
 43 50 0 0 0
SMALL
GASTEIGER

@<TRIPOS>ATOM
      1  CHA       13.3300   58.1970   20.1760 C.2   251  HEM251      0.0000
      2  CHB       12.3460   55.6050   16.1530 C.2   251  HEM251      0.0000
      3  CHC       15.6600   52.3040   17.5860 C.2   251  HEM251      0.0000
      4  CHD       16.8580   55.0250   21.3990 C.2   251  HEM251      0.0000
      5  C1A       12.8180   57.7720   18.9650 C.ar  251  HEM251      0.0000
      6  C2A       11.8260   58.5020   18.1750 C.ar  251  HEM251      0.0000
      7  C3A       11.5480   57.8050   17.0760 C.ar  251  HEM251      0.0000
      8  C4A       12.3540   56.5950   17.1180 C.ar  251  HEM251      0.0000
      9  CMA       10.5250   58.1730   15.9560 C.3   251  HEM251      0.0000
     10  CAA       11.2150   59.8620   18.5570 C.3   251  HEM251      0.0000
     11  CBA       12.1800   61.0180   18.2220 C.3   251  HEM251      0.0000
     12  CGA       11.4680   62.2750   18.7240 C.2   251  HEM251      0.0000
     13  O1A       10.3440   62.5760   18.2160 O.co2 251  HEM251      0.0000
     14  O2A       11.9820   62.9650   19.6350 O.co2 251  HEM251      0.0000
     15  C1B       13.1070   54.4510   16.2200 C.2   251  HEM251      0.0000
     16  C2B       13.0110   53.3290   15.3210 C.2   251  HEM251      0.0000
     17  C3B       13.8810   52.4080   15.7460 C.2   251  HEM251      0.0000
     18  C4B       14.5940   52.9190   16.9280 C.2   251  HEM251      0.0000
     19  CMB       12.0090   53.2070   14.1590 C.3   251  HEM251      0.0000
     20  CAB       14.1520   51.0360   15.1400 C.2   251  HEM251      0.0000
     21  CBB       14.0100   49.9410   15.9180 C.2   251  HEM251      0.0000
     22  C1C       16.3730   52.8020   18.6480 C.ar  251  HEM251      0.0000
     23  C2C       17.5790   52.2360   19.2380 C.ar  251  HEM251      0.0000
     24  C3C       17.8840   52.9960   20.3180 C.ar  251  HEM251      0.0000
     25  C4C       16.8800   54.0390   20.4270 C.ar  251  HEM251      0.0000
     26  CMC       18.3060   50.9880   18.6600 C.3   251  HEM251      0.0000
     27  CAC       19.0620   52.9140   21.3320 C.2   251  HEM251      0.0000
     28  CBC       19.4450   51.6840   21.8070 C.2   251  HEM251      0.0000
     29  C1D       15.9450   56.0480   21.4530 C.2   251  HEM251      0.0000
     30  C2D       15.7860   56.9470   22.6050 C.2   251  HEM251      0.0000
     31  C3D       14.7060   57.9270   22.2380 C.2   251  HEM251      0.0000
     32  C4D       14.3000   57.5480   20.8930 C.2   251  HEM251      0.0000
     33  CMD       16.5450   56.8920   23.9290 C.3   251  HEM251      0.0000
     34  CAD       14.1520   59.0850   23.0910 C.3   251  HEM251      0.0000
     35  CBD       14.9230   60.3220   22.7170 C.3   251  HEM251      0.0000
     36  CGD       14.4320   61.4900   23.5830 C.2   251  HEM251      0.0000
     37  O1D       14.5940   62.6690   23.1760 O.co2 251  HEM251      0.0000
     38  O2D       13.8670   61.2570   24.6810 O.co2 251  HEM251      0.0000
     39  NA        13.1240   56.6100   18.2850 N.ar  251  HEM251      0.0000
     40  NB        14.1100   54.1860   17.1480 N.2   251  HEM251      0.0000
     41  NC        15.9870   53.9080   19.3860 N.ar  251  HEM251      0.0000
     42  ND        15.0450   56.4370   20.4570 N.2   251  HEM251      0.0000
     43 FE         14.4250   55.1470   18.9090 Fe    251  HEM251      0.0000
@<TRIPOS>BOND
     1    19    16    1
     2    20    17    1
     3    20    21    2
     4    16    17    2
     5    16    15    1
     6    17    18    1
     7     9     7    1
     8     2    15    1
     9     2     8    2
    10    15    40    2
    11    18    40    1
    12    18     3    2
    13     7     8   ar
    14     7     6   ar
    15     8    39   ar
    16    40    43    1
    17     3    22    1
    18     6    10    1
    19     6     5   ar
    20    13    12   ar
    21    11    10    1
    22    11    12    1
    23    39    43    1
    24    39     5   ar
    25    22    23   ar
    26    22    41   ar
    27    26    23    1
    28    12    14   ar
    29    43    41    1
    30    43    42    1
    31     5     1    2
    32    23    24   ar
    33    41    25   ar
    34     1    32    1
    35    24    25   ar
    36    24    27    1
    37    25     4    1
    38    42    32    2
    39    42    29    1
    40    32    31    1
    41    27    28    2
    42     4    29    2
    43    29    30    1
    44    31    30    2
    45    31    34    1
    46    30    33    1
    47    35    34    1
    48    35    36    1
    49    37    36   ar
    50    36    38   ar
