@<TRIPOS>MOLECULE
2y6b_HEM_A_1.pdb
 43 50 0 0 0
SMALL
GASTEIGER

@<TRIPOS>ATOM
      1  CHA       13.2200   58.1230   20.1980 C.2   251  HEM251      0.0000
      2  CHB       12.3730   55.5230   16.1430 C.2   251  HEM251      0.0000
      3  CHC       15.5680   52.1710   17.6320 C.2   251  HEM251      0.0000
      4  CHD       16.6650   54.8950   21.4750 C.2   251  HEM251      0.0000
      5  C1A       12.7270   57.7250   18.9640 C.ar  251  HEM251      0.0000
      6  C2A       11.7060   58.3980   18.1910 C.ar  251  HEM251      0.0000
      7  C3A       11.4630   57.6790   17.0770 C.ar  251  HEM251      0.0000
      8  C4A       12.3230   56.5140   17.1080 C.ar  251  HEM251      0.0000
      9  CMA       10.4640   58.0030   15.9480 C.3   251  HEM251      0.0000
     10  CAA       11.0320   59.7220   18.5840 C.3   251  HEM251      0.0000
     11  CBA       11.9540   60.9270   18.2830 C.3   251  HEM251      0.0000
     12  CGA       11.2380   62.1460   18.8070 C.2   251  HEM251      0.0000
     13  O1A       10.1550   62.4470   18.2730 O.co2 251  HEM251      0.0000
     14  O2A       11.7190   62.8260   19.7470 O.co2 251  HEM251      0.0000
     15  C1B       13.0930   54.3460   16.2470 C.2   251  HEM251      0.0000
     16  C2B       12.9190   53.1890   15.4180 C.2   251  HEM251      0.0000
     17  C3B       13.7770   52.2490   15.8260 C.2   251  HEM251      0.0000
     18  C4B       14.5390   52.7950   16.9460 C.2   251  HEM251      0.0000
     19  CMB       11.9040   53.0710   14.2710 C.3   251  HEM251      0.0000
     20  CAB       13.9250   50.8360   15.2400 C.2   251  HEM251      0.0000
     21  CBB       14.0090   49.7840   16.0640 C.2   251  HEM251      0.0000
     22  C1C       16.2310   52.6560   18.7240 C.ar  251  HEM251      0.0000
     23  C2C       17.4240   52.1100   19.3250 C.ar  251  HEM251      0.0000
     24  C3C       17.7280   52.8640   20.4060 C.ar  251  HEM251      0.0000
     25  C4C       16.7230   53.9110   20.5040 C.ar  251  HEM251      0.0000
     26  CMC       18.1610   50.8640   18.7760 C.3   251  HEM251      0.0000
     27  CAC       18.9090   52.6960   21.3990 C.2   251  HEM251      0.0000
     28  CBC       19.3250   51.4670   21.8000 C.2   251  HEM251      0.0000
     29  C1D       15.7740   55.9470   21.5520 C.2   251  HEM251      0.0000
     30  C2D       15.6050   56.8350   22.7000 C.2   251  HEM251      0.0000
     31  C3D       14.5320   57.8350   22.3070 C.2   251  HEM251      0.0000
     32  C4D       14.1530   57.4550   20.9610 C.2   251  HEM251      0.0000
     33  CMD       16.3490   56.7960   24.0310 C.3   251  HEM251      0.0000
     34  CAD       13.9900   58.9870   23.1720 C.3   251  HEM251      0.0000
     35  CBD       14.6690   60.2880   22.7660 C.3   251  HEM251      0.0000
     36  CGD       14.1570   61.4170   23.6570 C.2   251  HEM251      0.0000
     37  O1D       14.2670   62.6090   23.2370 O.co2 251  HEM251      0.0000
     38  O2D       13.6410   61.1510   24.7850 O.co2 251  HEM251      0.0000
     39  NA        13.0760   56.5690   18.2840 N.ar  251  HEM251      0.0000
     40  NB        14.0900   54.0790   17.1540 N.2   251  HEM251      0.0000
     41  NC        15.8380   53.7440   19.4580 N.ar  251  HEM251      0.0000
     42  ND        14.8990   56.3490   20.5620 N.2   251  HEM251      0.0000
     43 FE         14.3440   55.0830   18.9540 Fe    251  HEM251      0.0000
@<TRIPOS>BOND
     1    19    16    1
     2    20    17    1
     3    20    21    2
     4    16    17    2
     5    16    15    1
     6    17    18    1
     7     9     7    1
     8     2    15    1
     9     2     8    2
    10    15    40    2
    11    18    40    1
    12    18     3    2
    13     7     8   ar
    14     7     6   ar
    15     8    39   ar
    16    40    43    1
    17     3    22    1
    18     6    10    1
    19     6     5   ar
    20    13    12   ar
    21    11    10    1
    22    11    12    1
    23    39    43    1
    24    39     5   ar
    25    22    23   ar
    26    22    41   ar
    27    26    23    1
    28    12    14   ar
    29    43    41    1
    30    43    42    1
    31     5     1    2
    32    23    24   ar
    33    41    25   ar
    34     1    32    1
    35    24    25   ar
    36    24    27    1
    37    25     4    1
    38    42    32    2
    39    42    29    1
    40    32    31    1
    41    27    28    2
    42     4    29    2
    43    29    30    1
    44    31    30    2
    45    31    34    1
    46    30    33    1
    47    35    34    1
    48    35    36    1
    49    37    36   ar
    50    36    38   ar
