@<TRIPOS>MOLECULE
2y6c_TQI_A_1.pdb
 29 31 0 0 0
SMALL
GASTEIGER

@<TRIPOS>ATOM
      1  N         -7.4670  -16.5450   -7.9980 N.3   1269  TQI1269    -0.0674
      2  CA        -7.6760  -17.5620   -9.0380 C.3   1269  TQI1269     0.2045
      3  C         -8.4250  -18.6510   -8.3240 C.2   1269  TQI1269     0.3825
      4  O         -8.3470  -18.9350   -7.1370 O.co2 1269  TQI1269    -0.2440
      5  CB        -6.3060  -18.0680   -9.4120 C.3   1269  TQI1269     0.0589
      6  CG        -6.1650  -19.4730   -9.0250 C.2   1269  TQI1269     0.0001
      7  CD1       -5.9190  -19.9620   -7.7590 C.2   1269  TQI1269     0.0942
      8  CD2       -6.2660  -20.5800   -9.9060 C.2   1269  TQI1269     0.0115
      9  NE1       -5.8690  -21.3190   -7.8610 N.2   1269  TQI1269    -0.2482
     10  CE2       -6.0750  -21.7220   -9.1530 C.2   1269  TQI1269     0.0631
     11  CE3       -6.5020  -20.6740  -11.2640 C.2   1269  TQI1269     0.0006
     12  CZ2       -6.1010  -22.9950   -9.6680 C.3   1269  TQI1269     0.0717
     13  CZ3       -6.5320  -21.9420  -11.7910 C.2   1269  TQI1269    -0.0042
     14  CH2       -6.3390  -23.0620  -11.0210 C.2   1269  TQI1269    -0.0198
     15  OXT       -9.2470  -19.2920   -9.1710 O.co2 1269  TQI1269    -0.2440
     16  S1        -8.5570  -15.2350   -8.0160 S.O2  1269  TQI1269     0.0773
     17  C2       -11.4020  -16.3180   -5.4110 C.ar  1269  TQI1269     0.0833
     18  C3       -11.5360  -16.2510   -3.9310 C.3   1269  TQI1269     0.4194
     19  C7       -10.0640  -15.8720   -7.3100 C.ar  1269  TQI1269     0.1236
     20  C8       -10.2360  -15.8320   -5.9510 C.ar  1269  TQI1269     0.0247
     21  O14       -8.9010  -14.8840   -9.3830 O.2   1269  TQI1269    -0.1516
     22  O15       -8.0470  -14.2100   -7.1340 O.2   1269  TQI1269    -0.1516
     23  C16      -12.3870  -16.8310   -6.2340 C.ar  1269  TQI1269     0.0616
     24  C19      -11.0340  -16.3800   -8.1400 C.ar  1269  TQI1269     0.0208
     25  F20      -10.4960  -15.5990   -3.3520 F     1269  TQI1269    -0.1658
     26  F21      -11.5330  -17.4750   -3.3460 F     1269  TQI1269    -0.1658
     27  F22      -12.6620  -15.5950   -3.5330 F     1269  TQI1269    -0.1658
     28  C23      -12.2040  -16.8600   -7.5980 C.ar  1269  TQI1269     0.0127
     29 CL        -13.8760  -17.4530   -5.5980 Cl    1269  TQI1269    -0.0823
@<TRIPOS>BOND
     1    13    11    1
     2    13    14    2
     3    11     8    2
     4    14    12    1
     5     8    10    1
     6     8     6    1
     7    12    10    1
     8     5     2    1
     9     5     6    1
    10    21    16    2
    11    15     3   ar
    12    10     9    2
    13     2     3    1
    14     2     1    1
    15     6     7    2
    16     3     4   ar
    17    24    28   ar
    18    24    19   ar
    19    16     1    1
    20    16    19    1
    21    16    22    2
    22     9     7    1
    23    28    23   ar
    24    19    20   ar
    25    23    29    1
    26    23    17   ar
    27    20    17   ar
    28    17    18    1
    29    18    27    1
    30    18    25    1
    31    18    26    1
