@<TRIPOS>MOLECULE
2y6d_TQJ_A_1.pdb
 31 33 0 0 0
SMALL
GASTEIGER

@<TRIPOS>ATOM
      1  N1       -16.3490   11.4020    3.3780 N.3   1271  TQJ1271    -0.1559
      2  S2       -15.1580   10.2200    3.0470 S.O2  1271  TQJ1271     0.0456
      3  C3       -16.0830   12.6650    2.6540 C.3   1271  TQJ1271     0.1169
      4  C4       -16.5510   11.5680    4.8350 C.3   1271  TQJ1271     0.1169
      5  C5       -15.8270    9.4470    1.5950 C.3   1271  TQJ1271     0.1892
      6  O6       -13.9400   10.9070    2.6590 O.2   1271  TQJ1271    -0.1572
      7  O7       -15.1610    9.2450    4.1210 O.2   1271  TQJ1271    -0.1572
      8  C8       -17.0530   13.7470    3.0530 C.3   1271  TQJ1271     0.1113
      9  C9       -17.4870   12.7060    5.1480 C.3   1271  TQJ1271     0.1113
     10  C10      -16.8490    8.3960    1.9620 C.3   1271  TQJ1271     0.1047
     11  N11      -16.9440   13.8580    4.4820 N.pl3 1271  TQJ1271    -0.2903
     12  C12      -17.1520    7.5540    0.7420 C.3   1271  TQJ1271     0.0233
     13  N13      -18.0380    9.0550    2.4290 N.am  1271  TQJ1271    -0.2795
     14  C14      -17.5560   15.0270    4.9380 C.ar  1271  TQJ1271     0.1318
     15  C15      -17.7280    6.2100    1.1270 C.3   1271  TQJ1271     0.0176
     16  C16      -18.7830    8.5270    3.4470 C.2   1271  TQJ1271     0.1130
     17  O17      -18.8670    9.3900    1.3410 O.3   1271  TQJ1271    -0.4195
     18  C18      -18.1100   15.8730    4.0040 C.ar  1271  TQJ1271     0.0348
     19  N19      -17.5690   15.2750    6.2500 N.ar  1271  TQJ1271    -0.2287
     20  C20      -18.3340    5.5570   -0.0930 C.3   1271  TQJ1271     0.0990
     21  O21      -19.7410    9.0540    3.9920 O.2   1271  TQJ1271    -0.5358
     22  C22      -18.7160   17.0370    4.4130 C.ar  1271  TQJ1271     0.0111
     23  C23      -18.1600   16.4090    6.6260 C.ar  1271  TQJ1271     0.1069
     24  C24      -18.8260    4.1890    0.2350 C.1   1271  TQJ1271     0.0074
     25  C25      -18.7360   17.3030    5.7590 C.ar  1271  TQJ1271     0.0538
     26  N26      -20.1350    4.0690    0.4750 N.2   1271  TQJ1271    -0.2188
     27  N27      -17.9120    3.2150    0.2540 N.2   1271  TQJ1271    -0.1971
     28 BR28      -19.5440   18.8790    6.4210 Br    1271  TQJ1271    -0.0474
     29  C29      -20.5470    2.8330    0.7640 C.3   1271  TQJ1271     0.1637
     30  C30      -18.3850    2.0030    0.5470 C.2   1271  TQJ1271     0.1066
     31  C31      -19.7070    1.7500    0.8150 C.2   1271  TQJ1271     0.0222
@<TRIPOS>BOND
     1    20    24    1
     2    20    15    1
     3    24    27    2
     4    24    26    2
     5    27    30    1
     6    26    29    1
     7    30    31    2
     8    12    15    1
     9    12    10    1
    10    29    31    1
    11    17    13    1
    12     5    10    1
    13     5     2    1
    14    10    13    1
    15    13    16   am
    16     3     8    1
    17     3     1    1
    18     6     2    2
    19     2     1    1
    20     2     7    2
    21     8    11    1
    22     1     4    1
    23    16    21    2
    24    18    22   ar
    25    18    14   ar
    26    22    25   ar
    27    11    14    1
    28    11     9    1
    29     4     9    1
    30    14    19   ar
    31    25    28    1
    32    25    23   ar
    33    19    23   ar
