@<TRIPOS>MOLECULE
2y6f_M9F_A_1.pdb
 25 24 0 0 0
SMALL
GASTEIGER

@<TRIPOS>ATOM
      1  CAU       12.2140   40.7150    5.7970 C.2   1332  M9F1332     0.2418
      2  OAV       11.9310   40.9960    6.9390 O.2   1332  M9F1332    -0.2733
      3  O         17.7890   36.9840    4.4630 O.co2 1332  M9F1332    -0.2441
      4  CAT       13.6720   40.4410    5.3470 C.3   1332  M9F1332     0.0869
      5  C         17.6210   37.2410    5.6670 C.2   1332  M9F1332     0.3819
      6  CA        16.1510   37.4890    6.1520 C.3   1332  M9F1332     0.1943
      7  CB        15.6110   38.7710    5.4620 C.3   1332  M9F1332     0.0311
      8  CAS       14.1230   39.1070    5.9950 C.3   1332  M9F1332     0.0117
      9  N         16.1760   37.5470    7.6800 N.3   1332  M9F1332    -0.1208
     10  OXT       18.5560   37.3380    6.5370 O.co2 1332  M9F1332    -0.2441
     11  NAC       11.2750   40.6420    4.8650 N.am  1332  M9F1332    -0.1968
     12  CAD        9.8540   40.8790    5.1950 C.3   1332  M9F1332     0.1843
     13  CAG        9.0790   39.5700    4.9730 C.2   1332  M9F1332     0.2626
     14  OAH        9.5810   38.4470    4.7140 O.2   1332  M9F1332    -0.2714
     15  CAE        9.4380   41.8610    4.0210 C.3   1332  M9F1332     0.0997
     16  SAF        9.7560   41.2200    2.2770 S.3   1332  M9F1332    -0.0797
     17  CAN        4.6040   40.2220    1.7270 C.3   1332  M9F1332     0.0692
     18  SAM        6.2310   40.6230    2.4330 S.3   1332  M9F1332    -0.1379
     19  CAK        6.4800   38.8560    3.0570 C.3   1332  M9F1332     0.0787
     20  CAO        6.6160   37.6230    2.1150 C.3   1332  M9F1332     0.0140
     21  CAJ        6.7820   38.8640    4.5070 C.3   1332  M9F1332     0.2076
     22  CAP        5.4970   38.6680    5.1850 C.2   1332  M9F1332     0.3851
     23  OAR        4.6200   37.8460    4.6880 O.co2 1332  M9F1332    -0.2437
     24  OAQ        5.2700   39.5460    6.0570 O.co2 1332  M9F1332    -0.2437
     25  NAI        7.8000   39.7550    5.0450 N.am  1332  M9F1332    -0.1932
@<TRIPOS>BOND
     1    17    18    1
     2    20    19    1
     3    16    15    1
     4    18    19    1
     5    19    21    1
     6    15    12    1
     7     3     5   ar
     8    21    25    1
     9    21    22    1
    10    23    22   ar
    11    14    13    2
    12    11    12    1
    13    11     1   am
    14    13    25   am
    15    13    12    1
    16    22    24   ar
    17     4     1    1
    18     4     8    1
    19     7     8    1
    20     7     6    1
    21     5     6    1
    22     5    10   ar
    23     1     2    2
    24     6     9    1
