@<TRIPOS>MOLECULE
2y6g_BGC_A_1.pdb
 12 12 0 0 0
SMALL
GASTEIGER

@<TRIPOS>ATOM
      1  C2         8.5800   12.4100  -15.3160 C.3   1171  BGC1171     0.2434
      2  C3         8.3500   11.5640  -14.0800 C.3   1171  BGC1171     0.2199
      3  C4         7.5950   10.2660  -14.3030 C.3   1171  BGC1171     0.2144
      4  C5         8.3670    9.4860  -15.3950 C.3   1171  BGC1171     0.1836
      5  C6         7.6090    8.2080  -15.7350 C.3   1171  BGC1171     0.2142
      6  C1         9.2640   11.5050  -16.3450 C.3   1171  BGC1171     0.3024
      7  O1         9.4480   12.2400  -17.5660 O.3   1171  BGC1171    -0.1869
      8  O2         9.4270   13.5380  -14.9980 O.3   1171  BGC1171    -0.2148
      9  O3         7.5720   12.3970  -13.2150 O.3   1171  BGC1171    -0.2174
     10  O4         7.5850    9.5590  -13.0780 O.3   1171  BGC1171    -0.2176
     11  O5         8.3840   10.3770  -16.5100 O.3   1171  BGC1171    -0.3236
     12  O6         7.9740    7.6120  -16.9450 O.3   1171  BGC1171    -0.2176
@<TRIPOS>BOND
     1     7     6    1
     2    12     5    1
     3    11     6    1
     4    11     4    1
     5     6     1    1
     6     5     4    1
     7     4     3    1
     8     1     8    1
     9     1     2    1
    10     3     2    1
    11     3    10    1
    12     2     9    1
