@<TRIPOS>MOLECULE
2y6i_III_B_1.pdb
 25 25 0 0 0
SMALL
GASTEIGER

@<TRIPOS>ATOM
      1  P         27.9020   -3.0090   15.5440 P.3     1  IPI1        0.3262
      2  O1        28.7570   -2.7880   16.7370 O.3     1  IPI1       -0.1503
      3  O2        28.6740   -4.0200   14.5590 O.2     1  IPI1       -0.2686
      4  C5        27.6520   -1.4370   14.6520 C.3     1  IPI1        0.1062
      5  C4        28.9460   -0.6280   14.5910 C.3     1  IPI1        0.0117
      6  C2        29.7300   -0.9050   13.3100 C.3     1  IPI1        0.0006
      7  C3        31.0160   -1.6790   13.5950 C.3     1  IPI1        0.0000
      8  C1        30.0370    0.3910   12.5690 C.3     1  IPI1        0.0000
      9  N         26.3570   -3.6990   16.0310 N.3     2  GLY2       -0.1346
     10  CA        25.2680   -2.8070   16.3880 C.3     2  GLY2        0.1830
     11  C         24.0300   -3.5160   16.8940 C.2     2  GLY2        0.2442
     12  O         23.6280   -3.3220   18.0270 O.2     2  GLY2       -0.2733
     13  N         23.3750   -4.3170   16.0600 N.am    3  PRO3       -0.2718
     14  CA        22.2850   -3.8120   15.2320 C.3     3  PRO3        0.1535
     15  C         21.6280   -2.5780   15.8100 C.2     3  PRO3        0.2599
     16  O         22.1730   -1.4900   15.6430 O.2     3  PRO3       -0.2715
     17  CB        21.3450   -5.0120   15.1510 C.3     3  PRO3        0.0310
     18  CG        22.1520   -6.2340   15.5600 C.3     3  PRO3        0.0237
     19  CD        23.5670   -5.7470   15.8510 C.3     3  PRO3        0.0939
     20  N         20.4640   -2.7410   16.4560 N.am    4  ALA4       -0.1942
     21  CA        19.9960   -2.0600   17.6590 C.3     4  ALA4        0.1979
     22  C         18.4960   -2.0850   17.6880 C.2     4  ALA4        0.3842
     23  O         17.8770   -1.5240   18.5750 O.co2   4  ALA4       -0.2437
     24  CB        20.4430   -0.6010   17.7570 C.3     4  ALA4        0.0356
     25  OXT       17.8170   -2.7180   16.7360 O.co2   4  ALA4       -0.2437
@<TRIPOS>BOND
     1     8     6    1
     2     6     7    1
     3     6     5    1
     4     3     1    2
     5     5     4    1
     6     4     1    1
     7    17    14    1
     8    17    18    1
     9    14    15    1
    10    14    13    1
    11     1     9    1
    12     1     2    1
    13    18    19    1
    14    16    15    2
    15    15    20   am
    16    19    13    1
    17     9    10    1
    18    13    11   am
    19    10    11    1
    20    20    21    1
    21    25    22   ar
    22    11    12    2
    23    21    22    1
    24    21    24    1
    25    22    23   ar
