@<TRIPOS>MOLECULE
2y6k_XYP_A_1.pdb
 10 10 0 0 0
SMALL
GASTEIGER

@<TRIPOS>ATOM
      1  O4A       18.5830    5.8950  -21.6270 O.3   1169  XYP1169    -0.1869
      2  C1B       17.2140    5.6710  -21.3820 C.3   1169  XYP1169     0.3024
      3  C2B       16.9610    6.2670  -19.9970 C.3   1169  XYP1169     0.2434
      4  C3B       15.4940    6.3970  -19.8030 C.3   1169  XYP1169     0.2199
      5  C4B       14.8040    7.1670  -20.9100 C.3   1169  XYP1169     0.2143
      6  C5B       15.3020    6.5940  -22.2390 C.3   1169  XYP1169     0.1804
      7  O2B       17.4310    5.3290  -19.0500 O.3   1169  XYP1169    -0.2148
      8  O3B       15.3280    7.0810  -18.6280 O.3   1169  XYP1169    -0.2174
      9  O4B       13.4210    6.9510  -20.9080 O.3   1169  XYP1169    -0.2176
     10  O5B       16.7130    6.5260  -22.2670 O.3   1169  XYP1169    -0.3237
@<TRIPOS>BOND
     1    10     6    1
     2    10     2    1
     3     6     5    1
     4     1     2    1
     5     2     3    1
     6     5     9    1
     7     5     4    1
     8     3     4    1
     9     3     7    1
    10     4     8    1
