@<TRIPOS>MOLECULE
2y6l_XYP_A_1.pdb
 10 10 0 0 0
SMALL
GASTEIGER

@<TRIPOS>ATOM
      1  O4A       18.3200    6.1870  -21.4860 O.3   1170  XYP1170    -0.1869
      2  C1B       16.9170    6.1690  -21.1690 C.3   1170  XYP1170     0.3024
      3  C2B       16.7390    6.7170  -19.7730 C.3   1170  XYP1170     0.2434
      4  C3B       15.2570    6.6650  -19.5360 C.3   1170  XYP1170     0.2199
      5  C4B       14.5380    7.4900  -20.6070 C.3   1170  XYP1170     0.2143
      6  C5B       14.9780    7.0350  -22.0130 C.3   1170  XYP1170     0.1804
      7  O2B       17.3010    5.7380  -18.9100 O.3   1170  XYP1170    -0.2148
      8  O3B       14.9370    7.2140  -18.2960 O.3   1170  XYP1170    -0.2174
      9  O4B       13.1180    7.2710  -20.4940 O.3   1170  XYP1170    -0.2176
     10  O5B       16.3690    6.9120  -22.1400 O.3   1170  XYP1170    -0.3237
@<TRIPOS>BOND
     1    10     6    1
     2    10     2    1
     3     6     5    1
     4     1     2    1
     5     2     3    1
     6     5     9    1
     7     5     4    1
     8     3     4    1
     9     3     7    1
    10     4     8    1
