@<TRIPOS>MOLECULE
2y6o_1N1_A_1.pdb
 33 36 0 0 0
SMALL
GASTEIGER

@<TRIPOS>ATOM
      1  C1        28.5980   59.6340   29.1920 C.ar  1892  1N11892     0.1120
      2  C2        27.9200   58.4180   29.4700 C.ar  1892  1N11892     0.1065
      3  C3        28.6530   57.1530   29.8850 C.2   1892  1N11892     0.2766
      4  N6        18.2390   63.2470   27.4410 N.3   1892  1N11892    -0.2631
      5  C7        32.2170   53.9380   31.5060 C.ar  1892  1N11892     0.0006
      6  C8        31.7810   54.8640   32.4390 C.ar  1892  1N11892    -0.0029
      7  C9        31.0380   56.0050   32.0290 C.ar  1892  1N11892    -0.0057
      8  C10       30.5580   57.0020   33.0500 C.3   1892  1N11892     0.0324
      9  C11       23.8980   60.5310   28.6150 C.2   1892  1N11892     0.2025
     10  C12       22.8620   61.4570   28.3310 C.3   1892  1N11892     0.1532
     11  C13       21.6020   60.9780   28.4370 C.2   1892  1N11892     0.1809
     12  C14       22.3800   58.8440   29.0790 C.1   1892  1N11892     0.1168
     13  C15       22.1160   57.4350   29.4840 C.3   1892  1N11892     0.1429
     14  C16       20.6520   63.1770   27.7640 C.3   1892  1N11892     0.1102
     15  C19       19.2720   61.5060   28.7710 C.3   1892  1N11892     0.1102
     16  C20       17.4940   64.3100   28.1770 C.3   1892  1N11892     0.1455
     17  C21       18.2110   65.0140   29.2570 C.2   1892  1N11892     0.2249
     18  N         25.2550   60.9790   28.5130 N.pl3 1892  1N11892    -0.1613
     19  C         26.3400   60.0980   28.8670 C.ar  1892  1N11892     0.1855
     20  N1        27.6330   60.6390   28.8200 N.ar  1892  1N11892    -0.2208
     21  S         26.3270   58.5240   29.3040 S.2   1892  1N11892    -0.0450
     22  N2        30.0310   57.2950   30.2710 N.am  1892  1N11892    -0.1744
     23  C4        30.7760   56.1520   30.6800 C.ar  1892  1N11892     0.0802
     24  C5        31.2090   55.2350   29.7440 C.ar  1892  1N11892     0.0726
     25  C6        31.9490   54.0960   30.1630 C.ar  1892  1N11892     0.0127
     26 CL         30.8580   55.4570   28.1030 Cl    1892  1N11892    -0.0809
     27  O         28.0650   56.0890   29.8730 O.2   1892  1N11892    -0.2674
     28  N3        21.3630   59.6580   28.8170 N.2   1892  1N11892    -0.3326
     29  N4        23.6380   59.2600   28.9740 N.2   1892  1N11892    -0.3308
     30  N5        20.5290   61.8190   28.1720 N.pl3 1892  1N11892    -0.2831
     31  C17       19.5220   63.5800   26.8800 C.3   1892  1N11892     0.0942
     32  C18       18.1430   61.8760   27.8750 C.3   1892  1N11892     0.0942
     33  O1        17.7250   65.0940   30.3650 O.2   1892  1N11892    -0.2868
@<TRIPOS>BOND
     1    31     4    1
     2    31    14    1
     3     4    32    1
     4     4    16    1
     5    14    30    1
     6    32    15    1
     7    26    24    1
     8    30    11    1
     9    30    15    1
    10    16    17    1
    11    10    11    1
    12    10     9    1
    13    11    28    2
    14    18     9    1
    15    18    19    1
    16     9    29    2
    17    28    12    2
    18    20    19   ar
    19    20     1   ar
    20    19    21   ar
    21    29    12    2
    22    12    13    1
    23     1     2   ar
    24    17    33    2
    25    21     2   ar
    26     2     3    1
    27    24    25   ar
    28    24    23   ar
    29    27     3    2
    30     3    22   am
    31    25     5   ar
    32    22    23    1
    33    23     7   ar
    34     5     6   ar
    35     7     6   ar
    36     7     8    1
