@<TRIPOS>MOLECULE
2y6p_CTP_A_1.pdb
 29 30 0 0 0
SMALL
GASTEIGER

@<TRIPOS>ATOM
      1  N1        65.5340   61.5110    5.9510 N.am  1233  CTP1233    -0.1778
      2  C2        66.5930   61.1470    5.1150 C.1   1233  CTP1233     0.2756
      3  N3        66.3470   60.8850    3.7850 N.2   1233  CTP1233    -0.3024
      4  C4        65.0760   61.0110    3.2620 C.2   1233  CTP1233     0.2346
      5  C5        64.0220   61.3960    4.0860 C.2   1233  CTP1233     0.0687
      6  C6        64.2640   61.6260    5.4300 C.2   1233  CTP1233     0.0836
      7  O2        67.7480   61.0300    5.5280 O.2   1233  CTP1233    -0.1925
      8  N4        64.8660   60.7580    1.9720 N.pl3 1233  CTP1233    -0.0921
      9  C1'       65.7790   61.8540    7.3670 C.3   1233  CTP1233     0.2400
     10  C2'       65.4950   63.3260    7.6600 C.3   1233  CTP1233     0.2319
     11  O2'       66.6030   64.1920    7.4570 O.3   1233  CTP1233    -0.2157
     12  C3'       65.0120   63.3040    9.1010 C.3   1233  CTP1233     0.2158
     13  C4'       64.5050   61.8730    9.3230 C.3   1233  CTP1233     0.1799
     14  O4'       64.9080   61.1060    8.2020 O.3   1233  CTP1233    -0.3320
     15  O3'       66.0640   63.6130    9.9950 O.3   1233  CTP1233    -0.2175
     16  C5'       62.9720   61.8010    9.4520 C.3   1233  CTP1233     0.1813
     17  O5'       62.3250   62.3100    8.3050 O.3   1233  CTP1233    -0.3112
     18  PA        61.4600   63.6690    8.2300 P.3   1233  CTP1233     0.2189
     19  O1A       61.2030   64.2040    9.6170 O.3   1233  CTP1233    -0.4371
     20  O2A       60.1650   63.5150    7.4580 O.2   1233  CTP1233    -0.5170
     21  O3A       62.3830   64.7780    7.4900 O.3   1233  CTP1233    -0.2700
     22  PB        62.3290   65.2890    5.9660 P.3   1233  CTP1233     0.2277
     23  O1B       61.9080   64.1880    5.0110 O.2   1233  CTP1233    -0.5168
     24  O2B       63.6930   65.8370    5.5720 O.3   1233  CTP1233    -0.4368
     25  O3B       61.2960   66.4930    5.9950 O.3   1233  CTP1233    -0.2258
     26  PG        60.0240   66.5560    5.0600 P.3   1233  CTP1233     0.5373
     27  O1G       59.2300   65.2920    5.3240 O.3   1233  CTP1233    -0.1143
     28  O2G       60.3500   66.6180    3.5850 O.2   1233  CTP1233    -0.2221
     29  O3G       59.2980   67.8300    5.4270 O.3   1233  CTP1233    -0.1143
@<TRIPOS>BOND
     1     8     4    1
     2     4     3    2
     3     4     5    1
     4    28    26    2
     5     3     2    2
     6     5     6    2
     7    23    22    2
     8    26    27    1
     9    26    29    1
    10    26    25    1
    11     2     7    2
    12     2     1   am
    13     6     1    1
    14    24    22    1
    15     1     9    1
    16    22    25    1
    17    22    21    1
    18     9    10    1
    19     9    14    1
    20    11    10    1
    21    20    18    2
    22    21    18    1
    23    10    12    1
    24    14    13    1
    25    18    17    1
    26    18    19    1
    27    17    16    1
    28    12    13    1
    29    12    15    1
    30    13    16    1
