@<TRIPOS>MOLECULE
2y6q_I7T_A_1.pdb
 31 34 0 0 0
SMALL
GASTEIGER

@<TRIPOS>ATOM
      1  O12       -1.0270    6.7350   21.7360 O.2   1385  I7T1385    -0.2885
      2  C12       -0.1610    7.6510   21.3340 C.2   1385  I7T1385     0.2066
      3  C1B       -0.0970    8.7940   22.0240 C.2   1385  I7T1385     0.0543
      4  C11       -0.9250    9.0590   23.2310 C.2   1385  I7T1385     0.1972
      5  O11       -1.7700    8.2320   23.6430 O.2   1385  I7T1385    -0.2867
      6  C1A       -0.7650   10.3300   24.0280 C.ar  1385  I7T1385     0.0741
      7  C10       -1.7450   10.7500   24.9520 C.ar  1385  I7T1385     0.1984
      8  O10       -2.8150    9.9810   25.1410 O.3   1385  I7T1385    -0.2865
      9  C9        -1.6250   11.9620   25.6560 C.ar  1385  I7T1385     0.0425
     10  C8        -0.5010   12.7440   25.4250 C.ar  1385  I7T1385     0.0087
     11  C7         0.4850   12.3160   24.5350 C.ar  1385  I7T1385     0.0264
     12  C61        0.3440   11.1180   23.7950 C.ar  1385  I7T1385    -0.0103
     13  C6         1.3900   10.6270   22.7740 C.3   1385  I7T1385     0.0315
     14  C5         2.0000    9.2080   20.7580 C.3   1385  I7T1385     0.0100
     15  C1C        0.6950    7.2870   20.1120 C.3   1385  I7T1385     0.2367
     16  C1         1.7410    6.2440   20.5110 C.2   1385  I7T1385     0.2148
     17  O1         1.7800    5.7210   21.6180 O.2   1385  I7T1385    -0.2880
     18  O1C       -0.1900    6.6670   19.1760 O.3   1385  I7T1385    -0.2098
     19  C41        1.4510    8.4820   19.5300 C.3   1385  I7T1385     0.0649
     20  C4         2.5950    8.1320   18.5330 C.3   1385  I7T1385     0.1235
     21  N4         2.4790    8.5850   17.1030 N.3   1385  I7T1385    -0.2651
     22  C42        2.8120   10.0020   16.9780 C.3   1385  I7T1385     0.0900
     23  C43        1.1350    8.3610   16.5410 C.3   1385  I7T1385     0.0900
     24  C3         3.0590    6.6900   18.5580 C.2   1385  I7T1385     0.1948
     25  O3         3.9350    6.3140   17.6150 O.2   1385  I7T1385    -0.2897
     26  C2         2.7030    5.8200   19.5270 C.2   1385  I7T1385     0.1300
     27  C21        3.2310    4.4250   19.6470 C.2   1385  I7T1385     0.2899
     28  C5A        0.8610    9.8280   21.5700 C.3   1385  I7T1385     0.0329
     29  O21        3.8580    3.8550   18.7360 O.2   1385  I7T1385    -0.2665
     30  I7         1.9510   13.4920   24.2160 I     1385  I7T1385    -0.0428
     31  N21        3.0640    3.7790   20.7970 N.am  1385  I7T1385    -0.0835
@<TRIPOS>BOND
     1    23    21    1
     2    22    21    1
     3    21    20    1
     4    25    24    1
     5    20    24    1
     6    20    19    1
     7    24    26    2
     8    29    27    2
     9    18    15    1
    10    26    27    1
    11    26    16    1
    12    19    15    1
    13    19    14    1
    14    27    31   am
    15    15    16    1
    16    15     2    1
    17    16    17    2
    18    14    28    1
    19     2     1    1
    20     2     3    2
    21    28     3    1
    22    28    13    1
    23     3     4    1
    24    13    12    1
    25     4     5    2
    26     4     6    1
    27    12     6   ar
    28    12    11   ar
    29     6     7   ar
    30    30    11    1
    31    11    10   ar
    32     7     8    1
    33     7     9   ar
    34    10     9   ar
