@<TRIPOS>MOLECULE
2y6r_CTC_A_1.pdb
 33 36 0 0 0
SMALL
GASTEIGER

@<TRIPOS>ATOM
      1  C1         0.7810    6.3620   20.5840 C.2   1385  CTC1385     0.2105
      2  O1         0.6980    5.8020   21.7060 O.2   1385  CTC1385    -0.2884
      3  C2         1.8950    6.0300   19.7250 C.2   1385  CTC1385     0.1297
      4  C2'        2.3890    4.6280   19.8060 C.2   1385  CTC1385     0.2899
      5  O2'        3.4670    4.3060   19.3210 O.2   1385  CTC1385    -0.2665
      6  N2'        1.6740    3.7080   20.4810 N.am  1385  CTC1385    -0.0835
      7  C3         2.3710    7.0510   18.9200 C.2   1385  CTC1385     0.1948
      8  O3         3.3910    6.8740   18.0760 O.2   1385  CTC1385    -0.2897
      9  C4         1.7930    8.4810   18.9800 C.3   1385  CTC1385     0.1232
     10  N4         1.7690    9.1560   17.6590 N.3   1385  CTC1385    -0.2651
     11  C4'        1.2470    8.3250   16.5460 C.3   1385  CTC1385     0.0900
     12  C4D        1.0510   10.4570   17.7350 C.3   1385  CTC1385     0.0900
     13  C4A        0.4800    8.6760   19.7840 C.3   1385  CTC1385     0.0606
     14  C5         0.7650    9.3880   21.1120 C.3   1385  CTC1385     0.0118
     15  C5A       -0.4980    9.7430   21.9200 C.3   1385  CTC1385     0.0560
     16  C6        -0.2390   10.2310   23.3550 C.3   1385  CTC1385     0.1498
     17  O6         0.2690    9.1560   24.1800 O.3   1385  CTC1385    -0.2208
     18  C6'        0.8230   11.3310   23.3650 C.3   1385  CTC1385     0.0379
     19  C6A       -1.5620   10.6230   23.9900 C.ar  1385  CTC1385     0.0221
     20  C7        -1.7460   11.7720   24.7850 C.ar  1385  CTC1385     0.0563
     21 CL7        -0.4190   12.9000   25.1130 Cl    1385  CTC1385    -0.0825
     22  C8        -2.9810   12.0920   25.3570 C.ar  1385  CTC1385     0.0144
     23  C9        -4.0660   11.2540   25.1690 C.ar  1385  CTC1385     0.0430
     24  C10       -3.9090   10.1040   24.3880 C.ar  1385  CTC1385     0.1985
     25  O10       -4.9720    9.3190   24.2220 O.3   1385  CTC1385    -0.2865
     26  C6B       -2.6690    9.7780   23.7980 C.ar  1385  CTC1385     0.0764
     27  C11       -2.5130    8.5810   22.9670 C.2   1385  CTC1385     0.1931
     28  O11       -3.3740    7.6090   23.0620 O.2   1385  CTC1385    -0.2871
     29  C5B       -1.4770    8.5590   21.9880 C.2   1385  CTC1385     0.0298
     30  C12       -1.3660    7.4600   21.0920 C.3   1385  CTC1385     0.2083
     31  O12       -2.1900    6.4240   21.1430 O.3   1385  CTC1385    -0.2154
     32  C4B       -0.2500    7.3730   20.0510 C.3   1385  CTC1385     0.2142
     33  O4B       -0.8410    6.9600   18.8020 O.3   1385  CTC1385    -0.2147
@<TRIPOS>BOND
     1    11    10    1
     2    10    12    1
     3    10     9    1
     4     8     7    1
     5    33    32    1
     6     7     9    1
     7     7     3    2
     8     9    13    1
     9     5     4    2
    10     3     4    1
    11     3     1    1
    12    13    32    1
    13    13    14    1
    14     4     6   am
    15    32     1    1
    16    32    30    1
    17     1     2    2
    18    30    31    1
    19    30    29    1
    20    14    15    1
    21    15    29    1
    22    15    16    1
    23    29    27    2
    24    27    28    1
    25    27    26    1
    26    16    18    1
    27    16    19    1
    28    16    17    1
    29    26    19   ar
    30    26    24   ar
    31    19    20   ar
    32    25    24    1
    33    24    23   ar
    34    20    21    1
    35    20    22   ar
    36    23    22   ar
