@<TRIPOS>MOLECULE
2y6z_TPS_A_1.pdb
 22 23 0 0 0
SMALL
GASTEIGER

@<TRIPOS>ATOM
      1  CM2       52.2770   -6.4480   -1.2480 C.3   1266  TPS1266     0.1291
      2  N3        58.1770   -9.0220   -0.6980 N.3   1266  TPS1266    -0.2601
      3  C2        57.5600   -9.2240   -2.0810 C.3   1266  TPS1266     0.1316
      4  S1        58.8170   -9.6750   -3.0900 S.3   1266  TPS1266    -0.1220
      5  CM4       60.0090  -10.5640    0.6390 C.3   1266  TPS1266     0.0183
      6  C6        60.9540  -11.5420   -2.2170 C.3   1266  TPS1266     0.0449
      7  C7        62.5050  -11.4410   -2.0410 C.3   1266  TPS1266     0.1547
      8  O7        63.1560  -11.0130   -0.8610 O.3   1266  TPS1266    -0.2702
      9  N1A       54.7820   -6.1320   -0.7340 N.2   1266  TPS1266    -0.1861
     10  C2A       53.6180   -7.0230   -0.7500 C.1   1266  TPS1266     0.0663
     11  N3A       53.7310   -8.3890   -0.3550 N.2   1266  TPS1266    -0.3368
     12  C4A       54.9380   -8.8650    0.0350 C.2   1266  TPS1266     0.2289
     13  N4A       55.1080  -10.2560    0.4410 N.pl3 1266  TPS1266    -0.0925
     14  C5A       56.1310   -7.9220    0.0460 C.2   1266  TPS1266     0.0616
     15  C6A       56.0310   -6.6180   -0.3320 C.2   1266  TPS1266     0.1112
     16  C7A       57.5040   -8.4660    0.4770 C.3   1266  TPS1266     0.1054
     17  P1        64.7980  -11.1290   -0.9270 P.3   1266  TPS1266     0.5326
     18  O1        65.5250   -9.6480   -0.7980 O.3   1266  TPS1266    -0.1145
     19  O2        65.2900  -12.0160    0.1040 O.3   1266  TPS1266    -0.1145
     20  O3        65.1230  -11.8400   -2.3700 O.2   1266  TPS1266    -0.2224
     21  C5        60.0330  -10.3070   -2.0120 C.3   1266  TPS1266     0.0661
     22  C4        59.5580   -9.8550   -0.6070 C.3   1266  TPS1266     0.0686
@<TRIPOS>BOND
     1     4     3    1
     2     4    21    1
     3    20    17    2
     4     6     7    1
     5     6    21    1
     6     3     2    1
     7     7     8    1
     8    21    22    1
     9     1    10    1
    10    17     8    1
    11    17    18    1
    12    17    19    1
    13    10     9    2
    14    10    11    2
    15     9    15    1
    16     2    22    1
    17     2    16    1
    18    22     5    1
    19    11    12    2
    20    15    14    2
    21    12    14    1
    22    12    13    1
    23    14    16    1
