@<TRIPOS>MOLECULE
2y71_CB6_A_1.pdb
 24 26 0 0 0
SMALL
GASTEIGER

@<TRIPOS>ATOM
      1  CAK        5.6510  -29.0870  -49.4140 C.ar  1144  CB61144     0.0063
      2  CAT        5.9390  -29.5490  -50.6510 C.ar  1144  CB61144     0.0060
      3  CAI        5.1090  -29.9770  -51.6870 C.ar  1144  CB61144    -0.0038
      4  CAH        5.6510  -30.4120  -52.9030 C.ar  1144  CB61144    -0.0218
      5  CAA        4.7770  -30.8840  -54.0840 C.3   1144  CB61144     0.0310
      6  CAR        7.0340  -30.4370  -53.0910 C.ar  1144  CB61144    -0.0037
      7  CAJ        7.8550  -30.0220  -52.0780 C.ar  1144  CB61144     0.0061
      8  CAU        7.3120  -29.5940  -50.8940 C.ar  1144  CB61144     0.0292
      9  SAO        8.0990  -29.0760  -49.5360 S.2   1144  CB61144    -0.0876
     10  CAS        6.7090  -28.7630  -48.6650 C.ar  1144  CB61144     0.0507
     11  CAL        6.7420  -28.2850  -47.3390 C.3   1144  CB61144     0.2380
     12  OAN        8.0960  -27.9670  -46.6890 O.2   1144  CB61144    -0.4720
     13  CAQ        8.2250  -28.3980  -45.4140 C.2   1144  CB61144     0.1480
     14  CAG        7.1110  -28.5960  -44.6010 C.2   1144  CB61144     0.0494
     15  CAX        7.2310  -29.0660  -43.2800 C.3   1144  CB61144     0.2425
     16  CAP        6.0570  -29.9960  -42.9330 C.2   1144  CB61144     0.3957
     17  OAC        6.2270  -31.2030  -42.6100 O.co2 1144  CB61144    -0.2426
     18  OAB        4.9450  -29.4430  -42.9650 O.co2 1144  CB61144    -0.2426
     19  OAF        7.1080  -27.8790  -42.4100 O.3   1144  CB61144    -0.2094
     20  CAM        8.5800  -29.7490  -42.9660 C.3   1144  CB61144     0.0820
     21  CAV        9.7320  -28.8760  -43.4530 C.3   1144  CB61144     0.1929
     22  OAD       10.9570  -29.5260  -43.0940 O.3   1144  CB61144    -0.2198
     23  CAW        9.6340  -28.8020  -44.9640 C.3   1144  CB61144     0.2377
     24  OAE       10.5890  -27.8680  -45.5530 O.3   1144  CB61144    -0.2122
@<TRIPOS>BOND
     1     5     4    1
     2     6     4   ar
     3     6     7   ar
     4     4     3   ar
     5     7     8   ar
     6     3     2   ar
     7     8     2   ar
     8     8     9   ar
     9     2     1   ar
    10     9    10   ar
    11     1    10   ar
    12    10    11    1
    13    11    12    1
    14    12    13    1
    15    24    23    1
    16    13    23    1
    17    13    14    2
    18    23    21    1
    19    14    15    1
    20    21    22    1
    21    21    20    1
    22    15    20    1
    23    15    16    1
    24    15    19    1
    25    18    16   ar
    26    16    17   ar
