@<TRIPOS>MOLECULE
2y76_CB7_A_1.pdb
 33 37 0 0 0
SMALL
GASTEIGER

@<TRIPOS>ATOM
      1  CAO        5.1690   15.2480   28.8970 C.ar  1144  CB71144    -0.0034
      2  CBB        4.6510   14.3430   29.8240 C.ar  1144  CB71144     0.0062
      3  CAK        4.4460   13.0150   29.6800 C.ar  1144  CB71144     0.0075
      4  CAG        3.9260   12.3470   30.7200 C.ar  1144  CB71144     0.0354
      5  SAU        3.6590   13.4770   31.9440 S.2   1144  CB71144    -0.0864
      6  CBD        4.2500   14.8220   31.0880 C.ar  1144  CB71144     0.0295
      7  CAM        4.3840   16.1690   31.4200 C.ar  1144  CB71144     0.0062
      8  CAI        4.9060   17.0580   30.4770 C.ar  1144  CB71144    -0.0034
      9  CAZ        5.3140   16.5970   29.2200 C.ar  1144  CB71144    -0.0179
     10  CAQ        5.8730   17.5650   28.1720 C.3   1144  CB71144     0.0540
     11  CAW        7.1700   18.2480   28.5730 C.2   1144  CB71144     0.0301
     12  CBG        7.1020   19.7270   29.0020 C.3   1144  CB71144     0.2393
     13  CAV        5.8770   20.0850   29.8470 C.2   1144  CB71144     0.3954
     14  OAB        6.0140   20.1240   31.0870 O.co2 1144  CB71144    -0.2426
     15  OAA        4.8470   20.3900   29.2110 O.co2 1144  CB71144    -0.2426
     16  OAE        7.0080   20.4830   27.7810 O.3   1144  CB71144    -0.2097
     17  CAR        8.3610   20.1340   29.7780 C.3   1144  CB71144     0.0817
     18  CBE        9.5740   19.8260   28.9090 C.3   1144  CB71144     0.1928
     19  OAC       10.7390   20.3920   29.5220 O.3   1144  CB71144    -0.2198
     20  CBF        9.7390   18.3030   28.7530 C.3   1144  CB71144     0.2374
     21  OAD       10.6040   17.9590   27.6630 O.3   1144  CB71144    -0.2122
     22  CAX        8.4140   17.6370   28.4280 C.2   1144  CB71144     0.1445
     23  OAS        8.5200   16.3540   28.0440 O.2   1144  CB71144    -0.4728
     24  CAP        8.6700   15.6330   29.3450 C.3   1144  CB71144     0.2316
     25  CAY        8.2970   14.2920   29.5510 C.ar  1144  CB71144     0.0212
     26  CAN        8.4450   13.6590   30.7850 C.ar  1144  CB71144    -0.0002
     27  CBA        8.0720   12.3250   30.9730 C.ar  1144  CB71144     0.0063
     28  CAJ        8.1470   11.5600   32.0870 C.ar  1144  CB71144     0.0075
     29  CAF        7.7090   10.2990   31.9840 C.ar  1144  CB71144     0.0354
     30  SAT        7.1870   10.1180   30.3840 S.2   1144  CB71144    -0.0864
     31  CBC        7.5420   11.6420   29.8820 C.ar  1144  CB71144     0.0295
     32  CAL        7.3840   12.2610   28.6690 C.ar  1144  CB71144     0.0063
     33  CAH        7.7620   13.5800   28.5030 C.ar  1144  CB71144    -0.0002
@<TRIPOS>BOND
     1    21    20    1
     2    16    12    1
     3    23    22    1
     4    23    24    1
     5    10    11    1
     6    10     9    1
     7    22    11    2
     8    22    20    1
     9    33    32   ar
    10    33    25   ar
    11    11    12    1
    12    32    31   ar
    13    20    18    1
    14     1     9   ar
    15     1     2   ar
    16    18    19    1
    17    18    17    1
    18    12    17    1
    19    12    13    1
    20    15    13   ar
    21     9     8   ar
    22    24    25    1
    23    25    26   ar
    24     3     2   ar
    25     3     4   ar
    26     2     6   ar
    27    13    14   ar
    28    31    30   ar
    29    31    27   ar
    30    30    29   ar
    31     8     7   ar
    32     4     5   ar
    33    26    27   ar
    34    27    28   ar
    35     6     7   ar
    36     6     5   ar
    37    29    28   ar
