@<TRIPOS>MOLECULE
2y77_CB8_A_1.pdb
 29 32 0 0 0
SMALL
GASTEIGER

@<TRIPOS>ATOM
      1  CAV        2.9040   13.9280   23.1960 C.2   1144  CB81144     0.1445
      2  CBB        2.6640   13.3050   21.8120 C.3   1144  CB81144     0.2374
      3  OAD        3.7080   13.7540   20.9280 O.3   1144  CB81144    -0.2122
      4  CBA        2.6300   11.7740   21.8920 C.3   1144  CB81144     0.1928
      5  OAC        2.0630   11.2490   20.6830 O.3   1144  CB81144    -0.2198
      6  CAP        1.7360   11.3370   23.0510 C.3   1144  CB81144     0.0817
      7  CBC        2.3530   11.7910   24.3830 C.3   1144  CB81144     0.2394
      8  CAT        1.5660   11.3000   25.5910 C.2   1144  CB81144     0.3954
      9  OAB        2.1970   11.2340   26.6680 O.co2 1144  CB81144    -0.2426
     10  OAA        0.3710   11.0030   25.4260 O.co2 1144  CB81144    -0.2426
     11  OAE        3.8540   10.9960   24.5060 O.3   1144  CB81144    -0.2097
     12  CAU        2.6220   13.3040   24.4060 C.2   1144  CB81144     0.0306
     13  CAM        0.2950   17.0970   24.4200 C.ar  1144  CB81144     0.0063
     14  CAY        0.0350   17.7550   25.5740 C.ar  1144  CB81144     0.0063
     15  CAK       -1.2030   18.0950   26.1210 C.ar  1144  CB81144     0.0005
     16  CAF       -1.2960   18.7790   27.3260 C.ar  1144  CB81144     0.0000
     17  CAG       -0.1410   19.1400   28.0050 C.ar  1144  CB81144     0.0005
     18  CAL        1.1060   18.8130   27.4810 C.ar  1144  CB81144     0.0065
     19  CAZ        1.1960   18.1270   26.2750 C.ar  1144  CB81144     0.0293
     20  SAS        2.5210   17.5950   25.3710 S.2   1144  CB81144    -0.0876
     21  CAX        1.5930   16.9200   24.1430 C.ar  1144  CB81144     0.0507
     22  CAN        2.1300   16.2340   23.0030 C.3   1144  CB81144     0.2380
     23  OAQ        3.3350   15.2340   23.2420 O.2   1144  CB81144    -0.4723
     24  CAO        2.8810   14.0110   25.7480 C.3   1144  CB81144     0.0606
     25  CAW        1.5470   14.4020   26.4020 C.ar  1144  CB81144     0.0115
     26  CAJ        1.3490   14.9570   27.6000 C.ar  1144  CB81144     0.0030
     27  CAH        0.0540   15.2010   27.9020 C.ar  1144  CB81144     0.0072
     28  CAI       -0.8500   14.8530   26.9720 C.ar  1144  CB81144     0.0351
     29  SAR        0.0330   14.2130   25.6840 S.2   1144  CB81144    -0.0905
@<TRIPOS>BOND
     1     5     4    1
     2     3     2    1
     3     2     4    1
     4     2     1    1
     5     4     6    1
     6    22    23    1
     7    22    21    1
     8     6     7    1
     9     1    23    1
    10     1    12    2
    11    21    13   ar
    12    21    20   ar
    13     7    12    1
    14     7    11    1
    15     7     8    1
    16    12    24    1
    17    13    14   ar
    18    20    19   ar
    19    10     8   ar
    20    14    15   ar
    21    14    19   ar
    22     8     9   ar
    23    29    25   ar
    24    29    28   ar
    25    24    25    1
    26    15    16   ar
    27    19    18   ar
    28    25    26   ar
    29    28    27   ar
    30    16    17   ar
    31    18    17   ar
    32    26    27   ar
