@<TRIPOS>MOLECULE
2y79_HEM_A_1.pdb
 43 50 0 0 0
SMALL
GASTEIGER

@<TRIPOS>ATOM
      1  CHA        8.5670   18.7540   23.9220 C.2   500  HEM500      0.0000
      2  CHB        6.8560   20.4140   19.7090 C.2   500  HEM500      0.0000
      3  CHC        3.2920   22.6980   22.0710 C.2   500  HEM500      0.0000
      4  CHD        5.1420   21.3520   26.2900 C.2   500  HEM500      0.0000
      5  C1A        8.3430   18.9260   22.5820 C.ar  500  HEM500      0.0000
      6  C2A        9.0560   18.2340   21.5160 C.ar  500  HEM500      0.0000
      7  C3A        8.6070   18.7020   20.3350 C.ar  500  HEM500      0.0000
      8  C4A        7.5730   19.6860   20.6260 C.ar  500  HEM500      0.0000
      9  CMA        9.0010   18.2900   18.9010 C.3   500  HEM500      0.0000
     10  CAA       10.0940   17.1260   21.7810 C.3   500  HEM500      0.0000
     11  CBA       11.5170   17.5760   21.6050 C.3   500  HEM500      0.0000
     12  CGA       12.3520   16.3390   21.9280 C.2   500  HEM500      0.0000
     13  O1A       11.8110   15.1960   22.0580 O.co2 500  HEM500      0.0000
     14  O2A       13.5730   16.5290   22.0680 O.co2 500  HEM500      0.0000
     15  C1B        5.7600   21.1970   19.9830 C.2   500  HEM500      0.0000
     16  C2B        5.0130   21.9730   19.0110 C.2   500  HEM500      0.0000
     17  C3B        4.0080   22.5820   19.6460 C.2   500  HEM500      0.0000
     18  C4B        4.1150   22.2590   21.0680 C.2   500  HEM500      0.0000
     19  CMB        5.3630   21.9880   17.5200 C.3   500  HEM500      0.0000
     20  CAB        2.9840   23.4980   18.9720 C.2   500  HEM500      0.0000
     21  CBB        1.6890   23.4260   19.2860 C.2   500  HEM500      0.0000
     22  C1C        3.4520   22.5390   23.4180 C.ar  500  HEM500      0.0000
     23  C2C        2.6180   23.0970   24.4620 C.ar  500  HEM500      0.0000
     24  C3C        3.1540   22.7300   25.6460 C.ar  500  HEM500      0.0000
     25  C4C        4.3060   21.9230   25.3570 C.ar  500  HEM500      0.0000
     26  CMC        1.3910   23.9790   24.1840 C.3   500  HEM500      0.0000
     27  CAC        2.7080   23.0140   27.1000 C.2   500  HEM500      0.0000
     28  CBC        1.5100   23.5730   27.4020 C.2   500  HEM500      0.0000
     29  C1D        6.2970   20.6060   26.0640 C.2   500  HEM500      0.0000
     30  C2D        7.2300   20.1660   27.0860 C.2   500  HEM500      0.0000
     31  C3D        8.2920   19.3790   26.3540 C.2   500  HEM500      0.0000
     32  C4D        7.9150   19.3960   24.9530 C.2   500  HEM500      0.0000
     33  CMD        7.1220   20.4760   28.5950 C.3   500  HEM500      0.0000
     34  CAD        9.5240   18.7040   26.9810 C.3   500  HEM500      0.0000
     35  CBD       10.7910   19.4130   26.5320 C.3   500  HEM500      0.0000
     36  CGD       10.9590   20.8310   27.0700 C.2   500  HEM500      0.0000
     37  O1D       10.6210   21.1090   28.2490 O.co2 500  HEM500      0.0000
     38  O2D       11.4300   21.6780   26.2760 O.co2 500  HEM500      0.0000
     39  NA         7.4470   19.8150   21.9990 N.ar  500  HEM500      0.0000
     40  NB         5.1900   21.3940   21.2310 N.2   500  HEM500      0.0000
     41  NC         4.4520   21.8020   23.9940 N.ar  500  HEM500      0.0000
     42  ND         6.7300   20.1060   24.8400 N.2   500  HEM500      0.0000
     43 FE          5.9180   20.7400   22.9910 Fe    500  HEM500      0.0000
@<TRIPOS>BOND
     1    19    16    1
     2     9     7    1
     3    20    21    2
     4    20    17    1
     5    16    17    2
     6    16    15    1
     7    17    18    1
     8     2    15    1
     9     2     8    2
    10    15    40    2
    11     7     8   ar
    12     7     6   ar
    13     8    39   ar
    14    18    40    1
    15    18     3    2
    16    40    43    1
    17     6    10    1
    18     6     5   ar
    19    11    10    1
    20    11    12    1
    21    12    13   ar
    22    12    14   ar
    23    39     5   ar
    24    39    43    1
    25     3    22    1
    26     5     1    2
    27    43    41    1
    28    43    42    1
    29    22    41   ar
    30    22    23   ar
    31     1    32    1
    32    41    25   ar
    33    26    23    1
    34    23    24   ar
    35    42    32    2
    36    42    29    1
    37    32    31    1
    38    25    24   ar
    39    25     4    1
    40    24    27    1
    41    29     4    2
    42    29    30    1
    43    38    36   ar
    44    31    34    1
    45    31    30    2
    46    35    34    1
    47    35    36    1
    48    36    37   ar
    49    30    33    1
    50    27    28    2
