@<TRIPOS>MOLECULE
2y7a_UDP_A_1.pdb
 25 26 0 0 0
SMALL
GASTEIGER

@<TRIPOS>ATOM
      1  N1         2.2530   -8.6090  -11.7280 N.am  1347  UDP1347    -0.1996
      2  C2         3.4150   -8.7880  -10.9780 C.1   1347  UDP1347     0.2802
      3  N3         3.9660  -10.0490  -10.8530 N.2   1347  UDP1347    -0.2497
      4  C4         3.3690  -11.1330  -11.4600 C.1   1347  UDP1347     0.1941
      5  C5         2.2120  -10.9510  -12.2090 C.3   1347  UDP1347     0.1579
      6  C6         1.8300   -9.6480  -12.5180 C.3   1347  UDP1347     0.1249
      7  O2         3.9840   -7.8490  -10.4170 O.2   1347  UDP1347    -0.1922
      8  O4         3.8670  -12.2470  -11.3340 O.2   1347  UDP1347    -0.2133
      9  C1'        1.6310   -7.2630  -11.8870 C.3   1347  UDP1347     0.2361
     10  C2'        2.4640   -6.4040  -12.8320 C.3   1347  UDP1347     0.2316
     11  O2'        2.5330   -5.0770  -12.3560 O.3   1347  UDP1347    -0.2157
     12  C3'        1.7010   -6.4270  -14.1330 C.3   1347  UDP1347     0.2158
     13  C4'        0.2610   -6.5910  -13.6680 C.3   1347  UDP1347     0.1799
     14  O4'        0.3370   -7.3580  -12.4720 O.3   1347  UDP1347    -0.3322
     15  O3'        1.9010   -5.2190  -14.8240 O.3   1347  UDP1347    -0.2175
     16  C5'       -0.6580   -7.2360  -14.7060 C.3   1347  UDP1347     0.1813
     17  O5'       -0.0860   -8.4100  -15.2510 O.3   1347  UDP1347    -0.3111
     18  PA         0.2370   -8.5120  -16.8280 P.3   1347  UDP1347     0.2231
     19  O1A        1.0340   -7.3410  -17.2600 O.2   1347  UDP1347    -0.5169
     20  O2A        0.9390   -9.7910  -17.1080 O.3   1347  UDP1347    -0.4370
     21  O3A       -1.2030   -8.4950  -17.5540 O.3   1347  UDP1347    -0.2261
     22  PB        -1.3910   -8.0500  -19.0970 P.3   1347  UDP1347     0.5373
     23  O1B       -2.1950   -9.0800  -19.7950 O.2   1347  UDP1347    -0.2221
     24  O2B       -0.0760   -7.9350  -19.7750 O.3   1347  UDP1347    -0.1143
     25  O3B       -2.1080   -6.7570  -19.1560 O.3   1347  UDP1347    -0.1143
@<TRIPOS>BOND
     1    23    22    2
     2    24    22    1
     3    25    22    1
     4    22    21    1
     5    21    18    1
     6    19    18    2
     7    20    18    1
     8    18    17    1
     9    17    16    1
    10    15    12    1
    11    16    13    1
    12    12    13    1
    13    12    10    1
    14    13    14    1
    15    10    11    1
    16    10     9    1
    17     6     5    1
    18     6     1    1
    19    14     9    1
    20     5     4    1
    21     9     1    1
    22     1     2   am
    23     4     8    2
    24     4     3    2
    25     2     3    2
    26     2     7    2
