@<TRIPOS>MOLECULE
2y7f_KMH_A_1.pdb
 10 9 0 0 0
SMALL
GASTEIGER

@<TRIPOS>ATOM
      1  N         10.2330  -36.7730   -4.9790 N.3   1276  KMH1276    -0.1325
      2  CB        10.5650  -36.4130   -3.5960 C.3   1276  KMH1276     0.0992
      3  CG        11.9000  -37.0160   -3.1860 C.3   1276  KMH1276     0.0210
      4  CE         8.5420  -31.9240   -3.2840 C.2   1276  KMH1276     0.3723
      5  OF1        7.7540  -32.0700   -4.2460 O.co2 1276  KMH1276    -0.2452
      6  OF2        9.0710  -30.8590   -2.9240 O.co2 1276  KMH1276    -0.2452
      7  CA        10.6230  -34.8990   -3.5350 C.3   1276  KMH1276     0.0841
      8  C          9.2070  -34.3340   -3.5110 C.2   1276  KMH1276     0.1635
      9  C2         8.9490  -33.1860   -2.5230 C.3   1276  KMH1276     0.1782
     10  O          8.3180  -34.7850   -4.2540 O.2   1276  KMH1276    -0.2954
@<TRIPOS>BOND
     1     1     2    1
     2    10     8    2
     3     5     4   ar
     4     2     7    1
     5     2     3    1
     6     7     8    1
     7     8     9    1
     8     4     6   ar
     9     4     9    1
