@<TRIPOS>MOLECULE
2y7h_SAM_B_1.pdb
 27 29 0 0 0
SMALL
GASTEIGER

@<TRIPOS>ATOM
      1  N        -21.4920   -3.5730  -13.2150 N.3   530  SAM530     -0.1208
      2  CA       -20.3930   -3.7000  -14.1860 C.3   530  SAM530      0.1952
      3  C        -19.9260   -5.1640  -14.3640 C.2   530  SAM530      0.3819
      4  O        -18.7670   -5.5010  -14.6610 O.co2 530  SAM530     -0.2441
      5  OXT      -20.7410   -6.0740  -14.2750 O.co2 530  SAM530     -0.2441
      6  CB       -19.2360   -2.8040  -13.7370 C.3   530  SAM530      0.0414
      7  CG       -19.4180   -1.3110  -14.0320 C.3   530  SAM530      0.0503
      8  SD       -17.9400   -0.4040  -13.6010 S.3   530  SAM530     -0.1761
      9  CE       -17.9840   -0.3350  -11.8000 C.3   530  SAM530      0.0590
     10  C5'      -18.2720    1.3050  -14.1320 C.3   530  SAM530      0.0806
     11  C4'      -18.0620    1.4690  -15.6180 C.3   530  SAM530      0.1622
     12  O4'      -18.4260    2.7730  -15.9820 O.3   530  SAM530     -0.3153
     13  C3'      -16.6430    1.2640  -16.1290 C.3   530  SAM530      0.2168
     14  O3'      -16.5680    0.1000  -16.9280 O.3   530  SAM530     -0.2175
     15  C2'      -16.3230    2.5700  -16.8970 C.3   530  SAM530      0.2569
     16  O2'      -15.5010    2.4960  -18.0590 O.3   530  SAM530     -0.2130
     17  C1'      -17.7080    3.1360  -17.1500 C.3   530  SAM530      0.3185
     18  N9       -17.7640    4.6070  -17.3580 N.pl3 530  SAM530     -0.1439
     19  C8       -17.0640    5.5850  -16.7110 C.3   530  SAM530      0.3377
     20  N7       -17.4220    6.7950  -17.2000 N.2   530  SAM530     -0.2095
     21  C5       -18.3390    6.6170  -18.1600 C.2   530  SAM530      0.2526
     22  C6       -19.0190    7.5040  -18.9820 C.2   530  SAM530      0.4393
     23  N6       -18.8580    8.8220  -18.9240 N.pl3 530  SAM530      0.2180
     24  N1       -19.8970    6.9810  -19.9010 N.2   530  SAM530      0.0021
     25  C2       -20.1180    5.6150  -19.9870 C.3   530  SAM530      0.5254
     26  N3       -19.4500    4.7380  -19.1520 N.2   530  SAM530     -0.0055
     27  C4       -18.5690    5.2410  -18.2600 C.2   530  SAM530      0.3518
@<TRIPOS>BOND
     1    25    24    1
     2    25    26    1
     3    24    22    2
     4    26    27    2
     5    22    23    1
     6    22    21    1
     7    27    21    1
     8    27    18    1
     9    21    20    2
    10    16    15    1
    11    18    17    1
    12    18    19    1
    13    20    19    1
    14    17    15    1
    15    17    12    1
    16    14    13    1
    17    15    13    1
    18    13    11    1
    19    12    11    1
    20    11    10    1
    21     4     3   ar
    22     3     5   ar
    23     3     2    1
    24     2     6    1
    25     2     1    1
    26    10     8    1
    27     7     6    1
    28     7     8    1
    29     8     9    1
