@<TRIPOS>MOLECULE
2y7i_ARG_A_1.pdb
 12 11 0 0 0
SMALL
GASTEIGER

@<TRIPOS>ATOM
      1  N          1.5220    2.5190   36.5710 N.3   1245  ARG1245    -0.1208
      2  CA         1.3060    1.5670   37.7050 C.3   1245  ARG1245     0.1944
      3  C          2.6500    1.0640   38.2180 C.2   1245  ARG1245     0.3819
      4  O          2.6940    0.2440   39.1320 O.co2 1245  ARG1245    -0.2441
      5  CB         0.4220    0.3780   37.2730 C.3   1245  ARG1245     0.0343
      6  CG         0.9400   -0.3730   36.0330 C.3   1245  ARG1245     0.0490
      7  CD         0.1250   -1.6270   35.7240 C.3   1245  ARG1245     0.2205
      8  NE         0.4370   -2.1070   34.3750 N.pl3 1245  ARG1245    -0.0865
      9  CZ        -0.0810   -3.1960   33.8100 C.cat 1245  ARG1245     0.5346
     10  NH1       -0.9540   -3.9660   34.4630 N.pl3 1245  ARG1245     0.1354
     11  NH2        0.2790   -3.5170   32.5850 N.pl3 1245  ARG1245     0.1354
     12  OXT        3.7180    1.4530   37.7080 O.co2 1245  ARG1245    -0.2441
@<TRIPOS>BOND
     1    11     9    1
     2     9     8    2
     3     9    10    1
     4     8     7    1
     5     7     6    1
     6     6     5    1
     7     1     2    1
     8     5     2    1
     9     2     3    1
    10    12     3   ar
    11     3     4   ar
