@<TRIPOS>MOLECULE
2y7j_B49_A_1.pdb
 29 31 0 0 0
SMALL
GASTEIGER

@<TRIPOS>ATOM
      1  C4       -11.6630   -8.7100   42.3490 C.3   1294  B491294     0.0665
      2  C5       -21.3200   -8.7540   44.1870 C.ar  1294  B491294     0.0323
      3  C6       -20.3370   -9.0470   45.0680 C.ar  1294  B491294     0.0353
      4  C7       -19.6890   -8.5350   42.2590 C.ar  1294  B491294     0.0326
      5  C13      -14.6280   -8.3430   40.0500 C.2   1294  B491294     0.0105
      6  C15      -21.0020   -8.5180   42.7610 C.ar  1294  B491294     0.1403
      7  C17      -18.6350   -8.8060   43.1780 C.ar  1294  B491294     0.0411
      8  C20      -17.2480   -8.8650   42.9670 C.2   1294  B491294     0.0820
      9  C21      -16.6940   -9.1530   44.2660 C.1   1294  B491294     0.2010
     10  C22      -12.1780   -7.9570   39.3020 C.2   1294  B491294     0.2667
     11  C3       -15.5820   -8.1050   38.8700 C.3   1294  B491294     0.0336
     12  C12      -16.6640   -8.6520   41.7140 C.3   1294  B491294     0.0978
     13  C14      -12.9620   -8.6080   41.6280 C.2   1294  B491294     0.1131
     14  C16      -18.8910   -9.0590   44.5850 C.ar  1294  B491294     0.1449
     15  C18      -15.1380   -8.6230   41.3580 C.2   1294  B491294     0.1100
     16  C19      -13.2430   -8.2830   40.2300 C.2   1294  B491294     0.0786
     17  N23      -14.1220   -8.7990   42.2110 N.2   1294  B491294    -0.4104
     18  N24      -17.6540   -9.2840   45.2670 N.2   1294  B491294    -0.3331
     19  N25      -12.5950   -7.3720   38.1790 N.am  1294  B491294    -0.2001
     20  O27      -15.5430   -9.3170   44.4690 O.2   1294  B491294    -0.2096
     21  O28      -11.0140   -8.1280   39.5130 O.2   1294  B491294    -0.2683
     22  F29      -21.9560   -8.2930   41.9820 F     1294  B491294    -0.2042
     23  C37      -11.7640   -6.9500   37.1500 C.3   1294  B491294     0.1327
     24  C38      -11.2450   -5.6100   37.6420 C.3   1294  B491294     0.0958
     25  N4       -11.2340   -4.3930   36.7430 N.3   1294  B491294    -0.2712
     26  C39      -10.0360   -3.5000   37.2240 C.3   1294  B491294     0.0722
     27  C40      -12.6900   -3.7970   36.2420 C.3   1294  B491294     0.0722
     28  C41      -13.4890   -2.5730   36.7570 C.3   1294  B491294     0.0188
     29  C42       -8.9510   -3.9430   38.3240 C.3   1294  B491294     0.0188
@<TRIPOS>BOND
     1    27    25    1
     2    27    28    1
     3    25    26    1
     4    25    24    1
     5    23    24    1
     6    23    19    1
     7    26    29    1
     8    19    10   am
     9    11     5    1
    10    10    21    2
    11    10    16    1
    12     5    16    2
    13     5    15    1
    14    16    13    1
    15    15    12    1
    16    15    17    2
    17    13    17    2
    18    13     1    1
    19    12     8    1
    20    22     6    1
    21     4     6   ar
    22     4     7   ar
    23     6     2   ar
    24     8     7    2
    25     8     9    1
    26     7    14   ar
    27     2     3   ar
    28     9    20    2
    29     9    18    2
    30    14     3   ar
    31    14    18    2
