@<TRIPOS>MOLECULE
2y7k_SAL_A_1.pdb
 10 10 0 0 0
SMALL
GASTEIGER

@<TRIPOS>ATOM
      1  C1'       25.7790   18.9330   73.8970 C.2   1302  SAL1302     0.3909
      2  O1'       24.9050   19.8400   73.8050 O.co2 1302  SAL1302    -0.2404
      3  O2'       26.0160   18.3160   74.9530 O.co2 1302  SAL1302    -0.2404
      4  C1        26.6050   18.5570   72.6530 C.ar  1302  SAL1302     0.1186
      5  C2        26.4130   19.2730   71.4810 C.ar  1302  SAL1302     0.2020
      6  C3        27.1270   18.9290   70.3230 C.ar  1302  SAL1302     0.0422
      7  C4        28.0440   17.8550   70.3520 C.ar  1302  SAL1302     0.0033
      8  C5        28.2340   17.1440   71.5320 C.ar  1302  SAL1302     0.0004
      9  C6        27.5150   17.4920   72.6790 C.ar  1302  SAL1302     0.0098
     10  O2        25.5140   20.3190   71.5130 O.3   1302  SAL1302    -0.2863
@<TRIPOS>BOND
     1     6     7   ar
     2     6     5   ar
     3     7     8   ar
     4     5    10    1
     5     5     4   ar
     6     8     9   ar
     7     4     9   ar
     8     4     1    1
     9     2     1   ar
    10     1     3   ar
