@<TRIPOS>MOLECULE
2y7l_III_B_1.pdb
 48 47 0 0 0
SMALL
GASTEIGER

@<TRIPOS>ATOM
      1  N         -0.1690   42.1200   -9.6430 N.3    12  ALA12      -0.1231
      2  CA        -1.3500   42.6950   -8.9940 C.3    12  ALA12       0.1694
      3  C         -2.3380   41.6440   -8.4950 C.2    12  ALA12       0.2592
      4  O         -3.1660   41.9980   -7.6800 O.2    12  ALA12      -0.2718
      5  CB        -2.0570   43.7350   -9.8890 C.3    12  ALA12       0.0304
      6  N         -2.2500   40.3650   -8.9140 N.am   13  LYS13      -0.1966
      7  CA        -3.1720   39.3720   -8.3520 C.3    13  LYS13       0.1728
      8  C         -2.4350   38.0350   -8.1840 C.2    13  LYS13       0.2616
      9  O         -1.4310   37.7660   -8.8630 O.2    13  LYS13      -0.2715
     10  CB        -4.4490   39.2730   -9.2180 C.3    13  LYS13       0.0311
     11  CG        -5.5480   38.2760   -8.8240 C.3    13  LYS13       0.0038
     12  CD        -6.7300   38.3060   -9.8400 C.3    13  LYS13       0.0206
     13  CE        -7.7130   37.1310   -9.6510 C.3    13  LYS13       0.1093
     14  NZ        -8.5160   37.1380   -8.4050 N.3    13  LYS13      -0.1314
     15  N         -2.9360   37.2520   -7.2350 N.am   14  GLN14      -0.1963
     16  CA        -2.3230   35.9360   -6.9620 C.3    14  GLN14       0.1733
     17  C         -3.1510   34.8090   -7.6080 C.2    14  GLN14       0.2616
     18  O         -4.3860   34.8820   -7.6270 O.2    14  GLN14      -0.2715
     19  CB        -2.2000   35.6970   -5.4610 C.3    14  GLN14       0.0408
     20  CG        -1.5880   36.8850   -4.6450 C.3    14  GLN14       0.0908
     21  CD        -0.2680   37.3490   -5.1300 C.2    14  GLN14       0.2608
     22  OE1        0.6380   36.5650   -5.2950 O.2    14  GLN14      -0.2717
     23  NE2       -0.1510   38.6380   -5.3820 N.am   14  GLN14      -0.0878
     24  N         -2.4540   33.7640   -8.1220 N.am   15  ALA15      -0.1963
     25  CA        -3.1740   32.6860   -8.7610 C.3    15  ALA15       0.1728
     26  C         -2.4600   31.3670   -8.4130 C.2    15  ALA15       0.2617
     27  O         -1.3000   31.3840   -8.0220 O.2    15  ALA15      -0.2715
     28  CB        -3.2430   32.9640  -10.3390 C.3    15  ALA15       0.0334
     29  N         -3.1290   30.2370   -8.5720 N.am   16  GLY16      -0.1940
     30  CA        -2.5390   28.9200   -8.2470 C.3    16  GLY16       0.2014
     31  C         -2.2790   28.0570   -9.4370 C.2    16  GLY16       0.2639
     32  O         -3.0290   28.0750  -10.4000 O.2    16  GLY16      -0.2714
     33  N         -1.2320   27.2670   -9.3330 N.am   17  ASP17      -0.1957
     34  CA        -0.9210   26.2770  -10.3400 C.3    17  ASP17       0.1840
     35  C         -1.7860   25.0630  -10.2110 C.2    17  ASP17       0.2623
     36  O         -2.1720   24.6270   -9.1150 O.2    17  ASP17      -0.2715
     37  CB         0.5410   25.7860  -10.2380 C.3    17  ASP17       0.1450
     38  CG         1.5560   26.8540  -10.4760 C.2    17  ASP17       0.3671
     39  OD1        1.3900   27.7420  -11.2610 O.co2  17  ASP17      -0.2456
     40  OD2        2.5930   26.7650   -9.7230 O.co2  17  ASP17      -0.2456
     41  N         -1.9910   24.4480  -11.3530 N.am   18  VAL18      -0.1941
     42  CA        -2.4660   23.0150  -11.3370 C.3    18  VAL18       0.1977
     43  C         -1.3710   21.9420  -11.6730 C.2    18  VAL18       0.3842
     44  O         -0.2300   22.5330  -11.8130 O.co2  18  VAL18      -0.2437
     45  CB        -3.7390   22.9590  -12.2550 C.3    18  VAL18       0.0311
     46  CG1       -4.8960   23.7830  -11.6910 C.3    18  VAL18       0.0023
     47  CG2       -3.4670   23.1950  -13.7350 C.3    18  VAL18       0.0023
     48  OXT       -1.5930   20.8190  -11.8510 O.co2  18  VAL18      -0.2437
@<TRIPOS>BOND
     1    47    45    1
     2    45    46    1
     3    45    42    1
     4    48    43   ar
     5    44    43   ar
     6    43    42    1
     7    41    42    1
     8    41    35   am
     9    39    38   ar
    10    38    37    1
    11    38    40   ar
    12    32    31    2
    13    34    37    1
    14    34    35    1
    15    34    33    1
    16    28    25    1
    17    35    36    2
    18     5     2    1
    19    12    13    1
    20    12    11    1
    21    13    14    1
    22     1     2    1
    23    31    33   am
    24    31    30    1
    25    10    11    1
    26    10     7    1
    27     2     3    1
    28     6     3   am
    29     6     7    1
    30     9     8    2
    31    25    26    1
    32    25    24    1
    33    29    26   am
    34    29    30    1
    35     3     4    2
    36    26    27    2
    37     7     8    1
    38     8    15   am
    39    24    17   am
    40    18    17    2
    41    17    16    1
    42    15    16    1
    43    16    19    1
    44    19    20    1
    45    23    21   am
    46    22    21    2
    47    21    20    1
