@<TRIPOS>MOLECULE
2y7p_SAL_A_1.pdb
 10 10 0 0 0
SMALL
GASTEIGER

@<TRIPOS>ATOM
      1  C1'       14.8160   48.6310    3.5540 C.2   1000  SAL1000     0.3909
      2  O1'       15.5390   49.3720    2.8170 O.co2 1000  SAL1000    -0.2404
      3  O2'       14.9820   48.6050    4.7950 O.co2 1000  SAL1000    -0.2404
      4  C1        13.7830   47.7510    2.9810 C.ar  1000  SAL1000     0.1186
      5  C2        12.9860   46.8930    3.8750 C.ar  1000  SAL1000     0.2020
      6  C3        12.0430   46.0320    3.3440 C.ar  1000  SAL1000     0.0422
      7  C4        11.8180   45.9740    1.9480 C.ar  1000  SAL1000     0.0033
      8  C5        12.5750   46.7800    1.1220 C.ar  1000  SAL1000     0.0004
      9  C6        13.5620   47.6770    1.5970 C.ar  1000  SAL1000     0.0098
     10  O2        13.1930   46.9800    5.2290 O.3   1000  SAL1000    -0.2863
@<TRIPOS>BOND
     1     8     9   ar
     2     8     7   ar
     3     9     4   ar
     4     7     6   ar
     5     2     1   ar
     6     4     1    1
     7     4     5   ar
     8     6     5   ar
     9     1     3   ar
    10     5    10    1
