@<TRIPOS>MOLECULE
2y7w_SAL_A_1.pdb
 10 10 0 0 0
SMALL
GASTEIGER

@<TRIPOS>ATOM
      1  C1'       14.3080   14.3500    2.7620 C.2   1300  SAL1300     0.3909
      2  O1'       14.0170   15.5530    2.9630 O.co2 1300  SAL1300    -0.2404
      3  O2'       14.7140   13.5600    3.6460 O.co2 1300  SAL1300    -0.2404
      4  C1        14.1160   13.8140    1.3490 C.ar  1300  SAL1300     0.1186
      5  C2        14.3840   12.4960    1.0560 C.ar  1300  SAL1300     0.2020
      6  C3        14.1890   12.0290   -0.2280 C.ar  1300  SAL1300     0.0422
      7  C4        13.7290   12.8760   -1.2240 C.ar  1300  SAL1300     0.0033
      8  C5        13.4600   14.1970   -0.9360 C.ar  1300  SAL1300     0.0004
      9  C6        13.6540   14.6630    0.3560 C.ar  1300  SAL1300     0.0098
     10  O2        14.8380   11.6610    2.0170 O.3   1300  SAL1300    -0.2863
@<TRIPOS>BOND
     1     7     8   ar
     2     7     6   ar
     3     8     9   ar
     4     6     5   ar
     5     9     4   ar
     6     5     4   ar
     7     5    10    1
     8     4     1    1
     9     1     2   ar
    10     1     3   ar
