@<TRIPOS>MOLECULE
2y7x_MZA_A_1.pdb
 32 36 0 0 0
SMALL
GASTEIGER

@<TRIPOS>ATOM
      1  F1         7.6490    4.9200   19.0050 F     1246  MZA1246    -0.2032
      2  C7         7.5050    3.6470   19.4110 C.ar  1246  MZA1246     0.1495
      3  C6         8.1610    2.6140   18.7180 C.ar  1246  MZA1246     0.0054
      4  C5         9.0390    2.9240   17.5130 C.3   1246  MZA1246     0.0472
      5  C1         9.8360    1.7210   17.0500 C.3   1246  MZA1246     0.0938
      6  N1         9.0220    0.4870   17.0690 N.3   1246  MZA1246    -0.2129
      7  C3         8.6770    0.1320   18.4650 C.3   1246  MZA1246     0.1147
      8  C11        7.9910    1.2850   19.1720 C.ar  1246  MZA1246    -0.0065
      9  C10        7.1880    0.9920   20.2800 C.ar  1246  MZA1246    -0.0018
     10  C9         6.5440    2.0350   20.9480 C.ar  1246  MZA1246     0.0169
     11  C8         6.6910    3.3750   20.5200 C.ar  1246  MZA1246     0.0811
     12  N2         6.0120    4.3820   21.2490 N.am  1246  MZA1246    -0.2554
     13  C25        6.5930    5.5330   21.6940 C.2   1246  MZA1246     0.2472
     14  O3         7.7210    5.9480   21.4460 O.2   1246  MZA1246    -0.2730
     15  C12        4.6070    4.2470   21.6300 C.3   1246  MZA1246     0.1003
     16  C13        4.2260    5.6310   22.1770 C.3   1246  MZA1246     0.0506
     17  C14        5.5780    6.2420   22.5770 C.3   1246  MZA1246     0.1757
     18  N3         5.6410    7.6780   22.3470 N.3   1246  MZA1246    -0.0699
     19  S1         6.0250    8.7300   23.5160 S.O2  1246  MZA1246     0.0772
     20  O1         5.8850   10.0030   22.8990 O.2   1246  MZA1246    -0.1516
     21  O2         5.1900    8.4420   24.6240 O.2   1246  MZA1246    -0.1516
     22  C15        7.7360    8.4420   23.9470 C.ar  1246  MZA1246     0.1236
     23  C24        8.0600    7.8230   25.1360 C.ar  1246  MZA1246     0.0200
     24  C16        8.7350    8.8290   23.0500 C.ar  1246  MZA1246     0.0200
     25  C17       10.0640    8.6260   23.3120 C.ar  1246  MZA1246     0.0014
     26  C18       10.4300    7.9900   24.5300 C.ar  1246  MZA1246     0.0009
     27  C19       11.7790    7.7440   24.8570 C.ar  1246  MZA1246     0.0114
     28  C20       12.0850    7.1440   26.0480 C.ar  1246  MZA1246     0.0577
     29 CL1        13.7460    6.8670   26.4480 Cl    1246  MZA1246    -0.0822
     30  C23        9.4220    7.5760   25.4540 C.ar  1246  MZA1246     0.0014
     31  C22        9.7840    6.9510   26.6670 C.ar  1246  MZA1246     0.0009
     32  C21       11.1000    6.7500   26.9480 C.ar  1246  MZA1246     0.0114
@<TRIPOS>BOND
     1     5     6    1
     2     5     4    1
     3     6     7    1
     4     4     3    1
     5     7     8    1
     6     3     8   ar
     7     3     2   ar
     8     1     2    1
     9     8     9   ar
    10     2    11   ar
    11     9    10   ar
    12    11    10   ar
    13    11    12    1
    14    12    15    1
    15    12    13   am
    16    14    13    2
    17    15    16    1
    18    13    17    1
    19    16    17    1
    20    18    17    1
    21    18    19    1
    22    20    19    2
    23    24    25   ar
    24    24    22   ar
    25    25    26   ar
    26    19    22    1
    27    19    21    2
    28    22    23   ar
    29    26    27   ar
    30    26    30   ar
    31    27    28   ar
    32    23    30   ar
    33    30    31   ar
    34    28    29    1
    35    28    32   ar
    36    31    32   ar
