@<TRIPOS>MOLECULE
2y7z_C0Z_A_1.pdb
 33 37 0 0 0
SMALL
GASTEIGER

@<TRIPOS>ATOM
      1  O3         7.9740    6.3450   21.7500 O.2   1245  C0Z1245    -0.2730
      2  C25        6.8620    5.9370   22.0180 C.2   1245  C0Z1245     0.2471
      3  N2         6.3000    4.7850   21.5610 N.am  1245  C0Z1245    -0.2574
      4  C8         6.9080    3.8350   20.7200 C.ar  1245  C0Z1245     0.0535
      5  C7         7.9710    4.1430   19.8700 C.ar  1245  C0Z1245     0.0104
      6  C9         6.4340    2.5170   20.7640 C.ar  1245  C0Z1245     0.0146
      7  C10        6.9990    1.5380   19.9750 C.ar  1245  C0Z1245    -0.0020
      8  C11        8.0450    1.8470   19.1170 C.ar  1245  C0Z1245    -0.0116
      9  C6         8.5370    3.1450   19.0810 C.ar  1245  C0Z1245    -0.0236
     10  C5         9.6720    3.2270   18.0950 C.3   1245  C0Z1245     0.0279
     11  C4        10.1070    1.7580   17.9070 C.3   1245  C0Z1245     0.0251
     12  C3         8.8150    0.9480   18.1590 C.3   1245  C0Z1245     0.0802
     13  N1         8.1210    0.6090   16.8730 N.3   1245  C0Z1245    -0.2679
     14  C2         7.7100    1.8000   16.0970 C.3   1245  C0Z1245     0.0899
     15  C1         6.8710   -0.1230   17.1640 C.3   1245  C0Z1245     0.0899
     16  C14        5.9030    6.6160   22.9650 C.3   1245  C0Z1245     0.1757
     17  C13        4.5430    5.9790   22.6000 C.3   1245  C0Z1245     0.0506
     18  C12        4.9560    4.5770   22.1290 C.3   1245  C0Z1245     0.1002
     19  N3         5.9040    8.0660   22.8050 N.3   1245  C0Z1245    -0.0699
     20  S1         6.3110    9.0510   24.0100 S.O2  1245  C0Z1245     0.0772
     21  O1         6.1740   10.3420   23.4470 O.2   1245  C0Z1245    -0.1516
     22  O2         5.5830    8.7370   25.1920 O.2   1245  C0Z1245    -0.1516
     23  C15        8.0200    8.7750   24.3660 C.ar  1245  C0Z1245     0.1236
     24  C24        8.3710    8.1060   25.5100 C.ar  1245  C0Z1245     0.0200
     25  C23        9.7350    7.8740   25.8010 C.ar  1245  C0Z1245     0.0014
     26  C18       10.7170    8.3440   24.8760 C.ar  1245  C0Z1245     0.0009
     27  C17       10.3150    9.0220   23.7060 C.ar  1245  C0Z1245     0.0014
     28  C16        8.9860    9.2360   23.4670 C.ar  1245  C0Z1245     0.0200
     29  C22       10.1460    7.1910   26.9700 C.ar  1245  C0Z1245     0.0009
     30  C21       11.4880    6.9850   27.2020 C.ar  1245  C0Z1245     0.0114
     31  C20       12.4390    7.4560   26.2930 C.ar  1245  C0Z1245     0.0577
     32 CL1        14.1380    7.1930   26.5720 Cl    1245  C0Z1245    -0.0822
     33  C19       12.0780    8.1140   25.1480 C.ar  1245  C0Z1245     0.0114
@<TRIPOS>BOND
     1    14    13    1
     2    13    15    1
     3    13    12    1
     4    11    10    1
     5    11    12    1
     6    10     9    1
     7    12     8    1
     8     9     8   ar
     9     9     5   ar
    10     8     7   ar
    11     5     4   ar
    12     7     6   ar
    13     4     6   ar
    14     4     3    1
    15     3     2   am
    16     3    18    1
    17     1     2    2
    18     2    16    1
    19    18    17    1
    20    17    16    1
    21    19    16    1
    22    19    20    1
    23    21    20    2
    24    28    27   ar
    25    28    23   ar
    26    27    26   ar
    27    20    23    1
    28    20    22    2
    29    23    24   ar
    30    26    33   ar
    31    26    25   ar
    32    33    31   ar
    33    24    25   ar
    34    25    29   ar
    35    31    32    1
    36    31    30   ar
    37    29    30   ar
