@<TRIPOS>MOLECULE
2y80_439_A_1.pdb
 33 37 0 0 0
SMALL
GASTEIGER

@<TRIPOS>ATOM
      1  O3         8.0060    6.6450   21.5840 O.2   1245  4391245    -0.2730
      2  C25        6.9190    6.1390   21.7650 C.2   1245  4391245     0.2471
      3  N2         6.4680    5.0310   21.1370 N.am  1245  4391245    -0.2574
      4  C8         7.2060    4.2390   20.2470 C.ar  1245  4391245     0.0535
      5  C7         7.2350    2.8650   20.4600 C.ar  1245  4391245     0.0104
      6  C9         7.9060    4.7840   19.1670 C.ar  1245  4391245     0.0146
      7  C10        8.6240    3.9490   18.3230 C.ar  1245  4391245    -0.0020
      8  C11        8.6450    2.5630   18.5370 C.ar  1245  4391245    -0.0116
      9  C6         7.9500    2.0360   19.6140 C.ar  1245  4391245    -0.0236
     10  C5         8.1230    0.5340   19.6590 C.3   1245  4391245     0.0279
     11  C4         9.3560    0.2710   18.7710 C.3   1245  4391245     0.0251
     12  C3         9.3430    1.4440   17.7680 C.3   1245  4391245     0.0802
     13  N1         8.7850    1.1270   16.4310 N.3   1245  4391245    -0.2679
     14  C2         9.1430    2.2280   15.5200 C.3   1245  4391245     0.0899
     15  C1         7.3060    1.0410   16.4520 C.3   1245  4391245     0.0899
     16  C14        5.8750    6.6120   22.7520 C.3   1245  4391245     0.1757
     17  C13        4.5870    5.9320   22.2380 C.3   1245  4391245     0.0506
     18  C12        5.0960    4.6700   21.5230 C.3   1245  4391245     0.1002
     19  N3         5.7720    8.0700   22.7800 N.3   1245  4391245    -0.0699
     20  S1         6.1980    8.9760   24.0460 S.O2  1245  4391245     0.0772
     21  O1         6.0360   10.2770   23.5070 O.2   1245  4391245    -0.1516
     22  O2         5.4830    8.5680   25.2050 O.2   1245  4391245    -0.1516
     23  C15        7.9180    8.7010   24.3740 C.ar  1245  4391245     0.1236
     24  C24        8.2940    8.0600   25.5270 C.ar  1245  4391245     0.0200
     25  C23        9.6710    7.8260   25.7840 C.ar  1245  4391245     0.0014
     26  C18       10.6250    8.2650   24.8180 C.ar  1245  4391245     0.0009
     27  C17       10.1950    8.9060   23.6370 C.ar  1245  4391245     0.0014
     28  C16        8.8610    9.1260   23.4320 C.ar  1245  4391245     0.0200
     29  C22       10.1150    7.1770   26.9590 C.ar  1245  4391245     0.0009
     30  C21       11.4560    6.9710   27.1530 C.ar  1245  4391245     0.0114
     31  C20       12.3770    7.4020   26.2030 C.ar  1245  4391245     0.0577
     32 CL1        14.0840    7.1400   26.4370 Cl    1245  4391245    -0.0822
     33  C19       11.9920    8.0280   25.0570 C.ar  1245  4391245     0.0114
@<TRIPOS>BOND
     1    14    13    1
     2    13    15    1
     3    13    12    1
     4    12     8    1
     5    12    11    1
     6     7     8   ar
     7     7     6   ar
     8     8     9   ar
     9    11    10    1
    10     6     4   ar
    11     9    10    1
    12     9     5   ar
    13     4     5   ar
    14     4     3    1
    15     3    18    1
    16     3     2   am
    17    18    17    1
    18     1     2    2
    19     2    16    1
    20    17    16    1
    21    16    19    1
    22    19    20    1
    23    28    27   ar
    24    28    23   ar
    25    21    20    2
    26    27    26   ar
    27    20    23    1
    28    20    22    2
    29    23    24   ar
    30    26    33   ar
    31    26    25   ar
    32    33    31   ar
    33    24    25   ar
    34    25    29   ar
    35    31    32    1
    36    31    30   ar
    37    29    30   ar
