@<TRIPOS>MOLECULE
2y81_931_A_1.pdb
 33 37 0 0 0
SMALL
GASTEIGER

@<TRIPOS>ATOM
      1  F1         6.5580    2.1280   21.7640 F     1244  9311244    -0.2029
      2  C7         7.1050    2.7690   20.7220 C.ar  1244  9311244     0.1534
      3  C6         7.7510    1.9970   19.7680 C.ar  1244  9311244     0.0280
      4  C1         8.6430   -0.3770   16.7140 C.3   1244  9311244     0.0891
      5  N1         8.1050    0.9760   16.8300 N.3   1244  9311244    -0.2151
      6  C11        8.3280    2.6230   18.6590 C.ar  1244  9311244    -0.0042
      7  C10        8.2410    4.0190   18.5510 C.ar  1244  9311244    -0.0015
      8  C9         7.5870    4.7840   19.5220 C.ar  1244  9311244     0.0169
      9  C8         6.9980    4.1590   20.6290 C.ar  1244  9311244     0.0814
     10  N2         6.3100    4.8860   21.6570 N.am  1244  9311244    -0.2554
     11  C25        6.8270    5.9660   22.2800 C.2   1244  9311244     0.2472
     12  O3         7.9510    6.4300   22.0890 O.2   1244  9311244    -0.2730
     13  C12        4.9930    4.5170   22.1910 C.3   1244  9311244     0.1003
     14  C13        4.5210    5.7620   22.9240 C.3   1244  9311244     0.0506
     15  C14        5.8000    6.5060   23.2780 C.3   1244  9311244     0.1757
     16  N3         5.6520    7.9460   23.2330 N.3   1244  9311244    -0.0699
     17  S1         6.1150    8.8680   24.4610 S.O2  1244  9311244     0.0772
     18  C70       10.1700    0.9170   18.1050 C.3   1244  9311244     0.0233
     19  O2         5.4170    8.4920   25.6450 O.2   1244  9311244    -0.1516
     20  O1         5.9190   10.1660   23.9000 O.2   1244  9311244    -0.1516
     21  C15        7.8520    8.6210   24.7410 C.ar  1244  9311244     0.1236
     22  C80       10.0110   -0.4160   17.3910 C.3   1244  9311244     0.0206
     23  C24        8.2790    7.9230   25.8430 C.ar  1244  9311244     0.0200
     24  C16        8.7650    9.1440   23.8100 C.ar  1244  9311244     0.0200
     25  C17       10.1140    8.9660   24.0030 C.ar  1244  9311244     0.0014
     26  C18       10.5810    8.2530   25.1330 C.ar  1244  9311244     0.0009
     27  C19       11.9530    8.0570   25.3430 C.ar  1244  9311244     0.0114
     28  C20       12.3780    7.3730   26.4560 C.ar  1244  9311244     0.0577
     29 CL1        14.0900    7.1520   26.6590 Cl    1244  9311244    -0.0822
     30  C23        9.6660    7.7250   26.0730 C.ar  1244  9311244     0.0014
     31  C22       10.1480    7.0250   27.2100 C.ar  1244  9311244     0.0009
     32  C21       11.4960    6.8490   27.3930 C.ar  1244  9311244     0.0114
     33  C28        9.0420    1.8170   17.5900 C.3   1244  9311244     0.0950
@<TRIPOS>BOND
     1     4     5    1
     2     4    22    1
     3     5    33    1
     4    22    18    1
     5    33    18    1
     6    33     6    1
     7     7     6   ar
     8     7     8   ar
     9     6     3   ar
    10     8     9   ar
    11     3     2   ar
    12     9     2   ar
    13     9    10    1
    14     2     1    1
    15    10    13    1
    16    10    11   am
    17    12    11    2
    18    13    14    1
    19    11    15    1
    20    14    15    1
    21    16    15    1
    22    16    17    1
    23    24    25   ar
    24    24    21   ar
    25    20    17    2
    26    25    26   ar
    27    17    21    1
    28    17    19    2
    29    21    23   ar
    30    26    27   ar
    31    26    30   ar
    32    27    28   ar
    33    23    30   ar
    34    30    31   ar
    35    28    29    1
    36    28    32   ar
    37    31    32   ar
