@<TRIPOS>MOLECULE
2y82_930_A_1.pdb
 33 37 0 0 0
SMALL
GASTEIGER

@<TRIPOS>ATOM
      1  F2         7.7360    5.5870   19.5210 F     1245  9301245    -0.2029
      2  C21        7.6020    4.3080   19.8650 C.ar  1245  9301245     0.1534
      3  C15        6.8360    3.9470   20.9780 C.ar  1245  9301245     0.0814
      4  C22        6.7570    2.5790   21.2810 C.ar  1245  9301245     0.0169
      5  C26        7.4110    1.6370   20.4870 C.ar  1245  9301245    -0.0015
      6  C27        8.1680    2.0200   19.3810 C.ar  1245  9301245    -0.0042
      7  C28        8.8430    0.9750   18.5220 C.3   1245  9301245     0.0950
      8  C7        10.1000    1.4860   17.8060 C.3   1245  9301245     0.0233
      9  C11        9.6210    1.8670   16.4020 C.3   1245  9301245     0.0206
     10  C8         8.1870    1.3290   16.2860 C.3   1245  9301245     0.0891
     11  N4         7.9630    0.4720   17.4550 N.3   1245  9301245    -0.2151
     12  C24        8.2510    3.3830   19.0720 C.ar  1245  9301245     0.0280
     13  N2         6.1580    4.8930   21.8160 N.am  1245  9301245    -0.2554
     14  C50        6.7280    6.0210   22.3140 C.2   1245  9301245     0.2472
     15  O3         7.8450    6.4440   22.0590 O.2   1245  9301245    -0.2730
     16  C12        5.7370    6.6930   23.2730 C.3   1245  9301245     0.1757
     17  C13        4.4100    6.0840   22.8520 C.3   1245  9301245     0.0506
     18  C14        4.7750    4.7340   22.2470 C.3   1245  9301245     0.1003
     19  N1         5.7660    8.1440   23.1460 N.3   1245  9301245    -0.0699
     20  S1         6.2570    9.1120   24.3470 S.O2  1245  9301245     0.0772
     21  O2         6.2370   10.3900   23.7210 O.2   1245  9301245    -0.1516
     22  O1         5.5100    8.8960   25.5530 O.2   1245  9301245    -0.1516
     23  C6         7.9560    8.7830   24.7060 C.ar  1245  9301245     0.1236
     24  C16        8.8890    9.2380   23.7590 C.ar  1245  9301245     0.0200
     25  C18       10.2460    9.0280   23.9970 C.ar  1245  9301245     0.0014
     26  C17       10.6470    8.3690   25.1760 C.ar  1245  9301245     0.0009
     27  C4         9.6940    7.9120   26.1250 C.ar  1245  9301245     0.0014
     28  C5         8.3180    8.1390   25.8670 C.ar  1245  9301245     0.0200
     29  C9        12.0040    8.1520   25.4120 C.ar  1245  9301245     0.0114
     30  C1        12.3950    7.5090   26.5810 C.ar  1245  9301245     0.0577
     31 CL1        14.1010    7.2880   26.7970 Cl    1245  9301245    -0.0822
     32  C2        11.4610    7.0520   27.5330 C.ar  1245  9301245     0.0114
     33  C3        10.1230    7.2560   27.3090 C.ar  1245  9301245     0.0009
@<TRIPOS>BOND
     1    10     9    1
     2    10    11    1
     3     9     8    1
     4    11     7    1
     5     8     7    1
     6     7     6    1
     7    12     6   ar
     8    12     2   ar
     9     6     5   ar
    10     1     2    1
    11     2     3   ar
    12     5     4   ar
    13     3     4   ar
    14     3    13    1
    15    13    18    1
    16    13    14   am
    17    15    14    2
    18    18    17    1
    19    14    16    1
    20    17    16    1
    21    19    16    1
    22    19    20    1
    23    21    20    2
    24    24    25   ar
    25    24    23   ar
    26    25    26   ar
    27    20    23    1
    28    20    22    2
    29    23    28   ar
    30    26    29   ar
    31    26    27   ar
    32    29    30   ar
    33    28    27   ar
    34    27    33   ar
    35    30    31    1
    36    30    32   ar
    37    33    32   ar
