@<TRIPOS>MOLECULE
2y83_ADP_O_1.pdb
 39 41 0 0 0
SMALL
GASTEIGER

@<TRIPOS>ATOM
      1  PB        48.6750   73.3760    5.1800 P.3   400  ADP400      0.5373
      2  O1B       47.1680   73.4080    5.3000 O.3   400  ADP400     -0.1143
      3  O2B       49.3680   72.1690    5.7460 O.3   400  ADP400     -0.1143
      4  O3B       48.6990   73.4150    3.6710 O.2   400  ADP400     -0.2221
      5  PA        48.8840   75.1180    7.0550 P.3   400  ADP400      0.2224
      6  O1A       47.8690   76.1790    6.8480 O.2   400  ADP400     -0.5170
      7  O2A       48.5370   74.0980    8.0580 O.3   400  ADP400     -0.4370
      8  O3A       49.3720   74.6870    5.6920 O.3   400  ADP400     -0.2261
      9  O5'       50.0970   75.9790    7.5800 O.3   400  ADP400     -0.3245
     10  C5'       50.3150   76.1350    9.0070 C.3   400  ADP400      0.0836
     11  C4'       51.4990   77.0900    9.2690 C.3   400  ADP400      0.1131
     12  O4'       51.0390   78.4870    9.3090 O.3   400  ADP400     -0.3474
     13  C3'       52.3440   76.8960   10.5650 C.3   400  ADP400      0.1133
     14  O3'       53.7550   76.8160   10.2940 O.3   400  ADP400     -0.3864
     15  C2'       51.9710   78.1090   11.4190 C.3   400  ADP400      0.1266
     16  O2'       52.9780   78.4820   12.3590 O.3   400  ADP400     -0.3849
     17  C1'       51.7830   79.1400   10.3330 C.3   400  ADP400      0.1617
     18  N9        51.1120   80.3510   10.7980 N.pl3 400  ADP400     -0.2234
     19  C8        49.9180   80.4720   11.4680 C.2   400  ADP400      0.1451
     20  N7        49.5630   81.7140   11.6870 N.2   400  ADP400     -0.3871
     21  C5        50.6170   82.4570   11.1650 C.2   400  ADP400      0.2211
     22  C6        50.8680   83.8430   11.0900 C.2   400  ADP400      0.2227
     23  N6        50.0430   84.7860   11.5690 N.pl3 400  ADP400     -0.3300
     24  N1        52.0190   84.2490   10.5090 N.2   400  ADP400     -0.3296
     25  C2        52.8640   83.3230   10.0580 C.1   400  ADP400      0.0930
     26  N3        52.7260   81.9940   10.0330 N.2   400  ADP400     -0.3287
     27  C4        51.5740   81.6270   10.6150 C.2   400  ADP400      0.2354
     28 H5'1       50.5550   75.1460    9.4530 H     400  ADP400      0.0591
     29 H5'2       49.4070   76.5040    9.5300 H     400  ADP400      0.0591
     30  H4'       52.2150   76.9820    8.4260 H     400  ADP400      0.0647
     31  H3'       52.0140   75.9590   11.0620 H     400  ADP400      0.0647
     32 HO3'       53.8670   75.9560    9.8830 H     400  ADP400      0.2100
     33  H2'       51.0150   77.8980   11.9440 H     400  ADP400      0.0663
     34 HO2'       52.5730   78.9900   13.0660 H     400  ADP400      0.2101
     35  H1'       52.7740   79.3810    9.8920 H     400  ADP400      0.0841
     36  H8        49.3380   79.5990   11.7650 H     400  ADP400      0.1149
     37 HN61       50.3930   85.7230   11.5570 H     400  ADP400      0.1448
     38 HN62       49.2450   84.5460   12.1220 H     400  ADP400      0.1448
     39  H2        53.7800   83.7080    9.6080 H     400  ADP400      0.1751
@<TRIPOS>BOND
     1     4     1    2
     2     1     2    1
     3     1     8    1
     4     1     3    1
     5     8     5    1
     6     6     5    2
     7     5     9    1
     8     5     7    1
     9     9    10    1
    10    30    11    1
    11    10    11    1
    12    10    28    1
    13    10    29    1
    14    11    12    1
    15    11    13    1
    16    12    17    1
    17    39    25    1
    18    32    14    1
    19    35    17    1
    20    26    25    2
    21    26    27    2
    22    25    24    2
    23    14    13    1
    24    17    18    1
    25    17    15    1
    26    24    22    2
    27    13    31    1
    28    13    15    1
    29    27    18    1
    30    27    21    1
    31    18    19    1
    32    22    21    1
    33    22    23    1
    34    21    20    2
    35    15    33    1
    36    15    16    1
    37    19    20    2
    38    19    36    1
    39    37    23    1
    40    23    38    1
    41    16    34    1
