@<TRIPOS>MOLECULE
2y85_137_A_1.pdb
 23 23 0 0 0
SMALL
GASTEIGER

@<TRIPOS>ATOM
      1  P         -1.0170  -23.0680   47.6020 P.3   1247  1371247     0.5327
      2  O1P       -1.6570  -21.7170   48.1480 O.3   1247  1371247    -0.1145
      3  O2P       -1.8490  -24.2480   48.2310 O.3   1247  1371247    -0.1145
      4  O3P        0.4340  -23.1790   47.8360 O.2   1247  1371247    -0.2224
      5  O5'       -1.3190  -23.1340   46.0640 O.3   1247  1371247    -0.2674
      6  C5'       -0.9720  -24.3720   45.3980 C.3   1247  1371247     0.1892
      7  C4'       -0.4940  -24.1740   43.9660 C.3   1247  1371247     0.2147
      8  O4'       -1.2540  -23.1720   43.3060 O.3   1247  1371247    -0.2176
      9  C3'        0.9770  -23.7770   43.9020 C.3   1247  1371247     0.2165
     10  O3'        1.7050  -24.5590   44.8540 O.3   1247  1371247    -0.2175
     11  C2'        1.4580  -24.0870   42.4580 C.3   1247  1371247     0.2062
     12  O2'        1.6870  -25.5190   42.2500 O.3   1247  1371247    -0.2184
     13  C1'        2.6400  -23.2460   41.9270 C.3   1247  1371247     0.1477
     14  NH         2.1580  -22.8610   40.5980 N.pl3 1247  1371247    -0.2346
     15  C1         2.6080  -22.3860   38.3260 C.ar  1247  1371247     0.0946
     16  C2         2.7600  -22.1070   39.6960 C.ar  1247  1371247     0.0717
     17  C3         3.4970  -20.9990   40.1050 C.ar  1247  1371247     0.0163
     18  C4         4.0990  -20.1840   39.1380 C.ar  1247  1371247     0.0013
     19  C5         3.9640  -20.4650   37.7800 C.ar  1247  1371247     0.0003
     20  C6         3.2220  -21.5620   37.3780 C.ar  1247  1371247     0.0079
     21  C7         1.8170  -23.6190   37.8400 C.2   1247  1371247     0.3890
     22  O71        1.6900  -23.8190   36.6230 O.co2 1247  1371247    -0.2405
     23  O72        1.3660  -24.4060   38.6820 O.co2 1247  1371247    -0.2405
@<TRIPOS>BOND
     1    22    21   ar
     2    20    19   ar
     3    20    15   ar
     4    19    18   ar
     5    21    15    1
     6    21    23   ar
     7    15    16   ar
     8    18    17   ar
     9    16    17   ar
    10    16    14    1
    11    14    13    1
    12    13    11    1
    13    12    11    1
    14    11     9    1
    15     8     7    1
    16     9     7    1
    17     9    10    1
    18     7     6    1
    19     6     5    1
    20     5     1    1
    21     1     4    2
    22     1     2    1
    23     1     3    1
