@<TRIPOS>MOLECULE
2y86_M2W_A_1.pdb
 25 24 0 0 0
SMALL
GASTEIGER

@<TRIPOS>ATOM
      1  C8        11.8590   39.4130    5.6270 C.2   1332  M2W1332     0.2418
      2  O27       11.5640   39.8130    6.7460 O.2   1332  M2W1332    -0.2733
      3  O22       17.2600   35.7330    4.4640 O.co2 1332  M2W1332    -0.2441
      4  C9        13.3070   39.0860    5.2690 C.3   1332  M2W1332     0.0869
      5  C20       17.1290   36.0070    5.6950 C.2   1332  M2W1332     0.3819
      6  C16       15.6840   36.1840    6.1860 C.3   1332  M2W1332     0.1943
      7  C13       15.1490   37.4180    5.4340 C.3   1332  M2W1332     0.0311
      8  C10       13.6800   37.7980    5.9760 C.3   1332  M2W1332     0.0117
      9  N19       15.6430   36.3840    7.6640 N.3   1332  M2W1332    -0.1208
     10  O21       18.0750   36.1060    6.5380 O.co2 1332  M2W1332    -0.2441
     11  N7        10.9410   39.1160    4.7290 N.am  1332  M2W1332    -0.1968
     12  C3         9.4940   39.3730    5.0080 C.3   1332  M2W1332     0.1843
     13  C1         8.7270   38.0330    4.8600 C.2   1332  M2W1332     0.2627
     14  O6         9.3030   36.9390    4.8560 O.2   1332  M2W1332    -0.2714
     15  C35        9.0330   40.4050    3.9240 C.3   1332  M2W1332     0.0997
     16  S37        9.3940   39.8130    2.1880 S.3   1332  M2W1332    -0.0797
     17  N2         7.4080   38.1070    4.6720 N.am  1332  M2W1332    -0.1916
     18  C4         6.6010   36.8490    4.4610 C.3   1332  M2W1332     0.2246
     19  C23        5.3220   36.9640    5.2930 C.2   1332  M2W1332     0.3867
     20  O25        4.4580   36.0410    5.2330 O.co2 1332  M2W1332    -0.2437
     21  C5         6.3890   36.9700    2.9670 C.3   1332  M2W1332     0.1463
     22  O41        5.2400   37.6760    2.5470 O.3   1332  M2W1332    -0.3512
     23  C46        7.4200   36.2650    2.0690 C.3   1332  M2W1332     0.0345
     24  C42        4.3330   37.1210    1.5760 C.3   1332  M2W1332     0.1741
     25  O26        5.2380   38.0030    5.9780 O.co2 1332  M2W1332    -0.2437
@<TRIPOS>BOND
     1    24    22    1
     2    23    21    1
     3    16    15    1
     4    22    21    1
     5    21    18    1
     6    15    12    1
     7    18    17    1
     8    18    19    1
     9     3     5   ar
    10    17    13   am
    11    11    12    1
    12    11     1   am
    13    14    13    2
    14    13    12    1
    15    20    19   ar
    16     4     1    1
    17     4     8    1
    18    19    25   ar
    19     7     8    1
    20     7     6    1
    21     1     2    2
    22     5     6    1
    23     5    10   ar
    24     6     9    1
