@<TRIPOS>MOLECULE
2y88_2ER_A_1.pdb
 37 38 0 0 0
SMALL
GASTEIGER

@<TRIPOS>ATOM
      1  N1        43.1170    8.7550    1.5550 N.3   1246  2ER1246    -0.2059
      2  C2        44.2090    8.3490    0.9350 C.3   1246  2ER1246     0.2042
      3  N3        44.1340    8.5830   -0.3770 N.2   1246  2ER1246    -0.2488
      4  C4        42.9400    9.1240   -0.5980 C.2   1246  2ER1246     0.1469
      5  C5        42.2970    9.2220    0.5900 C.3   1246  2ER1246     0.2016
      6  N6        41.0740    9.7140    0.9300 N.pl3 1246  2ER1246    -0.1969
      7  C9        42.5430    9.5370   -1.9560 C.2   1246  2ER1246     0.3005
      8  N9        43.4810    9.2690   -2.9100 N.am  1246  2ER1246    -0.0826
      9  O9        41.5350   10.2370   -2.1990 O.2   1246  2ER1246    -0.2653
     10  O'1       47.7350    7.2540    6.7330 O.3   1246  2ER1246    -0.1145
     11  O'L       32.2120    9.0540   -2.1290 O.2   1246  2ER1246    -0.2224
     12  C1'       42.7150    8.7630    2.9600 C.3   1246  2ER1246     0.2125
     13  C2'       42.6520    7.4520    3.4960 C.3   1246  2ER1246     0.2272
     14  O2'       41.3230    6.9840    3.3350 O.3   1246  2ER1246    -0.2161
     15 C3''       35.9860   10.6200    1.1890 C.3   1246  2ER1246     0.2432
     16  C3'       42.9710    7.7250    4.9750 C.3   1246  2ER1246     0.2155
     17  O3'       41.9030    8.3600    5.6680 O.3   1246  2ER1246    -0.2176
     18  O3B       35.6270   11.9800    1.1320 O.3   1246  2ER1246    -0.2122
     19  C4'       44.1160    8.6870    4.8760 C.3   1246  2ER1246     0.1798
     20  O4'       43.9780    9.2640    3.5830 O.3   1246  2ER1246    -0.3353
     21  C4B       34.9060    9.7640    1.8490 C.3   1246  2ER1246     0.2193
     22  O4B       35.2430    8.3760    1.5790 O.3   1246  2ER1246    -0.2172
     23  C5'       45.3480    7.7410    5.0380 C.3   1246  2ER1246     0.1859
     24  C5B       33.5620   10.0810    1.2040 C.3   1246  2ER1246     0.1896
     25  O6'       46.4730    8.5300    5.0580 O.3   1246  2ER1246    -0.2675
     26  O6B       33.5860    9.6620   -0.2380 O.3   1246  2ER1246    -0.2674
     27  P7'       47.8780    7.8150    5.3570 P.3   1246  2ER1246     0.5327
     28  P7B       32.3580   10.1830   -1.1450 P.3   1246  2ER1246     0.5327
     29  O8'       48.9050    8.9550    5.1770 O.3   1246  2ER1246    -0.1145
     30  O8B       32.7610   11.5080   -1.7610 O.3   1246  2ER1246    -0.1145
     31  O9'       47.9380    6.6140    4.3830 O.2   1246  2ER1246    -0.2224
     32  O9B       31.1810   10.2640   -0.2160 O.3   1246  2ER1246    -0.1145
     33  C7        40.0240    9.4720   -0.0720 C.2   1246  2ER1246     0.1783
     34  N8        38.7350    9.9950    0.1770 N.2   1246  2ER1246    -0.2445
     35  C1B       38.5780   10.8310    1.3630 C.3   1246  2ER1246     0.1937
     36 C2''       37.1850   10.9370    2.0770 C.2   1246  2ER1246     0.2078
     37  O2B       37.1800   11.4760    3.1930 O.2   1246  2ER1246    -0.2912
@<TRIPOS>BOND
     1     8     7   am
     2     9     7    2
     3    11    28    2
     4     7     4    1
     5    30    28    1
     6    28    26    1
     7    28    32    1
     8     4     3    2
     9     4     5    1
    10     3     2    1
    11    26    24    1
    12    33    34    2
    13    33     6    1
    14    34    35    1
    15     5     6    1
    16     5     1    1
    17     2     1    1
    18    18    15    1
    19    15    21    1
    20    15    36    1
    21    24    21    1
    22    35    36    1
    23     1    12    1
    24    22    21    1
    25    36    37    2
    26    12    13    1
    27    12    20    1
    28    14    13    1
    29    13    16    1
    30    20    19    1
    31    31    27    2
    32    19    16    1
    33    19    23    1
    34    16    17    1
    35    23    25    1
    36    25    27    1
    37    29    27    1
    38    27    10    1
