@<TRIPOS>MOLECULE
2y8c_DUQ_A_1.pdb
 38 41 0 0 0
SMALL
GASTEIGER

@<TRIPOS>ATOM
      1  O4        -2.0330   25.4040   -0.9160 O.2   400  DUQ400     -0.2085
      2  C4        -3.1920   25.4130   -0.4620 C.1   400  DUQ400      0.2182
      3  N3        -4.0470   24.3630   -0.6210 N.2   400  DUQ400     -0.2452
      4  C2        -5.2950   24.4280   -0.1040 C.1   400  DUQ400      0.2826
      5  O2        -6.1410   23.5020   -0.1760 O.2   400  DUQ400     -0.1919
      6  C5        -3.5810   26.5450    0.2040 C.2   400  DUQ400      0.1241
      7  C6        -4.8910   26.6240    0.7080 C.2   400  DUQ400      0.0904
      8  N1        -5.7180   25.5780    0.5790 N.am  400  DUQ400     -0.2029
      9  C1'       -7.1290   25.6180    1.0460 C.3   400  DUQ400      0.1182
     10  C1        -7.8340   26.8220    0.3880 C.3   400  DUQ400      0.1016
     11  C38       -9.2830   27.0750    0.7800 C.2   400  DUQ400      0.2428
     12  N34      -10.3300   26.6260    0.0970 N.am  400  DUQ400     -0.2026
     13  C39      -11.7300   26.8630    0.4800 C.3   400  DUQ400      0.1506
     14  C40      -12.5360   25.9670   -0.4560 C.3   400  DUQ400      0.2054
     15  O37      -12.5900   26.6450   -1.7310 O.3   400  DUQ400     -0.2184
     16  O38       -9.4240   27.7810    1.7290 O.2   400  DUQ400     -0.2733
     17  C4'       -7.6240   26.8950   -1.0970 C.3   400  DUQ400      0.0430
     18  C5'       -8.3430   28.0280   -1.8470 C.3   400  DUQ400      0.1438
     19  O1        -9.0220   27.2660   -2.8810 O.3   400  DUQ400     -0.3464
     20  C17       -8.4630   27.2000   -4.2170 C.3   400  DUQ400      0.1489
     21  C30       -9.2720   26.0900   -4.8620 C.ar  400  DUQ400      0.0098
     22  C31      -10.4610   25.6460   -4.2450 C.ar  400  DUQ400     -0.0014
     23  C32      -11.1880   24.5950   -4.8470 C.ar  400  DUQ400     -0.0002
     24  C33      -10.8010   24.0140   -6.0580 C.ar  400  DUQ400     -0.0000
     25  C34       -9.6320   24.4860   -6.6780 C.ar  400  DUQ400     -0.0002
     26  C35       -8.9160   25.5180   -6.0860 C.ar  400  DUQ400     -0.0014
     27  C24       -8.8610   28.4920   -4.9180 C.ar  400  DUQ400      0.0098
     28  C25       -9.8900   29.2920   -4.3520 C.ar  400  DUQ400     -0.0014
     29  C26      -10.3020   30.4900   -4.9780 C.ar  400  DUQ400     -0.0002
     30  C27       -9.7100   30.8580   -6.2000 C.ar  400  DUQ400     -0.0000
     31  C28       -8.7000   30.0650   -6.7890 C.ar  400  DUQ400     -0.0002
     32  C29       -8.2770   28.8830   -6.1440 C.ar  400  DUQ400     -0.0014
     33  C18       -6.9310   26.9170   -4.1300 C.ar  400  DUQ400      0.0098
     34  C19       -6.4500   25.6250   -3.8040 C.ar  400  DUQ400     -0.0014
     35  C20       -5.0400   25.3500   -3.6600 C.ar  400  DUQ400     -0.0002
     36  C21       -4.1280   26.3820   -3.8750 C.ar  400  DUQ400     -0.0000
     37  C22       -4.5850   27.6880   -4.1960 C.ar  400  DUQ400     -0.0002
     38  C23       -5.9690   27.9430   -4.3140 C.ar  400  DUQ400     -0.0014
@<TRIPOS>BOND
     1    31    30   ar
     2    31    32   ar
     3    25    26   ar
     4    25    24   ar
     5    30    29   ar
     6    32    27   ar
     7    26    21   ar
     8    24    23   ar
     9    29    28   ar
    10    27    28   ar
    11    27    20    1
    12    21    22   ar
    13    21    20    1
    14    23    22   ar
    15    38    37   ar
    16    38    33   ar
    17    20    33    1
    18    20    19    1
    19    37    36   ar
    20    33    34   ar
    21    36    35   ar
    22    34    35   ar
    23    19    18    1
    24    18    17    1
    25    15    14    1
    26    17    10    1
    27     1     2    2
    28     3     2    2
    29     3     4    2
    30     2     6    1
    31    14    13    1
    32     5     4    2
    33     4     8   am
    34    12    13    1
    35    12    11   am
    36     6     7    2
    37    10    11    1
    38    10     9    1
    39     8     7    1
    40     8     9    1
    41    11    16    2
