@<TRIPOS>MOLECULE
2y8e_GNP_A_1.pdb
 32 34 0 0 0
SMALL
GASTEIGER

@<TRIPOS>ATOM
      1  PG       -30.1670    4.9840    7.7150 P.3   1176  GNP1176     0.4884
      2  O1G      -28.8720    5.1220    8.4610 O.3   1176  GNP1176    -0.1240
      3  O2G      -30.4240    6.1810    6.8730 O.2   1176  GNP1176    -0.2331
      4  O3G      -31.3280    4.5830    8.5490 O.3   1176  GNP1176    -0.1240
      5  N3B      -29.9660    3.7650    6.6240 N.3   1176  GNP1176    -0.0163
      6  PB       -29.9420    2.1600    6.8840 P.3   1176  GNP1176     0.4669
      7  O1B      -31.0460    1.7190    7.8040 O.3   1176  GNP1176    -0.1253
      8  O2B      -28.5620    1.7230    7.2520 O.2   1176  GNP1176    -0.2351
      9  O3A      -30.2260    1.5460    5.4380 O.3   1176  GNP1176    -0.2360
     10  PA       -31.5710    0.9930    4.8230 P.3   1176  GNP1176     0.2220
     11  O1A      -31.9270   -0.3250    5.3760 O.3   1176  GNP1176    -0.4370
     12  O2A      -32.5680    2.0840    4.8930 O.2   1176  GNP1176    -0.5170
     13  O5'      -31.1470    0.7270    3.3070 O.3   1176  GNP1176    -0.3111
     14  C5'      -30.6150    1.7650    2.5110 C.3   1176  GNP1176     0.1813
     15  C4'      -30.8250    1.4290    1.0560 C.3   1176  GNP1176     0.1799
     16  O4'      -30.0100    0.2690    0.7510 O.3   1176  GNP1176    -0.3326
     17  C3'      -32.2340    1.0650    0.6370 C.3   1176  GNP1176     0.2158
     18  O3'      -32.4670    1.5740   -0.7010 O.3   1176  GNP1176    -0.2175
     19  C2'      -32.2650   -0.4660    0.6790 C.3   1176  GNP1176     0.2310
     20  O2'      -33.1650   -1.0750   -0.2270 O.3   1176  GNP1176    -0.2158
     21  C1'      -30.8230   -0.7780    0.2810 C.3   1176  GNP1176     0.2293
     22  N9       -30.3260   -2.0330    0.8200 N.pl3 1176  GNP1176    -0.2354
     23  C8       -30.3040   -2.4330    2.1480 C.3   1176  GNP1176     0.2246
     24  N7       -29.7490   -3.5980    2.3590 N.2   1176  GNP1176    -0.2322
     25  C5       -29.4440   -4.0300    1.0690 C.2   1176  GNP1176     0.2182
     26  C6       -28.8800   -5.2490    0.6180 C.1   1176  GNP1176     0.2372
     27  O6       -28.5440   -6.2290    1.2890 O.2   1176  GNP1176    -0.2069
     28  N1       -28.6900   -5.2460   -0.7670 N.2   1176  GNP1176    -0.2485
     29  C2       -29.0440   -4.2300   -1.6330 C.1   1176  GNP1176     0.2531
     30  N2       -28.8150   -4.3900   -2.9590 N.pl3 1176  GNP1176    -0.0226
     31  N3       -29.5860   -3.1010   -1.2210 N.2   1176  GNP1176    -0.3074
     32  C4       -29.7770   -3.0710    0.1160 C.2   1176  GNP1176     0.2300
@<TRIPOS>BOND
     1    30    29    1
     2    29    31    2
     3    29    28    2
     4    31    32    2
     5    28    26    2
     6    18    17    1
     7    20    19    1
     8    32    22    1
     9    32    25    1
    10    21    19    1
    11    21    16    1
    12    21    22    1
    13    26    25    1
    14    26    27    2
    15    17    19    1
    16    17    15    1
    17    16    15    1
    18    22    23    1
    19    15    14    1
    20    25    24    2
    21    23    24    1
    22    14    13    1
    23    13    10    1
    24    10    12    2
    25    10    11    1
    26    10     9    1
    27     9     6    1
    28     5     6    1
    29     5     1    1
    30     3     1    2
    31     6     8    2
    32     6     7    1
    33     1     2    1
    34     1     4    1
