@<TRIPOS>MOLECULE
2y8h_HEM_A_1.pdb
 43 50 0 0 0
SMALL
GASTEIGER

@<TRIPOS>ATOM
      1  CHA        9.0030  -24.8160   23.6550 C.2   500  HEM500      0.0000
      2  CHB        7.3500  -23.1710   19.4740 C.2   500  HEM500      0.0000
      3  CHC        3.6400  -21.0800   21.8110 C.2   500  HEM500      0.0000
      4  CHD        5.5110  -22.4230   26.0690 C.2   500  HEM500      0.0000
      5  C1A        8.8840  -24.5530   22.3170 C.ar  500  HEM500      0.0000
      6  C2A        9.7930  -25.0100   21.2760 C.ar  500  HEM500      0.0000
      7  C3A        9.3490  -24.5240   20.1120 C.ar  500  HEM500      0.0000
      8  C4A        8.1220  -23.8040   20.3960 C.ar  500  HEM500      0.0000
      9  CMA        9.9050  -24.6730   18.6790 C.3   500  HEM500      0.0000
     10  CAA       11.0920  -25.7850   21.6270 C.3   500  HEM500      0.0000
     11  CBA       11.4100  -27.1080   21.0370 C.3   500  HEM500      0.0000
     12  CGA       12.6160  -27.5230   21.8650 C.2   500  HEM500      0.0000
     13  O1A       13.7060  -26.9000   21.8020 O.co2 500  HEM500      0.0000
     14  O2A       12.4450  -28.4830   22.6290 O.co2 500  HEM500      0.0000
     15  C1B        6.2430  -22.3910   19.7390 C.2   500  HEM500      0.0000
     16  C2B        5.5050  -21.6000   18.7600 C.2   500  HEM500      0.0000
     17  C3B        4.4840  -21.0460   19.3950 C.2   500  HEM500      0.0000
     18  C4B        4.5210  -21.4420   20.8000 C.2   500  HEM500      0.0000
     19  CMB        5.8200  -21.4150   17.2520 C.3   500  HEM500      0.0000
     20  CAB        3.4550  -20.1570   18.6940 C.2   500  HEM500      0.0000
     21  CBB        2.1730  -20.2930   19.0140 C.2   500  HEM500      0.0000
     22  C1C        3.8080  -21.2380   23.1790 C.ar  500  HEM500      0.0000
     23  C2C        2.9860  -20.6950   24.2580 C.ar  500  HEM500      0.0000
     24  C3C        3.5460  -21.0720   25.4190 C.ar  500  HEM500      0.0000
     25  C4C        4.7130  -21.8550   25.1160 C.ar  500  HEM500      0.0000
     26  CMC        1.7310  -19.8060   24.0330 C.3   500  HEM500      0.0000
     27  CAC        3.1280  -20.8150   26.8920 C.2   500  HEM500      0.0000
     28  CBC        2.0480  -20.1130   27.1920 C.2   500  HEM500      0.0000
     29  C1D        6.6600  -23.1320   25.8140 C.2   500  HEM500      0.0000
     30  C2D        7.5840  -23.6040   26.8280 C.2   500  HEM500      0.0000
     31  C3D        8.6610  -24.3440   26.0740 C.2   500  HEM500      0.0000
     32  C4D        8.2840  -24.2550   24.6700 C.2   500  HEM500      0.0000
     33  CMD        7.5300  -23.4430   28.3680 C.3   500  HEM500      0.0000
     34  CAD        9.8860  -25.0360   26.7200 C.3   500  HEM500      0.0000
     35  CBD       11.2120  -24.3720   26.3330 C.3   500  HEM500      0.0000
     36  CGD       11.4280  -22.9960   26.9450 C.2   500  HEM500      0.0000
     37  O1D       11.2040  -22.8030   28.1550 O.co2 500  HEM500      0.0000
     38  O2D       11.8270  -22.0780   26.2050 O.co2 500  HEM500      0.0000
     39  NA         7.8890  -23.8280   21.7440 N.ar  500  HEM500      0.0000
     40  NB         5.5890  -22.2790   20.9450 N.2   500  HEM500      0.0000
     41  NC         4.8420  -21.9490   23.7430 N.ar  500  HEM500      0.0000
     42  ND         7.0930  -23.5310   24.5590 N.2   500  HEM500      0.0000
     43 FE          6.2820  -22.9100   22.7260 Fe    500  HEM500      0.0000
@<TRIPOS>BOND
     1    19    16    1
     2     9     7    1
     3    20    21    2
     4    20    17    1
     5    16    17    2
     6    16    15    1
     7    17    18    1
     8     2    15    1
     9     2     8    2
    10    15    40    2
    11     7     8   ar
    12     7     6   ar
    13     8    39   ar
    14    18    40    1
    15    18     3    2
    16    40    43    1
    17    11    10    1
    18    11    12    1
    19     6    10    1
    20     6     5   ar
    21    39     5   ar
    22    39    43    1
    23    13    12   ar
    24     3    22    1
    25    12    14   ar
    26     5     1    2
    27    43    41    1
    28    43    42    1
    29    22    41   ar
    30    22    23   ar
    31     1    32    1
    32    41    25   ar
    33    26    23    1
    34    23    24   ar
    35    42    32    2
    36    42    29    1
    37    32    31    1
    38    25    24   ar
    39    25     4    1
    40    24    27    1
    41    29     4    2
    42    29    30    1
    43    31    34    1
    44    31    30    2
    45    38    36   ar
    46    35    34    1
    47    35    36    1
    48    30    33    1
    49    27    28    2
    50    36    37   ar
