@<TRIPOS>MOLECULE
2y8i_ADP_X_1.pdb
 27 29 0 0 0
SMALL
GASTEIGER

@<TRIPOS>ATOM
      1  PB        21.6910   34.7160   57.4790 P.3   1001  ADP1001     0.5373
      2  O1B       23.1010   34.8130   58.0240 O.3   1001  ADP1001    -0.1143
      3  O2B       21.7620   33.6840   56.3400 O.2   1001  ADP1001    -0.2221
      4  O3B       20.7220   34.3150   58.6300 O.3   1001  ADP1001    -0.1143
      5  PA        20.5920   37.3260   57.4320 P.3   1001  ADP1001     0.2231
      6  O1A       19.0940   37.3060   57.1920 O.2   1001  ADP1001    -0.5169
      7  O2A       20.9050   37.4810   58.8270 O.3   1001  ADP1001    -0.4370
      8  O3A       21.2040   36.0870   56.7300 O.3   1001  ADP1001    -0.2261
      9  O5'       21.1610   38.5740   56.6470 O.3   1001  ADP1001    -0.3111
     10  C5'       22.3130   39.1670   57.0420 C.3   1001  ADP1001     0.1813
     11  C4'       22.1370   40.6150   57.2970 C.3   1001  ADP1001     0.1821
     12  O4'       21.6740   41.1730   56.1170 O.3   1001  ADP1001    -0.3135
     13  C3'       21.0820   40.7510   58.2940 C.3   1001  ADP1001     0.2184
     14  O3'       21.6550   41.1440   59.5320 O.3   1001  ADP1001    -0.2174
     15  C2'       20.1990   41.7490   57.8110 C.3   1001  ADP1001     0.2570
     16  O2'       20.4270   42.9890   58.4790 O.3   1001  ADP1001    -0.2130
     17  C1'       20.5740   41.9670   56.4260 C.3   1001  ADP1001     0.3186
     18  N9        19.5680   41.6870   55.4340 N.pl3 1001  ADP1001    -0.1439
     19  C8        19.3680   40.5300   54.7830 C.3   1001  ADP1001     0.3377
     20  N7        18.3690   40.6860   53.9060 N.2   1001  ADP1001    -0.2095
     21  C5        17.9410   41.9590   53.9940 C.2   1001  ADP1001     0.2526
     22  C6        16.9580   42.6910   53.3340 C.2   1001  ADP1001     0.4393
     23  N6        16.1690   42.0510   52.3450 N.pl3 1001  ADP1001     0.2180
     24  N1        16.7690   43.9830   53.6430 N.2   1001  ADP1001     0.0021
     25  C2        17.5130   44.5760   54.5800 C.3   1001  ADP1001     0.5254
     26  N3        18.4630   43.8920   55.2320 N.2   1001  ADP1001    -0.0055
     27  C4        18.7010   42.6000   54.9630 C.2   1001  ADP1001     0.3518
@<TRIPOS>BOND
     1    23    22    1
     2    22    24    2
     3    22    21    1
     4    24    25    1
     5    20    21    2
     6    20    19    1
     7    21    27    1
     8    25    26    1
     9    19    18    1
    10    27    26    2
    11    27    18    1
    12    18    17    1
    13    12    17    1
    14    12    11    1
    15     3     1    2
    16    17    15    1
    17     9    10    1
    18     9     5    1
    19     8     5    1
    20     8     1    1
    21    10    11    1
    22     6     5    2
    23    11    13    1
    24     5     7    1
    25     1     2    1
    26     1     4    1
    27    15    13    1
    28    15    16    1
    29    13    14    1
