@<TRIPOS>MOLECULE
2y8l_ADP_E_1.pdb
 27 29 0 0 0
SMALL
GASTEIGER

@<TRIPOS>ATOM
      1  PB        -2.5640   -7.7480  -37.6150 P.3   1327  ADP1327     0.5373
      2  O1B       -1.7110   -6.5300  -37.3160 O.3   1327  ADP1327    -0.1143
      3  O2B       -4.0330   -7.4630  -37.5130 O.3   1327  ADP1327    -0.1143
      4  O3B       -2.1150   -8.6650  -38.7020 O.2   1327  ADP1327    -0.2221
      5  PA        -2.6900  -10.1150  -35.9790 P.3   1327  ADP1327     0.2231
      6  O1A       -1.5450  -10.5190  -35.0980 O.3   1327  ADP1327    -0.4370
      7  O2A       -2.9300  -10.9290  -37.2140 O.2   1327  ADP1327    -0.5169
      8  O3A       -2.3580   -8.5860  -36.2750 O.3   1327  ADP1327    -0.2261
      9  O5'       -4.0140  -10.0150  -35.0950 O.3   1327  ADP1327    -0.3111
     10  C5'       -4.8790  -11.1330  -34.9320 C.3   1327  ADP1327     0.1813
     11  C4'       -5.7480  -11.0510  -33.6650 C.3   1327  ADP1327     0.1821
     12  O4'       -5.0140  -11.5060  -32.5250 O.3   1327  ADP1327    -0.3135
     13  C3'       -6.2470   -9.6590  -33.2960 C.3   1327  ADP1327     0.2184
     14  O3'       -7.5650   -9.7710  -32.7160 O.3   1327  ADP1327    -0.2174
     15  C2'       -5.2580   -9.1820  -32.2550 C.3   1327  ADP1327     0.2570
     16  O2'       -5.8120   -8.2420  -31.3290 O.3   1327  ADP1327    -0.2130
     17  C1'       -4.8320  -10.4610  -31.5590 C.3   1327  ADP1327     0.3186
     18  N9        -3.4030  -10.3670  -31.1530 N.pl3 1327  ADP1327    -0.1439
     19  C8        -2.3950   -9.8350  -31.8790 C.3   1327  ADP1327     0.3377
     20  N7        -1.2210   -9.9140  -31.2150 N.2   1327  ADP1327    -0.2095
     21  C5        -1.4720  -10.5140  -30.0300 C.2   1327  ADP1327     0.2526
     22  C6        -0.6900  -10.9150  -28.8270 C.2   1327  ADP1327     0.4393
     23  N6         0.6300  -10.6790  -28.7610 N.pl3 1327  ADP1327     0.2180
     24  N1        -1.3470  -11.5130  -27.7890 N.2   1327  ADP1327     0.0021
     25  C2        -2.6750  -11.7560  -27.8400 C.3   1327  ADP1327     0.5254
     26  N3        -3.4350  -11.4200  -28.9000 N.2   1327  ADP1327    -0.0055
     27  C4        -2.9110  -10.8090  -29.9970 C.2   1327  ADP1327     0.3518
@<TRIPOS>BOND
     1     4     1    2
     2     1     3    1
     3     1     2    1
     4     1     8    1
     5     7     5    2
     6     8     5    1
     7     5     6    1
     8     5     9    1
     9     9    10    1
    10    10    11    1
    11    11    13    1
    12    11    12    1
    13    13    14    1
    14    13    15    1
    15    12    17    1
    16    15    17    1
    17    15    16    1
    18    19    20    1
    19    19    18    1
    20    17    18    1
    21    20    21    2
    22    18    27    1
    23    21    27    1
    24    21    22    1
    25    27    26    2
    26    26    25    1
    27    22    23    1
    28    22    24    2
    29    25    24    1
