@<TRIPOS>MOLECULE
2y8l_AMP_E_1.pdb
 23 25 0 0 0
SMALL
GASTEIGER

@<TRIPOS>ATOM
      1  P         -0.5810  -13.8770  -43.9080 P.3   1329  AMP1329     0.5327
      2  O1P       -2.0080  -13.6210  -43.4510 O.3   1329  AMP1329    -0.1145
      3  O2P        0.4810  -13.9980  -42.7990 O.3   1329  AMP1329    -0.1145
      4  O3P       -0.1840  -13.0340  -45.0960 O.2   1329  AMP1329    -0.2224
      5  O5'       -0.7210  -15.3680  -44.4740 O.3   1329  AMP1329    -0.2675
      6  C5'       -1.1690  -16.4060  -43.5950 C.3   1329  AMP1329     0.1860
      7  C4'       -1.3080  -17.7040  -44.3900 C.3   1329  AMP1329     0.1823
      8  O4'       -2.3550  -17.5140  -45.3300 O.3   1329  AMP1329    -0.3135
      9  C3'       -0.0830  -18.0610  -45.2110 C.3   1329  AMP1329     0.2184
     10  O3'        0.0410  -19.4800  -45.2440 O.3   1329  AMP1329    -0.2174
     11  C2'       -0.3690  -17.4800  -46.5810 C.3   1329  AMP1329     0.2570
     12  O2'        0.2690  -18.1800  -47.6560 O.3   1329  AMP1329    -0.2130
     13  C1'       -1.8880  -17.5590  -46.6710 C.3   1329  AMP1329     0.3186
     14  N9        -2.4830  -16.4330  -47.4370 N.pl3 1329  AMP1329    -0.1439
     15  C8        -2.0720  -15.1480  -47.4590 C.3   1329  AMP1329     0.3377
     16  N7        -2.8390  -14.3950  -48.2750 N.2   1329  AMP1329    -0.2095
     17  C5        -3.7810  -15.2070  -48.7950 C.2   1329  AMP1329     0.2526
     18  C6        -4.9290  -15.0720  -49.7210 C.2   1329  AMP1329     0.4393
     19  N6        -5.2340  -13.8920  -50.2880 N.pl3 1329  AMP1329     0.2180
     20  N1        -5.6640  -16.1710  -49.9940 N.2   1329  AMP1329     0.0021
     21  C2        -5.3860  -17.3760  -49.4470 C.3   1329  AMP1329     0.5254
     22  N3        -4.3680  -17.5680  -48.5860 N.2   1329  AMP1329    -0.0055
     23  C4        -3.5400  -16.5510  -48.2410 C.2   1329  AMP1329     0.3518
@<TRIPOS>BOND
     1    19    18    1
     2    20    18    2
     3    20    21    1
     4    18    17    1
     5    21    22    1
     6    17    16    2
     7    17    23    1
     8    22    23    2
     9    16    15    1
    10    23    14    1
    11    12    11    1
    12    15    14    1
    13    14    13    1
    14    13    11    1
    15    13     8    1
    16    11     9    1
    17     8     7    1
    18    10     9    1
    19     9     7    1
    20     4     1    2
    21     5     1    1
    22     5     6    1
    23     7     6    1
    24     1     2    1
    25     1     3    1
