@<TRIPOS>MOLECULE
2y8q_ADP_E_1.pdb
 27 29 0 0 0
SMALL
GASTEIGER

@<TRIPOS>ATOM
      1  PB        26.9930   67.2870   25.4890 P.3   1327  ADP1327     0.5373
      2  O1B       26.3690   65.9120   25.6990 O.3   1327  ADP1327    -0.1143
      3  O2B       28.4830   67.3380   25.6740 O.3   1327  ADP1327    -0.1143
      4  O3B       26.4450   68.0090   24.2730 O.2   1327  ADP1327    -0.2221
      5  PA        27.0640   69.6510   27.0740 P.3   1327  ADP1327     0.2231
      6  O1A       26.0650   70.2110   28.0580 O.3   1327  ADP1327    -0.4370
      7  O2A       27.3660   70.4050   25.8130 O.2   1327  ADP1327    -0.5169
      8  O3A       26.5390   68.1570   26.7660 O.3   1327  ADP1327    -0.2261
      9  O5'       28.4550   69.4780   27.8440 O.3   1327  ADP1327    -0.3111
     10  C5'       29.2190   70.6660   28.0540 C.3   1327  ADP1327     0.1813
     11  C4'       30.1050   70.5580   29.2970 C.3   1327  ADP1327     0.1821
     12  O4'       29.4300   71.0770   30.4520 O.3   1327  ADP1327    -0.3135
     13  C3'       30.4810   69.1220   29.6400 C.3   1327  ADP1327     0.2184
     14  O3'       31.8440   69.1370   30.0790 O.3   1327  ADP1327    -0.2174
     15  C2'       29.5370   68.7210   30.7630 C.3   1327  ADP1327     0.2570
     16  O2'       30.1120   67.7750   31.6700 O.3   1327  ADP1327    -0.2130
     17  C1'       29.2100   70.0480   31.4370 C.3   1327  ADP1327     0.3186
     18  N9        27.7980   70.0530   31.9010 N.pl3 1327  ADP1327    -0.1439
     19  C8        26.7510   69.5440   31.2230 C.3   1327  ADP1327     0.3377
     20  N7        25.6000   69.7020   31.9300 N.2   1327  ADP1327    -0.2095
     21  C5        25.9050   70.3360   33.0790 C.2   1327  ADP1327     0.2526
     22  C6        25.1470   70.8180   34.2630 C.2   1327  ADP1327     0.4393
     23  N6        23.8070   70.6310   34.3500 N.pl3 1327  ADP1327     0.2180
     24  N1        25.8470   71.4390   35.2440 N.2   1327  ADP1327     0.0021
     25  C2        27.1850   71.6090   35.1510 C.3   1327  ADP1327     0.5254
     26  N3        27.9300   71.2000   34.1010 N.2   1327  ADP1327    -0.0055
     27  C4        27.3580   70.5670   33.0530 C.2   1327  ADP1327     0.3518
@<TRIPOS>BOND
     1     4     1    2
     2     1     3    1
     3     1     2    1
     4     1     8    1
     5     7     5    2
     6     8     5    1
     7     5     9    1
     8     5     6    1
     9     9    10    1
    10    10    11    1
    11    11    13    1
    12    11    12    1
    13    13    14    1
    14    13    15    1
    15    12    17    1
    16    15    17    1
    17    15    16    1
    18    19    18    1
    19    19    20    1
    20    17    18    1
    21    18    27    1
    22    20    21    2
    23    27    21    1
    24    27    26    2
    25    21    22    1
    26    26    25    1
    27    22    23    1
    28    22    24    2
    29    25    24    1
