@<TRIPOS>MOLECULE
2y8q_AMP_E_1.pdb
 23 25 0 0 0
SMALL
GASTEIGER

@<TRIPOS>ATOM
      1  P         24.9220   72.9470   18.9330 P.3   1328  AMP1328     0.5327
      2  O1P       26.0910   72.1230   19.4410 O.3   1328  AMP1328    -0.1145
      3  O2P       23.8580   73.2500   19.9590 O.3   1328  AMP1328    -0.1145
      4  O3P       24.3850   72.4470   17.6280 O.2   1328  AMP1328    -0.2224
      5  O5'       25.5110   74.3960   18.5500 O.3   1328  AMP1328    -0.2675
      6  C5'       25.5400   75.5140   19.4310 C.3   1328  AMP1328     0.1860
      7  C4'       25.7780   76.7650   18.5800 C.3   1328  AMP1328     0.1823
      8  O4'       26.8720   76.5850   17.6590 O.3   1328  AMP1328    -0.3135
      9  C3'       24.5670   77.1050   17.7180 C.3   1328  AMP1328     0.2184
     10  O3'       24.4100   78.5290   17.6890 O.3   1328  AMP1328    -0.2174
     11  C2'       24.9130   76.5900   16.3340 C.3   1328  AMP1328     0.2570
     12  O2'       24.3420   77.3780   15.2940 O.3   1328  AMP1328    -0.2130
     13  C1'       26.4290   76.6390   16.2990 C.3   1328  AMP1328     0.3186
     14  N9        26.9750   75.4930   15.5250 N.pl3 1328  AMP1328    -0.1439
     15  C8        26.5350   74.2180   15.5060 C.3   1328  AMP1328     0.3377
     16  N7        27.2740   73.4590   14.6480 N.2   1328  AMP1328    -0.2095
     17  C5        28.2110   74.2520   14.1080 C.2   1328  AMP1328     0.2526
     18  C6        29.3220   74.1090   13.1450 C.2   1328  AMP1328     0.4393
     19  N6        29.6220   72.9330   12.5500 N.pl3 1328  AMP1328     0.2180
     20  N1        30.0560   75.2100   12.8720 N.2   1328  AMP1328     0.0021
     21  C2        29.8100   76.4170   13.4210 C.3   1328  AMP1328     0.5254
     22  N3        28.8190   76.6120   14.3040 N.2   1328  AMP1328    -0.0055
     23  C4        28.0070   75.5900   14.6840 C.2   1328  AMP1328     0.3518
@<TRIPOS>BOND
     1    19    18    1
     2    20    18    2
     3    20    21    1
     4    18    17    1
     5    21    22    1
     6    17    16    2
     7    17    23    1
     8    22    23    2
     9    16    15    1
    10    23    14    1
    11    12    11    1
    12    15    14    1
    13    14    13    1
    14    13    11    1
    15    13     8    1
    16    11     9    1
    17     4     1    2
    18     8     7    1
    19    10     9    1
    20     9     7    1
    21     5     1    1
    22     5     6    1
    23     7     6    1
    24     1     2    1
    25     1     3    1
