@<TRIPOS>MOLECULE
2y91_PGE_A_1.pdb
 10 9 0 0 0
SMALL
GASTEIGER

@<TRIPOS>ATOM
      1  C1        34.4670   10.3390   15.1250 C.3   1295  PGE1295     0.2140
      2  O1        35.8920   10.1590   15.0490 O.3   1295  PGE1295    -0.2176
      3  C2        33.7500    9.6870   13.9390 C.3   1295  PGE1295     0.1777
      4  O2        32.4030    9.3340   14.2910 O.3   1295  PGE1295    -0.3483
      5  C3        31.3850   10.2600   13.8720 C.3   1295  PGE1295     0.1742
      6  C4        30.5630   10.7960   15.0430 C.3   1295  PGE1295     0.1742
      7  O4        31.3000   15.0410   16.6080 O.3   1295  PGE1295    -0.2176
      8  C6        31.4590   13.6970   16.1230 C.3   1295  PGE1295     0.2140
      9  C5        30.1130   13.0050   15.9370 C.3   1295  PGE1295     0.1777
     10  O3        30.1660   12.1530   14.7860 O.3   1295  PGE1295    -0.3483
@<TRIPOS>BOND
     1     5     4    1
     2     5     6    1
     3     3     4    1
     4     3     1    1
     5    10     6    1
     6    10     9    1
     7     2     1    1
     8     9     8    1
     9     8     7    1
