@<TRIPOS>MOLECULE
2y94_STU_A_1.pdb
 35 42 0 0 0
SMALL
GASTEIGER

@<TRIPOS>ATOM
      1  O4       -33.9590   72.6470   -4.0040 O.3   1549  STU1549    -0.3186
      2  C25      -34.4420   72.2620   -2.7490 C.3   1549  STU1549     0.2078
      3  C24      -33.3620   71.8140   -1.7810 C.3   1549  STU1549     0.0739
      4  C23      -32.0100   72.0890   -2.4440 C.3   1549  STU1549     0.1086
      5  C22      -31.9760   71.2550   -3.7290 C.3   1549  STU1549     0.1761
      6  C21      -33.0690   71.7780   -4.6440 C.3   1549  STU1549     0.1915
      7  C26      -32.3370   72.6430   -5.6650 C.3   1549  STU1549     0.0566
      8  N2       -33.7160   70.6700   -5.3470 N.ar  1549  STU1549    -0.3054
      9  C18      -34.8900   70.0710   -4.9050 C.ar  1549  STU1549     0.0774
     10  C19      -35.6880   70.3570   -3.7880 C.ar  1549  STU1549     0.0783
     11  C6       -36.8440   69.6160   -3.5370 C.ar  1549  STU1549     0.0293
     12  C7       -37.2050   68.5710   -4.4220 C.ar  1549  STU1549     0.0822
     13  C10      -36.4050   68.2980   -5.5270 C.ar  1549  STU1549     0.0154
     14  C11      -35.2540   69.0350   -5.7760 C.ar  1549  STU1549     0.0173
     15  C12      -34.2230   69.0070   -6.8130 C.ar  1549  STU1549     0.0171
     16  C17      -33.2990   70.0300   -6.5010 C.ar  1549  STU1549     0.0617
     17  C16      -32.1930   70.2370   -7.3300 C.ar  1549  STU1549     0.0172
     18  C15      -32.0510   69.4210   -8.4380 C.ar  1549  STU1549     0.0015
     19  C14      -32.9600   68.4250   -8.7330 C.ar  1549  STU1549     0.0001
     20  C13      -34.0640   68.1920   -7.9320 C.ar  1549  STU1549     0.0015
     21  C9       -37.0560   67.1480   -6.2520 C.3   1549  STU1549     0.1650
     22  N1       -38.2570   66.8070   -5.4840 N.2   1549  STU1549    -0.1976
     23  C8       -38.3370   67.6320   -4.4280 C.1   1549  STU1549     0.1501
     24  O5       -39.2250   67.6030   -3.5980 O.2   1549  STU1549    -0.2222
     25  C5       -37.4190   70.1720   -2.3150 C.ar  1549  STU1549     0.0180
     26  C20      -36.5670   71.2230   -1.9040 C.ar  1549  STU1549     0.0618
     27  C1       -36.8490   71.9600   -0.7570 C.ar  1549  STU1549     0.0172
     28  C2       -37.9890   71.6180   -0.0500 C.ar  1549  STU1549     0.0015
     29  C3       -38.8220   70.5900   -0.4520 C.ar  1549  STU1549     0.0001
     30  C4       -38.5630   69.8420   -1.5880 C.ar  1549  STU1549     0.0015
     31  N3       -35.5300   71.2970   -2.8280 N.ar  1549  STU1549    -0.3039
     32  O6       -32.3150   69.9100   -3.3840 O.3   1549  STU1549    -0.3478
     33  C27      -31.1740   69.0960   -3.6460 C.3   1549  STU1549     0.1743
     34  N4       -30.9110   71.7170   -1.5420 N.3   1549  STU1549    -0.2152
     35  C28      -29.6620   71.9610   -2.2780 C.3   1549  STU1549     0.1075
@<TRIPOS>BOND
     1    19    18   ar
     2    19    20   ar
     3    18    17   ar
     4    20    15   ar
     5    17    16   ar
     6    15    16   ar
     7    15    14   ar
     8    16     8   ar
     9    21    13    1
    10    21    22    1
    11    14    13   ar
    12    14     9   ar
    13     7     6    1
    14    13    12   ar
    15    22    23    2
    16     8     9   ar
    17     8     6    1
    18     9    10   ar
    19     6     1    1
    20     6     5    1
    21    23    12    1
    22    23    24    2
    23    12    11   ar
    24     1     2    1
    25    10    11   ar
    26    10    31   ar
    27     5    32    1
    28     5     4    1
    29    33    32    1
    30    11    25   ar
    31    31     2    1
    32    31    26   ar
    33     2     3    1
    34     4     3    1
    35     4    34    1
    36    25    26   ar
    37    25    30   ar
    38    35    34    1
    39    26    27   ar
    40    30    29   ar
    41    27    28   ar
    42    29    28   ar
