@<TRIPOS>MOLECULE
2y94_AMP_E_1.pdb
 23 25 0 0 0
SMALL
GASTEIGER

@<TRIPOS>ATOM
      1  P         -9.2810   13.3570  -12.7010 P.3   1327  AMP1327     0.5327
      2  O1P       -9.8980   12.3020  -11.8220 O.3   1327  AMP1327    -0.1145
      3  O2P      -10.1120   14.6110  -12.6040 O.3   1327  AMP1327    -0.1145
      4  O3P       -9.0060   12.7890  -14.0710 O.2   1327  AMP1327    -0.2224
      5  O5'       -7.9060   13.5650  -11.9230 O.3   1327  AMP1327    -0.2675
      6  C5'       -7.7590   14.6080  -10.9640 C.3   1327  AMP1327     0.1860
      7  C4'       -7.1320   14.1130   -9.6810 C.3   1327  AMP1327     0.1823
      8  O4'       -8.0370   13.1780   -9.0330 O.3   1327  AMP1327    -0.3135
      9  C3'       -5.7990   13.3810   -9.8430 C.3   1327  AMP1327     0.2184
     10  O3'       -4.9390   13.7240   -8.7570 O.3   1327  AMP1327    -0.2174
     11  C2'       -6.1950   11.9110   -9.7350 C.3   1327  AMP1327     0.2570
     12  O2'       -5.1660   11.0580   -9.2780 O.3   1327  AMP1327    -0.2130
     13  C1'       -7.3540   11.9750   -8.7460 C.3   1327  AMP1327     0.3186
     14  N9        -8.3030   10.8640   -8.8620 N.pl3 1327  AMP1327    -0.1439
     15  C8        -8.9700   10.5100   -9.9740 C.3   1327  AMP1327     0.3377
     16  N7        -9.7690    9.4370   -9.7520 N.2   1327  AMP1327    -0.2095
     17  C5        -9.6140    9.0820   -8.4640 C.2   1327  AMP1327     0.2526
     18  C6       -10.1610    8.0320   -7.5730 C.2   1327  AMP1327     0.4393
     19  N6       -11.0580    7.1260   -8.0290 N.pl3 1327  AMP1327     0.2180
     20  N1        -9.7360    8.0120   -6.2920 N.2   1327  AMP1327     0.0021
     21  C2        -8.8470    8.9090   -5.8260 C.3   1327  AMP1327     0.5254
     22  N3        -8.3110    9.8860   -6.5790 N.2   1327  AMP1327    -0.0055
     23  C4        -8.6440   10.0230   -7.8830 C.2   1327  AMP1327     0.3518
@<TRIPOS>BOND
     1     4     1    2
     2     1     3    1
     3     1     5    1
     4     1     2    1
     5     5     6    1
     6     6     7    1
     7    15    16    1
     8    15    14    1
     9     9    11    1
    10     9     7    1
    11     9    10    1
    12    16    17    2
    13    11    12    1
    14    11    13    1
    15     7     8    1
    16     8    13    1
    17    14    13    1
    18    14    23    1
    19    17    23    1
    20    17    18    1
    21    19    18    1
    22    23    22    2
    23    18    20    2
    24    22    21    1
    25    20    21    1
