@<TRIPOS>MOLECULE
2y98_MIV_A_1.pdb
 49 51 0 0 0
SMALL
GASTEIGER

@<TRIPOS>ATOM
      1  O5        21.0800  -22.7410  -12.3500 O.2   460  MIV460     -0.2449
      2  C24       21.4160  -21.6760  -12.9440 C.2   460  MIV460      0.3410
      3  C23       22.2250  -20.5580  -12.3440 C.2   460  MIV460      0.0774
      4  C22       22.7150  -20.6840  -11.1140 C.2   460  MIV460     -0.0174
      5  C20       23.5440  -19.5870  -10.5480 C.3   460  MIV460      0.0495
      6  C21       25.0030  -20.0690  -10.5950 C.3   460  MIV460      0.0072
      7  C11       23.1370  -19.2980   -9.0970 C.3   460  MIV460      0.1217
      8  O2        23.9260  -18.1240   -8.7600 O.3   460  MIV460     -0.3308
      9  C12       25.0100  -18.2860   -7.8590 C.3   460  MIV460      0.2679
     10  O4        24.4390  -18.5130   -6.5670 O.3   460  MIV460     -0.3311
     11  C18       25.4040  -18.6550   -5.5110 C.3   460  MIV460      0.1194
     12  C19       24.6910  -18.8950   -4.1710 C.3   460  MIV460      0.0322
     13  C17       26.3320  -17.4320   -5.4450 C.3   460  MIV460      0.0483
     14  C14       26.8830  -16.9740   -6.8300 C.3   460  MIV460      0.0957
     15  N         27.4200  -15.5940   -6.6990 N.3   460  MIV460     -0.2691
     16  C16       26.4000  -14.5730   -6.3680 C.3   460  MIV460      0.0897
     17  C15       28.5430  -15.5750   -5.7430 C.3   460  MIV460      0.0897
     18  C13       25.8070  -16.9740   -7.9280 C.3   460  MIV460      0.2224
     19  O3        26.3280  -16.6970   -9.2640 O.3   460  MIV460     -0.2163
     20  C9        21.6050  -19.0640   -8.8730 C.3   460  MIV460      0.0281
     21  C10       21.2110  -19.3460   -7.4140 C.3   460  MIV460      0.0025
     22  C8        21.1430  -17.6240   -9.3320 C.3   460  MIV460      0.0101
     23  C6        19.6480  -17.2270   -9.2060 C.3   460  MIV460      0.0620
     24  C7        19.3470  -15.7800   -9.6990 C.3   460  MIV460      0.0081
     25  C5        18.7420  -18.2250   -9.9250 C.2   460  MIV460      0.1727
     26  O1        17.8820  -18.8540   -9.2820 O.2   460  MIV460     -0.2914
     27  C4        18.9770  -18.5160  -11.3590 C.2   460  MIV460      0.0374
     28  C3        18.5140  -19.6590  -11.8860 C.2   460  MIV460      0.0026
     29  C2        18.8100  -20.0740  -13.2660 C.2   460  MIV460     -0.0043
     30  C1        18.3740  -21.2780  -13.7660 C.2   460  MIV460     -0.0203
     31  O6        21.0660  -21.4840  -14.3590 O.3   460  MIV460     -0.4488
     32  C25       20.1560  -22.4010  -15.0310 C.3   460  MIV460      0.1755
     33  C26       20.7490  -22.7480  -16.4050 C.3   460  MIV460      0.0441
     34  C27       22.2310  -23.0860  -16.3800 C.3   460  MIV460      0.0038
     35  C28       18.7740  -21.7030  -15.1710 C.3   460  MIV460      0.0918
     36  C29       17.7780  -22.5820  -15.9220 C.3   460  MIV460      0.1527
     37  O7        17.3730  -23.7430  -15.2130 O.3   460  MIV460     -0.3282
     38  C30       16.0580  -23.6130  -14.8120 C.3   460  MIV460      0.2659
     39  O11       16.0820  -23.7760  -13.3920 O.3   460  MIV460     -0.3284
     40  C36       14.7800  -23.7690  -12.7730 C.3   460  MIV460      0.1507
     41  C37       15.0670  -23.7890  -11.2510 C.3   460  MIV460      0.0350
     42  C35       13.8890  -24.9060  -13.3740 C.3   460  MIV460      0.2084
     43  O10       12.5180  -24.9340  -12.8640 O.3   460  MIV460     -0.2178
     44  C33       13.8270  -24.8130  -14.9120 C.3   460  MIV460      0.1799
     45  O9        13.0980  -23.6240  -15.3260 O.3   460  MIV460     -0.3482
     46  C34       11.8020  -23.8530  -15.8770 C.3   460  MIV460      0.1742
     47  C31       15.2340  -24.7130  -15.5100 C.3   460  MIV460      0.2009
     48  O8        15.1280  -24.4270  -16.9280 O.3   460  MIV460     -0.3458
     49  C32       14.8060  -25.6130  -17.6280 C.3   460  MIV460      0.1743
@<TRIPOS>BOND
     1    49    48    1
     2    48    47    1
     3    33    34    1
     4    33    32    1
     5    36    37    1
     6    36    35    1
     7    46    45    1
     8    47    44    1
     9    47    38    1
    10    45    44    1
    11    37    38    1
    12    35    32    1
    13    35    30    1
    14    32    31    1
    15    44    42    1
    16    38    39    1
    17    31     2    1
    18    30    29    2
    19    39    40    1
    20    42    43    1
    21    42    40    1
    22    29    28    1
    23     2     1    2
    24     2     3    1
    25    40    41    1
    26     3     4    2
    27    28    27    2
    28    27    25    1
    29     4     5    1
    30     6     5    1
    31     5     7    1
    32    25    26    2
    33    25    23    1
    34    24    23    1
    35    22    23    1
    36    22    20    1
    37    19    18    1
    38     7    20    1
    39     7     8    1
    40    20    21    1
    41     8     9    1
    42    18     9    1
    43    18    14    1
    44     9    10    1
    45    14    15    1
    46    14    13    1
    47    15    16    1
    48    15    17    1
    49    10    11    1
    50    11    13    1
    51    11    12    1
