@<TRIPOS>MOLECULE
2y98_HEM_A_1.pdb
 43 50 0 0 0
SMALL
GASTEIGER

@<TRIPOS>ATOM
      1  CHA       12.9260  -27.5590  -20.0330 C.2   450  HEM450      0.0000
      2  CHB       16.6520  -27.4920  -23.2020 C.2   450  HEM450      0.0000
      3  CHC       15.5490  -22.8480  -24.4010 C.2   450  HEM450      0.0000
      4  CHD       11.9240  -22.8780  -21.2610 C.2   450  HEM450      0.0000
      5  C1A       14.0170  -27.8840  -20.7970 C.ar  450  HEM450      0.0000
      6  C2A       14.6440  -29.1910  -20.8830 C.ar  450  HEM450      0.0000
      7  C3A       15.6590  -29.1900  -21.7210 C.ar  450  HEM450      0.0000
      8  C4A       15.7580  -27.7990  -22.2800 C.ar  450  HEM450      0.0000
      9  CMA       16.7120  -30.3010  -22.1440 C.3   450  HEM450      0.0000
     10  CAA       14.1860  -30.4160  -19.9790 C.3   450  HEM450      0.0000
     11  CBA       15.0490  -30.4660  -18.7340 C.3   450  HEM450      0.0000
     12  CGA       14.7370  -31.7710  -17.9220 C.2   450  HEM450      0.0000
     13  O1A       13.6580  -32.3600  -18.1450 O.co2 450  HEM450      0.0000
     14  O2A       15.5350  -32.0810  -17.0280 O.co2 450  HEM450      0.0000
     15  C1B       16.7490  -26.2050  -23.8200 C.2   450  HEM450      0.0000
     16  C2B       17.7650  -25.7730  -24.7440 C.2   450  HEM450      0.0000
     17  C3B       17.4380  -24.4580  -25.0310 C.2   450  HEM450      0.0000
     18  C4B       16.2490  -24.1150  -24.3280 C.2   450  HEM450      0.0000
     19  CMB       18.9550  -26.5580  -25.3270 C.3   450  HEM450      0.0000
     20  CAB       18.1780  -23.5070  -25.9920 C.2   450  HEM450      0.0000
     21  CBB       19.0460  -23.7830  -26.9490 C.2   450  HEM450      0.0000
     22  C1C       14.4310  -22.5400  -23.7660 C.ar  450  HEM450      0.0000
     23  C2C       13.6810  -21.2860  -23.9280 C.ar  450  HEM450      0.0000
     24  C3C       12.7220  -21.2820  -23.0140 C.ar  450  HEM450      0.0000
     25  C4C       12.7460  -22.5570  -22.2760 C.ar  450  HEM450      0.0000
     26  CMC       14.0710  -20.2380  -25.0300 C.3   450  HEM450      0.0000
     27  CAC       11.6370  -20.1670  -22.7320 C.2   450  HEM450      0.0000
     28  CBC       11.3150  -19.2660  -23.6770 C.2   450  HEM450      0.0000
     29  C1D       11.8840  -24.1080  -20.5980 C.2   450  HEM450      0.0000
     30  C2D       11.0020  -24.3960  -19.4870 C.2   450  HEM450      0.0000
     31  C3D       11.3580  -25.8230  -19.1160 C.2   450  HEM450      0.0000
     32  C4D       12.3730  -26.2360  -20.0380 C.2   450  HEM450      0.0000
     33  CMD        9.9920  -23.5320  -18.7150 C.3   450  HEM450      0.0000
     34  CAD       10.7170  -26.6100  -17.9670 C.3   450  HEM450      0.0000
     35  CBD        9.5530  -27.3730  -18.6300 C.3   450  HEM450      0.0000
     36  CGD        8.8050  -28.2480  -17.5860 C.2   450  HEM450      0.0000
     37  O1D        9.3660  -28.5640  -16.5100 O.co2 450  HEM450      0.0000
     38  O2D        7.5720  -28.5170  -17.8020 O.co2 450  HEM450      0.0000
     39  NA        14.6610  -27.1570  -21.7330 N.ar  450  HEM450      0.0000
     40  NB        15.7920  -25.1910  -23.5340 N.2   450  HEM450      0.0000
     41  NC        13.8290  -23.1530  -22.7630 N.ar  450  HEM450      0.0000
     42  ND        12.7070  -25.1980  -20.9480 N.2   450  HEM450      0.0000
     43 FE         14.2000  -25.2020  -22.2970 Fe    450  HEM450      0.0000
@<TRIPOS>BOND
     1    21    20    2
     2    20    17    1
     3    19    16    1
     4    17    16    2
     5    17    18    1
     6    26    23    1
     7    16    15    1
     8     3    18    2
     9     3    22    1
    10    18    40    1
    11    23    22   ar
    12    23    24   ar
    13    15    40    2
    14    15     2    1
    15    22    41   ar
    16    28    27    2
    17    40    43    1
    18     2     8    2
    19    24    27    1
    20    24    25   ar
    21    41    43    1
    22    41    25   ar
    23    43    39    1
    24    43    42    1
    25     8    39   ar
    26     8     7   ar
    27    25     4    1
    28     9     7    1
    29    39     5   ar
    30     7     6   ar
    31     4    29    2
    32    42    29    1
    33    42    32    2
    34     6     5   ar
    35     6    10    1
    36     5     1    2
    37    29    30    1
    38    32     1    1
    39    32    31    1
    40    10    11    1
    41    30    31    2
    42    30    33    1
    43    31    34    1
    44    11    12    1
    45    35    34    1
    46    35    36    1
    47    13    12   ar
    48    12    14   ar
    49    38    36   ar
    50    36    37   ar
