@<TRIPOS>MOLECULE
2y99_NAD_A_1.pdb
 44 48 0 0 0
SMALL
GASTEIGER

@<TRIPOS>ATOM
      1  PA        25.0490    7.6670   33.7060 P.3   1276  NAD1276     0.2189
      2  O1A       25.9070    7.9400   34.8790 O.3   1276  NAD1276    -0.4371
      3  O2A       25.6030    6.9180   32.5580 O.2   1276  NAD1276    -0.5170
      4  O5B       24.4960    9.0730   33.1430 O.3   1276  NAD1276    -0.3112
      5  C5B       24.1000   10.1270   34.0290 C.3   1276  NAD1276     0.1813
      6  C4B       24.2400   11.5030   33.3590 C.3   1276  NAD1276     0.1821
      7  O4B       23.7400   12.4960   34.2930 O.3   1276  NAD1276    -0.3135
      8  C3B       25.7180   11.8330   33.0980 C.3   1276  NAD1276     0.2184
      9  O3B       25.8810   12.2860   31.7470 O.3   1276  NAD1276    -0.2174
     10  C2B       26.0330   12.9570   34.0790 C.3   1276  NAD1276     0.2570
     11  O2B       26.9420   13.8850   33.4830 O.3   1276  NAD1276    -0.2130
     12  C1B       24.6630   13.6020   34.2860 C.3   1276  NAD1276     0.3186
     13  N9A       24.5870   14.2710   35.6080 N.pl3 1276  NAD1276    -0.1439
     14  C8A       24.7140   13.6820   36.8010 C.3   1276  NAD1276     0.3377
     15  N7A       24.5880   14.5950   37.7640 N.2   1276  NAD1276    -0.2095
     16  C5A       24.3740   15.7690   37.1830 C.2   1276  NAD1276     0.2526
     17  C6A       24.1740   17.0560   37.6650 C.2   1276  NAD1276     0.4393
     18  N6A       24.1680   17.2930   38.9730 N.pl3 1276  NAD1276     0.2180
     19  N1A       23.9800   18.0570   36.7880 N.2   1276  NAD1276     0.0021
     20  C2A       23.9850   17.8310   35.4800 C.3   1276  NAD1276     0.5254
     21  N3A       24.1750   16.6120   34.9890 N.2   1276  NAD1276    -0.0055
     22  C4A       24.3730   15.5670   35.8120 C.2   1276  NAD1276     0.3518
     23  O3        23.6950    6.9400   34.2100 O.3   1276  NAD1276    -0.2703
     24  PN        22.5650    6.4090   33.1710 P.3   1276  NAD1276     0.2189
     25  O1N       22.8830    5.0060   32.8200 O.3   1276  NAD1276    -0.4371
     26  O2N       22.4090    7.4130   32.0950 O.2   1276  NAD1276    -0.5170
     27  O5D       21.2450    6.4150   34.1010 O.3   1276  NAD1276    -0.3112
     28  C5D       20.1400    7.3010   33.8310 C.3   1276  NAD1276     0.1813
     29  C4D       18.9620    7.0290   34.7770 C.3   1276  NAD1276     0.1799
     30  O4D       18.7520    5.5900   34.8850 O.3   1276  NAD1276    -0.3327
     31  C3D       19.3060    7.5300   36.1900 C.3   1276  NAD1276     0.2158
     32  O3D       18.2580    8.3910   36.6610 O.3   1276  NAD1276    -0.2175
     33  C2D       19.3660    6.2490   37.0230 C.3   1276  NAD1276     0.2309
     34  O2D       18.9010    6.4990   38.3520 O.3   1276  NAD1276    -0.2158
     35  C1D       18.3920    5.3440   36.2610 C.3   1276  NAD1276     0.2263
     36  N1N       18.4900    3.8900   36.5910 N.pl3 1276  NAD1276    -0.2787
     37  C2N       19.6630    3.1380   36.3430 C.3   1276  NAD1276     0.1244
     38  C3N       19.7020    1.7770   36.6740 C.2   1276  NAD1276     0.0544
     39  C7N       20.9600    0.9330   36.4200 C.2   1276  NAD1276     0.2818
     40  O7N       20.8970   -0.1260   35.7940 O.2   1276  NAD1276    -0.2670
     41  N7N       22.0890    1.4240   36.9270 N.am  1276  NAD1276    -0.0839
     42  C4N       18.5820    1.1660   37.2400 C.2   1276  NAD1276     0.0033
     43  C5N       17.4240    1.8990   37.4830 C.2   1276  NAD1276     0.0157
     44  C6N       17.3730    3.2540   37.1600 C.2   1276  NAD1276     0.0633
@<TRIPOS>BOND
     1     9     8    1
     2    26    24    2
     3     3     1    2
     4    25    24    1
     5     8     6    1
     6     8    10    1
     7     4     1    1
     8     4     5    1
     9    24    27    1
    10    24    23    1
    11     6     5    1
    12     6     7    1
    13    11    10    1
    14     1    23    1
    15     1     2    1
    16    28    27    1
    17    28    29    1
    18    10    12    1
    19    12     7    1
    20    12    13    1
    21    29    30    1
    22    29    31    1
    23    30    35    1
    24    21    20    1
    25    21    22    2
    26    20    19    1
    27    13    22    1
    28    13    14    1
    29    40    39    2
    30    22    16    1
    31    31    32    1
    32    31    33    1
    33    35    36    1
    34    35    33    1
    35    37    36    1
    36    37    38    1
    37    39    38    1
    38    39    41   am
    39    36    44    1
    40    38    42    2
    41    19    17    2
    42    14    15    1
    43    33    34    1
    44    44    43    2
    45    16    17    1
    46    16    15    2
    47    42    43    1
    48    17    18    1
