@<TRIPOS>MOLECULE
2y9g_LBT_A_1.pdb
 23 24 0 0 0
SMALL
GASTEIGER

@<TRIPOS>ATOM
      1  C1        -0.4550    4.3450   -1.5860 C.3   1150  LBT1150     0.2695
      2  C2        -1.1680    4.8160   -2.8590 C.3   1150  LBT1150     0.2406
      3  C3        -0.2080    4.7700   -4.0440 C.3   1150  LBT1150     0.2198
      4  C4         1.0460    5.5680   -3.6660 C.3   1150  LBT1150     0.2144
      5  C5         1.6850    4.9250   -2.3880 C.3   1150  LBT1150     0.1835
      6  C6         2.9900    5.6410   -1.9340 C.3   1150  LBT1150     0.2142
      7  O1        -1.2810    4.7030   -0.4970 O.3   1150  LBT1150    -0.3257
      8  O2        -2.3480    4.0320   -3.1730 O.3   1150  LBT1150    -0.2149
      9  O3        -0.8830    5.4030   -5.1900 O.3   1150  LBT1150    -0.2174
     10  O4         0.6990    6.9800   -3.3230 O.3   1150  LBT1150    -0.2176
     11  O5         0.6910    5.1610   -1.3660 O.3   1150  LBT1150    -0.3256
     12  O6         4.0620    5.5140   -2.9380 O.3   1150  LBT1150    -0.2176
     13  C1'       -2.1770    3.3660    3.3540 C.3   1150  LBT1150     0.3023
     14  C2'       -1.0020    4.3560    3.2630 C.3   1150  LBT1150     0.2433
     15  C3'       -0.9880    4.9870    1.8910 C.3   1150  LBT1150     0.2168
     16  C4'       -1.0870    3.9770    0.7320 C.3   1150  LBT1150     0.1804
     17  C5'       -2.3030    3.0410    0.9470 C.3   1150  LBT1150     0.1804
     18  C6'       -2.3330    1.8410    0.0260 C.3   1150  LBT1150     0.2141
     19  O1'       -3.4240    4.0130    3.4310 O.3   1150  LBT1150    -0.1869
     20  O2'       -1.1710    5.3890    4.2790 O.3   1150  LBT1150    -0.2148
     21  O3'        0.1480    5.8690    1.8230 O.3   1150  LBT1150    -0.2175
     22  O5'       -2.2200    2.4430    2.3040 O.3   1150  LBT1150    -0.3237
     23  O6'       -1.0100    1.2180   -0.0600 O.3   1150  LBT1150    -0.2176
@<TRIPOS>BOND
     1     9     3    1
     2     3     4    1
     3     3     2    1
     4     4    10    1
     5     4     5    1
     6     8     2    1
     7    12     6    1
     8     2     1    1
     9     5     6    1
    10     5    11    1
    11     1    11    1
    12     1     7    1
    13     7    16    1
    14    23    18    1
    15    18    17    1
    16    16    17    1
    17    16    15    1
    18    17    22    1
    19    21    15    1
    20    15    14    1
    21    22    13    1
    22    14    13    1
    23    14    20    1
    24    13    19    1
