@<TRIPOS>MOLECULE
2y9g_LAT_A_1.pdb
 23 24 0 0 0
SMALL
GASTEIGER

@<TRIPOS>ATOM
      1  C1        -0.4780    4.3620   -1.5610 C.3   1151  LAT1151     0.2695
      2  C2        -1.1860    4.8670   -2.8270 C.3   1151  LAT1151     0.2406
      3  C3        -0.2390    4.7930   -4.0350 C.3   1151  LAT1151     0.2198
      4  C4         1.0620    5.5480   -3.6890 C.3   1151  LAT1151     0.2144
      5  C5         1.6880    4.9120   -2.3900 C.3   1151  LAT1151     0.1835
      6  C6         2.9960    5.6090   -1.9230 C.3   1151  LAT1151     0.2142
      7  O1        -1.3370    4.7060   -0.4890 O.3   1151  LAT1151    -0.3257
      8  O2        -2.3680    4.1040   -3.0970 O.3   1151  LAT1151    -0.2149
      9  O3        -0.9000    5.4290   -5.1910 O.3   1151  LAT1151    -0.2174
     10  O4         0.7580    6.9680   -3.4230 O.3   1151  LAT1151    -0.2176
     11  O5         0.7100    5.1140   -1.3340 O.3   1151  LAT1151    -0.3256
     12  O6         4.0420    5.4940   -2.9420 O.3   1151  LAT1151    -0.2176
     13  C1'       -2.3260    3.4050    3.3570 C.3   1151  LAT1151     0.3023
     14  C2'       -1.1250    4.3800    3.2700 C.3   1151  LAT1151     0.2433
     15  C3'       -1.0430    5.0200    1.8940 C.3   1151  LAT1151     0.2168
     16  C4'       -1.1210    3.9990    0.7340 C.3   1151  LAT1151     0.1804
     17  C5'       -2.3290    3.0410    0.9690 C.3   1151  LAT1151     0.1804
     18  C6'       -2.3880    1.8600    0.0200 C.3   1151  LAT1151     0.2141
     19  O1'       -2.3650    2.6430    4.6110 O.3   1151  LAT1151    -0.1869
     20  O2'       -1.2930    5.4460    4.2210 O.3   1151  LAT1151    -0.2148
     21  O3'        0.1210    5.8770    1.8510 O.3   1151  LAT1151    -0.2175
     22  O5'       -2.2470    2.4420    2.3120 O.3   1151  LAT1151    -0.3237
     23  O6'       -1.1010    1.2280   -0.0350 O.3   1151  LAT1151    -0.2176
@<TRIPOS>BOND
     1     9     3    1
     2     3     4    1
     3     3     2    1
     4     4    10    1
     5     4     5    1
     6     8     2    1
     7    12     6    1
     8     2     1    1
     9     5     6    1
    10     5    11    1
    11     1    11    1
    12     1     7    1
    13     7    16    1
    14    23    18    1
    15    18    17    1
    16    16    17    1
    17    16    15    1
    18    17    22    1
    19    21    15    1
    20    15    14    1
    21    22    13    1
    22    14    13    1
    23    14    20    1
    24    13    19    1
