@<TRIPOS>MOLECULE
2y9q_ANP_A_1.pdb
 31 33 0 0 0
SMALL
GASTEIGER

@<TRIPOS>ATOM
      1  PG        50.5400   26.8750    7.6630 P.3   1359  ANP1359     0.4884
      2  O1G       51.7610   25.9330    7.2740 O.3   1359  ANP1359    -0.1240
      3  O2G       50.8200   28.3150    7.0830 O.2   1359  ANP1359    -0.2331
      4  O3G       49.2180   26.3610    7.1080 O.3   1359  ANP1359    -0.1240
      5  PB        49.7850   27.9390   10.3450 P.3   1359  ANP1359     0.4669
      6  O1B       50.1690   27.4530   11.7850 O.3   1359  ANP1359    -0.1253
      7  O2B       48.2790   28.0560    9.9880 O.2   1359  ANP1359    -0.2351
      8  N3B       50.7000   26.8610    9.3250 N.3   1359  ANP1359    -0.0163
      9  PA        51.7940   30.1050    9.8660 P.3   1359  ANP1359     0.2220
     10  O1A       52.6890   30.1230   11.0670 O.3   1359  ANP1359    -0.4370
     11  O2A       52.4260   29.4650    8.6290 O.2   1359  ANP1359    -0.5170
     12  O3A       50.4020   29.4230   10.2230 O.3   1359  ANP1359    -0.2360
     13  O5'       51.3550   31.5850    9.5290 O.3   1359  ANP1359    -0.3111
     14  C5'       50.4340   31.9000    8.4730 C.3   1359  ANP1359     0.1813
     15  C4'       50.7110   33.1450    7.7460 C.3   1359  ANP1359     0.1821
     16  O4'       50.7210   34.2230    8.6550 O.3   1359  ANP1359    -0.3135
     17  C3'       52.0710   33.1600    7.1460 C.3   1359  ANP1359     0.2184
     18  O3'       52.1220   32.5190    5.8900 O.3   1359  ANP1359    -0.2174
     19  C2'       52.3980   34.5630    7.1030 C.3   1359  ANP1359     0.2570
     20  O2'       51.8200   35.2400    6.0110 O.3   1359  ANP1359    -0.2130
     21  C1'       51.7730   35.1070    8.3120 C.3   1359  ANP1359     0.3186
     22  N9        52.6570   35.2310    9.4940 N.pl3 1359  ANP1359    -0.1439
     23  C8        52.9280   34.2820   10.4140 C.3   1359  ANP1359     0.3377
     24  N7        53.7510   34.7850   11.3450 N.2   1359  ANP1359    -0.2095
     25  C5        53.9930   36.0830   11.0220 C.2   1359  ANP1359     0.2526
     26  C6        54.7480   37.1070   11.5910 C.2   1359  ANP1359     0.4393
     27  N6        55.4920   36.8670   12.7650 N.pl3 1359  ANP1359     0.2180
     28  N1        54.7640   38.3180   11.0150 N.2   1359  ANP1359     0.0021
     29  C2        54.0730   38.5450    9.9000 C.3   1359  ANP1359     0.5254
     30  N3        53.3360   37.5920    9.2980 N.2   1359  ANP1359    -0.0055
     31  C4        53.2950   36.3730    9.8510 C.2   1359  ANP1359     0.3518
@<TRIPOS>BOND
     1    18    17    1
     2    20    19    1
     3     3     1    2
     4    19    17    1
     5    19    21    1
     6     4     1    1
     7    17    15    1
     8     2     1    1
     9     1     8    1
    10    15    14    1
    11    15    16    1
    12    21    16    1
    13    21    22    1
    14    14    13    1
    15    11     9    2
    16    30    31    2
    17    30    29    1
    18     8     5    1
    19    22    31    1
    20    22    23    1
    21    13     9    1
    22    31    25    1
    23     9    12    1
    24     9    10    1
    25    29    28    1
    26     7     5    2
    27    12     5    1
    28     5     6    1
    29    23    24    1
    30    28    26    2
    31    25    24    2
    32    25    26    1
    33    26    27    1
