@<TRIPOS>MOLECULE
2ya1_BGC_A_1.pdb
 12 12 0 0 0
SMALL
GASTEIGER

@<TRIPOS>ATOM
      1  C2       -13.7900    5.4140   24.3830 C.3   2144  BGC2144     0.2434
      2  C3       -14.8620    5.3240   25.4660 C.3   2144  BGC2144     0.2199
      3  C4       -14.3220    5.6670   26.8600 C.3   2144  BGC2144     0.2144
      4  C5       -13.4740    6.9480   26.7910 C.3   2144  BGC2144     0.1836
      5  C6       -12.7260    7.3340   28.0760 C.3   2144  BGC2144     0.2142
      6  C1       -13.1530    6.8000   24.5260 C.3   2144  BGC2144     0.3024
      7  O1       -12.1620    7.1000   23.5760 O.3   2144  BGC2144    -0.1869
      8  O2       -14.3570    5.2500   23.1040 O.3   2144  BGC2144    -0.2148
      9  O3       -15.4370    4.0450   25.5240 O.3   2144  BGC2144    -0.2174
     10  O4       -15.4350    5.8720   27.7100 O.3   2144  BGC2144    -0.2176
     11  O5       -12.5280    6.7940   25.7730 O.3   2144  BGC2144    -0.3236
     12  O6       -11.9260    6.2860   28.5910 O.3   2144  BGC2144    -0.2176
@<TRIPOS>BOND
     1     8     1    1
     2     7     6    1
     3     1     6    1
     4     1     2    1
     5     6    11    1
     6     2     9    1
     7     2     3    1
     8    11     4    1
     9     4     3    1
    10     4     5    1
    11     3    10    1
    12     5    12    1
