@<TRIPOS>MOLECULE
2ya1_GLC_A_1.pdb
 11 11 0 0 0
SMALL
GASTEIGER

@<TRIPOS>ATOM
      1  C1       -15.5050    4.9260   28.7990 C.3   2145  GLC2145     0.1777
      2  C2       -16.9780    4.6820   29.1130 C.3   2145  GLC2145     0.2141
      3  C3       -17.6150    5.9870   29.5920 C.3   2145  GLC2145     0.2173
      4  C4       -16.8420    6.5590   30.7800 C.3   2145  GLC2145     0.2142
      5  C5       -15.3870    6.7170   30.3280 C.3   2145  GLC2145     0.1810
      6  C6       -14.4180    7.4020   31.2950 C.3   2145  GLC2145     0.2141
      7  O2       -17.6690    4.2260   27.9700 O.3   2145  GLC2145    -0.2176
      8  O3       -18.9440    5.7390   29.9390 O.3   2145  GLC2145    -0.2175
      9  O4       -17.3820    7.8210   31.0400 O.3   2145  GLC2145    -0.2176
     10  O5       -14.8690    5.4330   29.9510 O.3   2145  GLC2145    -0.3481
     11  O6       -14.4220    6.7550   32.5380 O.3   2145  GLC2145    -0.2176
@<TRIPOS>BOND
     1     7     2    1
     2     1     2    1
     3     1    10    1
     4     2     3    1
     5     3     8    1
     6     3     4    1
     7    10     5    1
     8     5     4    1
     9     5     6    1
    10     4     9    1
    11     6    11    1
