@<TRIPOS>MOLECULE
2ya2_GLC_A_1.pdb
 11 11 0 0 0
SMALL
GASTEIGER

@<TRIPOS>ATOM
      1  C1        47.2370   21.0600   21.2790 C.3   1690  GLC1690     0.1777
      2  C2        47.7750   22.4620   21.5530 C.3   1690  GLC1690     0.2141
      3  C3        49.0740   22.6580   20.7810 C.3   1690  GLC1690     0.2173
      4  C4        50.0210   21.5370   21.1800 C.3   1690  GLC1690     0.2142
      5  C5        49.4280   20.1920   20.7470 C.3   1690  GLC1690     0.1810
      6  C6        50.3340   18.9640   20.9190 C.3   1690  GLC1690     0.2141
      7  O2        46.8190   23.4050   21.1210 O.3   1690  GLC1690    -0.2176
      8  O3        49.6650   23.9370   20.9830 O.3   1690  GLC1690    -0.2175
      9  O4        51.2130   21.7840   20.4980 O.3   1690  GLC1690    -0.2176
     10  O5        48.2030   20.0300   21.4630 O.3   1690  GLC1690    -0.3481
     11  O6        50.7060   18.8120   22.2700 O.3   1690  GLC1690    -0.2176
@<TRIPOS>BOND
     1     9     4    1
     2     5     6    1
     3     5     4    1
     4     5    10    1
     5     3     8    1
     6     3     4    1
     7     3     2    1
     8     6    11    1
     9     7     2    1
    10     1    10    1
    11     1     2    1
