@<TRIPOS>MOLECULE
2ya2_NOJ_A_1.pdb
 11 11 0 0 0
SMALL
GASTEIGER

@<TRIPOS>ATOM
      1  C1        43.6390   19.8030   17.6200 C.3   1689  NOJ1689     0.1243
      2  C2        43.3980   19.7210   19.1150 C.3   1689  NOJ1689     0.2020
      3  O2        42.1060   20.1680   19.5140 O.3   1689  NOJ1689    -0.2188
      4  C3        44.4710   20.6080   19.7260 C.3   1689  NOJ1689     0.2151
      5  O3        44.2400   20.8400   21.1050 O.3   1689  NOJ1689    -0.2176
      6  C4        45.8310   19.9600   19.5140 C.3   1689  NOJ1689     0.2031
      7  O4        46.8030   20.9210   19.9200 O.3   1689  NOJ1689    -0.2187
      8  C5        46.0690   19.6010   18.0270 C.3   1689  NOJ1689     0.1386
      9  N5        44.8630   18.9820   17.4020 N.3   1689  NOJ1689    -0.2113
     10  C6        47.2570   18.6630   17.8630 C.3   1689  NOJ1689     0.2020
     11  O6        46.9260   17.3840   18.4260 O.3   1689  NOJ1689    -0.2188
@<TRIPOS>BOND
     1     9     1    1
     2     9     8    1
     3     1     2    1
     4    10     8    1
     5    10    11    1
     6     8     6    1
     7     2     3    1
     8     2     4    1
     9     6     4    1
    10     6     7    1
    11     4     5    1
