@<TRIPOS>MOLECULE
2ya3_AMP_E_1.pdb
 23 25 0 0 0
SMALL
GASTEIGER

@<TRIPOS>ATOM
      1  P          0.6490   13.8620   19.1170 P.3   1327  AMP1327     0.5327
      2  O1P        1.9900   13.3000   19.5320 O.3   1327  AMP1327    -0.1145
      3  O2P        0.1430   13.2060   17.8580 O.2   1327  AMP1327    -0.2224
      4  O3P       -0.3660   14.0450   20.2190 O.3   1327  AMP1327    -0.1145
      5  O5'        0.9800   15.3760   18.7010 O.3   1327  AMP1327    -0.2675
      6  C5'        1.0830   16.4410   19.6530 C.3   1327  AMP1327     0.1860
      7  C4'        1.3220   17.7550   18.9020 C.3   1327  AMP1327     0.1823
      8  O4'        2.4380   17.6110   18.0170 O.3   1327  AMP1327    -0.3135
      9  C3'        0.1530   18.1410   18.0160 C.3   1327  AMP1327     0.2184
     10  O3'        0.1050   19.5660   17.9570 O.3   1327  AMP1327    -0.2174
     11  C2'        0.5180   17.5800   16.6570 C.3   1327  AMP1327     0.2570
     12  O2'       -0.0720   18.2630   15.5490 O.3   1327  AMP1327    -0.2130
     13  C1'        2.0270   17.7060   16.6480 C.3   1327  AMP1327     0.3186
     14  N9         2.6190   16.6210   15.8310 N.pl3 1327  AMP1327    -0.1439
     15  C8         2.2160   15.3350   15.7750 C.3   1327  AMP1327     0.3377
     16  N7         2.9780   14.6220   14.9080 N.2   1327  AMP1327    -0.2095
     17  C5         3.8900   15.4660   14.3910 C.2   1327  AMP1327     0.2526
     18  C6         5.0130   15.3750   13.4310 C.2   1327  AMP1327     0.4393
     19  N6         5.3180   14.2080   12.8180 N.pl3 1327  AMP1327     0.2180
     20  N1         5.7200   16.5000   13.1800 N.2   1327  AMP1327     0.0021
     21  C2         5.4370   17.6760   13.7720 C.3   1327  AMP1327     0.5254
     22  N3         4.4380   17.8240   14.6610 N.2   1327  AMP1327    -0.0055
     23  C4         3.6470   16.7810   15.0030 C.2   1327  AMP1327     0.3518
@<TRIPOS>BOND
     1    19    18    1
     2    20    18    2
     3    20    21    1
     4    18    17    1
     5    21    22    1
     6    17    16    2
     7    17    23    1
     8    22    23    2
     9    16    15    1
    10    23    14    1
    11    12    11    1
    12    15    14    1
    13    14    13    1
    14    13    11    1
    15    13     8    1
    16    11     9    1
    17     3     1    2
    18    10     9    1
    19     9     7    1
    20     8     7    1
    21     5     1    1
    22     5     6    1
    23     7     6    1
    24     1     2    1
    25     1     4    1
