@<TRIPOS>MOLECULE
2ya3_J7V_E_1.pdb
 45 49 0 0 0
SMALL
GASTEIGER

@<TRIPOS>ATOM
      1  PBR        2.4520    7.7430   25.2850 P.3   1325  J7V1325     0.5373
      2  OAI        3.9170    7.4340   25.3990 O.3   1325  J7V1325    -0.1143
      3  OAF        1.5680    6.5280   25.4540 O.3   1325  J7V1325    -0.1143
      4  OAJ        2.0480    8.6660   24.1620 O.2   1325  J7V1325    -0.2221
      5  PBS        2.5290   10.0420   27.0360 P.3   1325  J7V1325     0.2231
      6  OAK        1.5140   10.4230   28.0750 O.3   1325  J7V1325    -0.4370
      7  OAG        2.7370   10.9780   25.8790 O.2   1325  J7V1325    -0.5169
      8  OBA        2.0970    8.5590   26.6140 O.3   1325  J7V1325    -0.2261
      9  OAY        3.9390    9.8360   27.7590 O.3   1325  J7V1325    -0.3111
     10  CAT        4.7660   10.9830   27.9660 C.3   1325  J7V1325     0.1805
     11  CBM        5.6330   10.8410   29.2130 C.3   1325  J7V1325     0.1717
     12  OAZ        4.9390   11.2640   30.3910 O.3   1325  J7V1325    -0.3144
     13  CBN        6.1380    9.4210   29.4610 C.3   1325  J7V1325     0.1623
     14  CBL        5.4560    8.9640   30.7490 C.3   1325  J7V1325     0.2466
     15  OAH        6.3260    8.2130   31.6100 O.3   1325  J7V1325    -0.2139
     16  CBO        4.8960   10.2360   31.3870 C.3   1325  J7V1325     0.3177
     17  N9         3.4720   10.1400   31.8120 N.pl3 1325  J7V1325    -0.1439
     18  C8         2.4560    9.6400   31.0910 C.3   1325  J7V1325     0.3377
     19  N7         1.3130    9.7470   31.8010 N.2   1325  J7V1325    -0.2095
     20  C5         1.6200   10.3240   32.9790 C.2   1325  J7V1325     0.2526
     21  C6         0.8720   10.6750   34.1010 C.2   1325  J7V1325     0.4393
     22  N6        -0.4600   10.4460   34.1380 N.pl3 1325  J7V1325     0.2180
     23  N1         1.4920   11.2550   35.1580 N.2   1325  J7V1325     0.0021
     24  C2         2.8140   11.4930   35.1320 C.3   1325  J7V1325     0.5254
     25  N3         3.5550   11.1630   34.0630 N.2   1325  J7V1325    -0.0055
     26  C4         2.9820   10.5760   32.9770 C.2   1325  J7V1325     0.3518
     27  CAA       17.1980    9.5510   29.3290 C.3   1325  J7V1325     0.0232
     28  CAB       17.1270   13.9310   29.2350 C.3   1325  J7V1325     0.0232
     29  OAD        7.8770   11.1050   31.2290 O.2   1325  J7V1325    -0.2681
     30  OAE        9.8400    8.6220   28.6880 O.2   1325  J7V1325    -0.2443
     31  CAM       14.1050   12.6610   30.6880 C.ar  1325  J7V1325     0.0147
     32  CAN       12.7340   12.6000   30.9710 C.ar  1325  J7V1325     0.0043
     33  CAP       13.9040   10.7160   29.2850 C.ar  1325  J7V1325     0.0521
     34  CAQ       10.5790   11.4970   30.6610 C.ar  1325  J7V1325     0.0141
     35  CAR       16.6430   10.7580   28.5940 C.3   1325  J7V1325     0.0908
     36  CAS       16.9870   12.7190   30.1340 C.3   1325  J7V1325     0.0908
     37  NAX        7.5940    9.6270   29.5300 N.am  1325  J7V1325    -0.1978
     38  OBB       11.7980    9.6590   29.0030 O.2   1325  J7V1325    -0.4209
     39  CBC        8.3390   10.4040   30.3410 C.2   1325  J7V1325     0.2712
     40  CBE       14.7040   11.7160   29.8390 C.ar  1325  J7V1325     0.0509
     41  CBF        9.8250   10.4650   30.0910 C.ar  1325  J7V1325     0.1309
     42  CBG       10.4560    9.5610   29.2400 C.ar  1325  J7V1325     0.3502
     43  CBH       11.9480   11.5890   30.4080 C.ar  1325  J7V1325     0.0351
     44  CBI       12.5450   10.6530   29.5670 C.ar  1325  J7V1325     0.1499
     45  NBP       16.0860   11.7350   29.5310 N.pl3 1325  J7V1325    -0.3074
@<TRIPOS>BOND
     1     4     1    2
     2     1     2    1
     3     1     3    1
     4     1     8    1
     5     7     5    2
     6     8     5    1
     7     5     9    1
     8     5     6    1
     9     9    10    1
    10    10    11    1
    11    35    27    1
    12    35    45    1
    13    30    42    2
    14    38    42   ar
    15    38    44   ar
    16    11    13    1
    17    11    12    1
    18    28    36    1
    19    42    41   ar
    20    33    44   ar
    21    33    40   ar
    22    13    37    1
    23    13    14    1
    24    37    39   am
    25    45    40    1
    26    45    36    1
    27    44    43   ar
    28    40    31   ar
    29    41    39    1
    30    41    34   ar
    31    39    29    2
    32    12    16    1
    33    43    34   ar
    34    43    32   ar
    35    31    32   ar
    36    14    16    1
    37    14    15    1
    38    18    19    1
    39    18    17    1
    40    16    17    1
    41    19    20    2
    42    17    26    1
    43    26    20    1
    44    26    25    2
    45    20    21    1
    46    25    24    1
    47    21    22    1
    48    21    23    2
    49    24    23    1
