@<TRIPOS>MOLECULE
2ya5_SIA_A_1.pdb
 21 21 0 0 0
SMALL
GASTEIGER

@<TRIPOS>ATOM
      1  C1        14.6930  -20.0600   44.6350 C.2   1778  SIA1778     0.4179
      2  C2        14.9550  -19.9120   43.1450 C.3   1778  SIA1778     0.3155
      3  C3        13.7210  -19.4010   42.3520 C.3   1778  SIA1778     0.1056
      4  C4        14.0170  -18.3000   41.3000 C.3   1778  SIA1778     0.1798
      5  C5        15.3650  -18.5450   40.6490 C.3   1778  SIA1778     0.1554
      6  C6        16.4370  -18.4000   41.7420 C.3   1778  SIA1778     0.1734
      7  C7        17.8390  -18.8210   41.3120 C.3   1778  SIA1778     0.2135
      8  C8        18.8480  -18.6320   42.4600 C.3   1778  SIA1778     0.2173
      9  C9        20.2510  -19.0190   42.0160 C.3   1778  SIA1778     0.2175
     10  C10       16.1850  -18.2390   38.3610 C.2   1778  SIA1778     0.2420
     11  C11       16.3640  -17.3350   37.1680 C.3   1778  SIA1778     0.0964
     12  N5        15.5810  -17.7230   39.4380 N.am  1778  SIA1778    -0.2020
     13  O1A       13.5730  -20.4510   45.0300 O.co2 1778  SIA1778    -0.2401
     14  O1B       15.6200  -19.8120   45.4510 O.co2 1778  SIA1778    -0.2401
     15  O2        15.3120  -21.2450   42.7450 O.3   1778  SIA1778    -0.1830
     16  O4        13.0100  -18.2150   40.2800 O.3   1778  SIA1778    -0.2210
     17  O6        16.1120  -19.0670   42.9910 O.3   1778  SIA1778    -0.3220
     18  O7        17.8220  -20.1730   40.8100 O.3   1778  SIA1778    -0.2176
     19  O8        18.8370  -17.2610   42.9300 O.3   1778  SIA1778    -0.2175
     20  O9        21.1760  -18.8060   43.0860 O.3   1778  SIA1778    -0.2175
     21  O10       16.6070  -19.3910   38.3240 O.2   1778  SIA1778    -0.2733
@<TRIPOS>BOND
     1    11    10    1
     2    21    10    2
     3    10    12   am
     4    12     5    1
     5    16     4    1
     6     5     4    1
     7     5     6    1
     8    18     7    1
     9     4     3    1
    10     7     6    1
    11     7     8    1
    12     6    17    1
    13     9     8    1
    14     9    20    1
    15     3     2    1
    16     8    19    1
    17    15     2    1
    18    17     2    1
    19     2     1    1
    20     1    13   ar
    21     1    14   ar
