@<TRIPOS>MOLECULE
2ya6_DAN_A_1.pdb
 20 20 0 0 0
SMALL
GASTEIGER

@<TRIPOS>ATOM
      1  C1        14.7300  -20.0150   45.0510 C.2   1777  DAN1777     0.4208
      2  C2        14.8800  -19.3650   43.6560 C.2   1777  DAN1777     0.2163
      3  C3        13.7730  -18.9950   42.8870 C.2   1777  DAN1777     0.0518
      4  C4        13.9910  -18.3190   41.5050 C.3   1777  DAN1777     0.2007
      5  C5        15.3440  -18.7190   40.9140 C.3   1777  DAN1777     0.1722
      6  C6        16.4470  -18.4740   41.9720 C.3   1777  DAN1777     0.2215
      7  C7        17.8730  -18.8580   41.5400 C.3   1777  DAN1777     0.2261
      8  C8        18.9180  -18.7430   42.6540 C.3   1777  DAN1777     0.2185
      9  C9        20.2950  -19.1650   42.1230 C.3   1777  DAN1777     0.2175
     10  C10       16.2050  -18.4270   38.6370 C.2   1777  DAN1777     0.2420
     11  C11       16.3490  -17.4660   37.4380 C.3   1777  DAN1777     0.0964
     12  N5        15.5830  -17.9210   39.6870 N.am  1777  DAN1777    -0.2004
     13  O1A       13.5970  -20.2510   45.5230 O.co2 1777  DAN1777    -0.2371
     14  O1B       15.7900  -20.2480   45.6440 O.co2 1777  DAN1777    -0.2371
     15  O4        12.8860  -18.5430   40.6180 O.3   1777  DAN1777    -0.2162
     16  O6        16.1630  -19.1910   43.2170 O.2   1777  DAN1777    -0.4684
     17  O7        17.8740  -20.1850   41.0540 O.3   1777  DAN1777    -0.2164
     18  O8        18.9640  -17.3940   43.1280 O.3   1777  DAN1777    -0.2174
     19  O9        21.2820  -19.0410   43.1470 O.3   1777  DAN1777    -0.2175
     20  O10       16.6830  -19.5700   38.6050 O.2   1777  DAN1777    -0.2733
@<TRIPOS>BOND
     1    11    10    1
     2    20    10    2
     3    10    12   am
     4    12     5    1
     5    15     4    1
     6     5     4    1
     7     5     6    1
     8    17     7    1
     9     4     3    1
    10     7     6    1
    11     7     8    1
    12     6    16    1
    13     9     8    1
    14     9    19    1
    15     8    18    1
    16     3     2    2
    17    16     2    1
    18     2     1    1
    19     1    13   ar
    20     1    14   ar
