@<TRIPOS>MOLECULE
2ya7_ZMR_A_1.pdb
 23 23 0 0 0
SMALL
GASTEIGER

@<TRIPOS>ATOM
      1  C1        20.2480  -30.4970   15.6440 C.2   1776  ZMR1776     0.4208
      2  O1A       20.3370  -31.5390   14.9830 O.co2 1776  ZMR1776    -0.2371
      3  O1B       20.4640  -29.3550   15.2030 O.co2 1776  ZMR1776    -0.2371
      4  C2        19.8220  -30.6580   17.0990 C.2   1776  ZMR1776     0.2172
      5  C3        19.6530  -29.5290   17.8940 C.2   1776  ZMR1776     0.0619
      6  C4        19.2710  -29.5820   19.3860 C.3   1776  ZMR1776     0.2297
      7  C5        19.3310  -31.0240   19.9230 C.3   1776  ZMR1776     0.1816
      8  N5        18.5020  -31.2130   21.1440 N.am  1776  ZMR1776    -0.1994
      9  C10       19.0090  -31.8720   22.1810 C.2   1776  ZMR1776     0.2420
     10  O10       20.1490  -32.3540   22.2010 O.2   1776  ZMR1776    -0.2733
     11  C11       18.0620  -32.0400   23.3790 C.3   1776  ZMR1776     0.0964
     12  C6        18.9340  -32.0700   18.8450 C.3   1776  ZMR1776     0.2224
     13  O6        19.6430  -31.9260   17.5500 O.2   1776  ZMR1776    -0.4683
     14  C7        19.2060  -33.5350   19.2550 C.3   1776  ZMR1776     0.2262
     15  O7        20.5830  -33.6650   19.6910 O.3   1776  ZMR1776    -0.2164
     16  C8        18.9410  -34.5370   18.1240 C.3   1776  ZMR1776     0.2185
     17  O8        17.5750  -34.4800   17.6650 O.3   1776  ZMR1776    -0.2174
     18  C9        19.3030  -35.9580   18.5720 C.3   1776  ZMR1776     0.2175
     19  O9        19.1560  -36.8640   17.4840 O.3   1776  ZMR1776    -0.2175
     20  NE        20.3610  -28.8070   19.9730 N.pl3 1776  ZMR1776    -0.0835
     21  CZ        20.2420  -27.7630   20.7600 C.cat 1776  ZMR1776     0.5348
     22  NH1       19.0550  -27.3360   21.1300 N.pl3 1776  ZMR1776     0.1354
     23  NH2       21.3580  -27.1620   21.2010 N.pl3 1776  ZMR1776     0.1354
@<TRIPOS>BOND
     1     2     1   ar
     2     3     1   ar
     3     1     4    1
     4     4    13    1
     5     4     5    2
     6    19    18    1
     7    13    12    1
     8    17    16    1
     9     5     6    1
    10    16    18    1
    11    16    14    1
    12    12    14    1
    13    12     7    1
    14    14    15    1
    15     6     7    1
    16     6    20    1
    17     7     8    1
    18    20    21    2
    19    21    22    1
    20    21    23    1
    21     8     9   am
    22     9    10    2
    23     9    11    1
