@<TRIPOS>MOLECULE
2ya8_G39_A_1.pdb
 20 20 0 0 0
SMALL
GASTEIGER

@<TRIPOS>ATOM
      1  C1        15.2630  -20.2890   44.7640 C.2   1777  G391777     0.3837
      2  O1A       16.1740  -20.3740   45.6350 O.co2 1777  G391777    -0.2409
      3  O1B       14.0770  -20.5560   45.0390 O.co2 1777  G391777    -0.2409
      4  C2        15.5900  -19.8430   43.4040 C.2   1777  G391777     0.0571
      5  C3        14.4990  -19.4280   42.4410 C.3   1777  G391777     0.0537
      6  C4        15.0740  -18.4510   41.4040 C.3   1777  G391777     0.1190
      7  C5        16.2840  -19.0580   40.7210 C.3   1777  G391777     0.1443
      8  N5        16.7490  -18.2400   39.5950 N.am  1777  G391777    -0.2028
      9  C10       17.0470  -18.7480   38.3960 C.2   1777  G391777     0.2419
     10  O10       16.8220  -19.9060   38.0580 O.2   1777  G391777    -0.2733
     11  C11       17.6810  -17.7630   37.4570 C.3   1777  G391777     0.0964
     12  C6        17.3970  -19.1960   41.7500 C.3   1777  G391777     0.1582
     13  C7        16.8890  -19.8220   43.0400 C.2   1777  G391777     0.0069
     14  O7        18.3540  -20.0790   41.1950 O.3   1777  G391777    -0.3525
     15  C8        19.6620  -19.9490   41.7720 C.3   1777  G391777     0.1156
     16  C9        20.4740  -18.8620   41.0620 C.3   1777  G391777     0.0296
     17  C81       20.3640  -21.3120   41.6530 C.3   1777  G391777     0.0296
     18  C82       19.8920  -22.2330   42.7550 C.3   1777  G391777     0.0026
     19  C91       20.4130  -18.9930   39.5630 C.3   1777  G391777     0.0026
     20  N4        14.0470  -18.1000   40.4400 N.3   1777  G391777    -0.1306
@<TRIPOS>BOND
     1    11     9    1
     2    10     9    2
     3     9     8   am
     4    19    16    1
     5     8     7    1
     6    20     6    1
     7     7     6    1
     8     7    12    1
     9    16    15    1
    10    14    12    1
    11    14    15    1
    12     6     5    1
    13    17    15    1
    14    17    18    1
    15    12    13    1
    16     5     4    1
    17    13     4    2
    18     4     1    1
    19     1     3   ar
    20     1     2   ar
