@<TRIPOS>MOLECULE
2yaa_ATP_A_1.pdb
 31 33 0 0 0
SMALL
GASTEIGER

@<TRIPOS>ATOM
      1  PG       -25.1430   -4.0920  -34.3650 P.3   1302  ATP1302     0.5373
      2  O1G      -25.1500   -2.7230  -33.7190 O.3   1302  ATP1302    -0.1143
      3  O2G      -26.0400   -4.2290  -35.5760 O.2   1302  ATP1302    -0.2221
      4  O3G      -25.2080   -5.2400  -33.3800 O.3   1302  ATP1302    -0.1143
      5  PB       -22.7850   -5.4740  -34.5950 P.3   1302  ATP1302     0.2277
      6  O1B      -21.4500   -5.3440  -35.2880 O.2   1302  ATP1302    -0.5168
      7  O2B      -23.6170   -6.7220  -34.7750 O.3   1302  ATP1302    -0.4368
      8  O3B      -23.6630   -4.1900  -34.9790 O.3   1302  ATP1302    -0.2258
      9  PA       -22.3880   -6.2600  -31.8860 P.3   1302  ATP1302     0.2189
     10  O1A      -22.5070   -7.6430  -32.4780 O.2   1302  ATP1302    -0.5170
     11  O2A      -21.1690   -5.8600  -31.0920 O.3   1302  ATP1302    -0.4371
     12  O3A      -22.6230   -5.1470  -33.0240 O.3   1302  ATP1302    -0.2700
     13  O5'      -23.6920   -6.0850  -30.9670 O.3   1302  ATP1302    -0.3112
     14  C5'      -23.7090   -6.6350  -29.6570 C.3   1302  ATP1302     0.1813
     15  C4'      -24.6240   -7.8490  -29.5780 C.3   1302  ATP1302     0.1821
     16  O4'      -23.8390   -9.0360  -29.7400 O.3   1302  ATP1302    -0.3135
     17  C3'      -25.2670   -7.9140  -28.2050 C.3   1302  ATP1302     0.2184
     18  O3'      -26.6950   -7.8900  -28.3140 O.3   1302  ATP1302    -0.2174
     19  C2'      -24.7830   -9.2080  -27.5770 C.3   1302  ATP1302     0.2570
     20  O2'      -25.8750  -10.1210  -27.4530 O.3   1302  ATP1302    -0.2130
     21  C1'      -23.7240   -9.7650  -28.5140 C.3   1302  ATP1302     0.3186
     22  N9       -22.3910   -9.4610  -27.9250 N.pl3 1302  ATP1302    -0.1439
     23  C8       -21.5570   -8.4960  -28.3630 C.3   1302  ATP1302     0.3377
     24  N7       -20.4200   -8.4440  -27.6300 N.2   1302  ATP1302    -0.2095
     25  C5       -20.5120   -9.4040  -26.6900 C.2   1302  ATP1302     0.2526
     26  C6       -19.6540   -9.9000  -25.5890 C.2   1302  ATP1302     0.4393
     27  N6       -18.4480   -9.3370  -25.3470 N.pl3 1302  ATP1302     0.2180
     28  N1       -20.1060  -10.9250  -24.8390 N.2   1302  ATP1302     0.0021
     29  C2       -21.3020  -11.4880  -25.0740 C.3   1302  ATP1302     0.5254
     30  N3       -22.1320  -11.0900  -26.0560 N.2   1302  ATP1302    -0.0055
     31  C4       -21.8070  -10.0720  -26.8860 C.2   1302  ATP1302     0.3518
@<TRIPOS>BOND
     1     3     1    2
     2     6     5    2
     3     8     5    1
     4     8     1    1
     5     7     5    1
     6     5    12    1
     7     1     2    1
     8     1     4    1
     9    12     9    1
    10    10     9    2
    11     9    11    1
    12     9    13    1
    13    13    14    1
    14    16    15    1
    15    16    21    1
    16    14    15    1
    17    15    17    1
    18    21    22    1
    19    21    19    1
    20    23    22    1
    21    23    24    1
    22    18    17    1
    23    17    19    1
    24    22    31    1
    25    24    25    2
    26    19    20    1
    27    31    25    1
    28    31    30    2
    29    25    26    1
    30    30    29    1
    31    26    27    1
    32    26    28    2
    33    29    28    1
