@<TRIPOS>MOLECULE
2yab_AMP_A_1.pdb
 26 28 0 0 0
SMALL
GASTEIGER

@<TRIPOS>ATOM
      1  P        -22.3360   -6.1790  -31.7100 P.3   1302  AMP1302     0.5327
      2  O1P      -23.5290   -5.3230  -31.3830 O.3   1302  AMP1302    -0.1145
      3  O2P      -22.3480   -6.4370  -33.2000 O.2   1302  AMP1302    -0.2224
      4  O3P      -21.0650   -5.6430  -31.0950 O.3   1302  AMP1302    -0.1145
      5  O5'      -22.7730   -7.5000  -30.9430 O.3   1302  AMP1302    -0.2675
      6  C5'      -24.0040   -8.1400  -31.2280 C.3   1302  AMP1302     0.1859
      7  C4'      -24.5580   -8.7980  -29.9970 C.3   1302  AMP1302     0.1801
      8  O4'      -23.6260   -9.8080  -29.5220 O.3   1302  AMP1302    -0.3326
      9  C3'      -24.7640   -7.8820  -28.8070 C.3   1302  AMP1302     0.2158
     10  O3'      -25.9950   -7.1760  -28.8650 O.3   1302  AMP1302    -0.2175
     11  C2'      -24.6570   -8.8350  -27.6230 C.3   1302  AMP1302     0.2310
     12  O2'      -25.8690   -9.5470  -27.4390 O.3   1302  AMP1302    -0.2158
     13  C1'      -23.5940   -9.8150  -28.1170 C.3   1302  AMP1302     0.2293
     14  N9       -22.2470   -9.4090  -27.6890 N.pl3 1302  AMP1302    -0.2360
     15  C8       -21.4980   -8.4480  -28.2720 C.3   1302  AMP1302     0.2238
     16  N7       -20.3100   -8.2960  -27.6290 N.2   1302  AMP1302    -0.2402
     17  C5       -20.3180   -9.1750  -26.6020 C.2   1302  AMP1302     0.1670
     18  C6       -19.3840   -9.5580  -25.5280 C.2   1302  AMP1302     0.2102
     19  N6       -18.1910   -8.9380  -25.4200 N.pl3 1302  AMP1302    -0.3309
     20  N1       -19.7670  -10.5230  -24.6630 N.2   1302  AMP1302    -0.3307
     21  C2       -20.9530  -11.1440  -24.7580 C.1   1302  AMP1302     0.0929
     22  N3       -21.8450  -10.8570  -25.7170 N.2   1302  AMP1302    -0.3302
     23  C4       -21.5960   -9.8960  -26.6400 C.2   1302  AMP1302     0.2195
     24 HN61      -17.5530   -9.1950  -24.6800 H     1302  AMP1302     0.1447
     25 HN62      -17.9340   -8.2180  -26.0800 H     1302  AMP1302     0.1447
     26  H2       -21.1970  -11.9120  -24.0350 H     1302  AMP1302     0.1751
@<TRIPOS>BOND
     1     3     1    2
     2     1     2    1
     3     1     4    1
     4     1     5    1
     5     6     5    1
     6     6     7    1
     7     7     8    1
     8     7     9    1
     9     8    13    1
    10    10     9    1
    11     9    11    1
    12    15    14    1
    13    15    16    1
    14    13    14    1
    15    13    11    1
    16    14    23    1
    17    16    17    2
    18    11    12    1
    19    23    17    1
    20    23    22    2
    21    17    18    1
    22    25    19    1
    23    22    21    2
    24    18    19    1
    25    18    20    2
    26    19    24    1
    27    21    20    2
    28    21    26    1
