@<TRIPOS>MOLECULE
2yac_937_A_1.pdb
 38 42 0 0 0
SMALL
GASTEIGER

@<TRIPOS>ATOM
      1  N1       -43.9590   14.9870    8.0220 N.2   501  937501     -0.1687
      2  C2       -44.1700   13.7410    8.2110 C.1   501  937501      0.1698
      3  N3       -43.8090   13.1160    9.4240 N.2   501  937501     -0.3349
      4  C4       -43.3490   15.7750    9.0310 C.2   501  937501      0.1101
      5  C5       -42.9920   15.1850   10.1930 C.2   501  937501      0.0301
      6  C6       -43.2490   13.7560   10.3590 C.2   501  937501      0.1585
      7  C7       -41.4050   15.0950   12.2490 C.3   501  937501      0.0345
      8  C8       -42.3310   15.9770   11.3250 C.3   501  937501      0.0354
      9  C9       -41.8610   13.6450   12.3550 C.ar  501  937501      0.0219
     10  C10      -42.7240   13.0810   11.5410 C.ar  501  937501      0.1057
     11  N11      -42.9140   11.7630   11.9770 N.ar  501  937501     -0.2459
     12  N12      -42.1370   11.5430   13.0760 N.ar  501  937501     -0.1647
     13  C13      -41.4880   12.6220   13.3350 C.ar  501  937501      0.1548
     14  N14      -44.7020   12.9080    7.2190 N.pl3 501  937501     -0.1326
     15  C15      -40.5100   12.7420   14.4540 C.2   501  937501      0.3033
     16  O16      -39.9820   13.8150   14.7380 O.2   501  937501     -0.2649
     17  C17      -45.1030   11.5140    7.2840 C.ar  501  937501      0.1179
     18  C18      -44.1950   10.5900    7.7200 C.ar  501  937501      0.0349
     19  C19      -44.5610    9.1340    7.7980 C.ar  501  937501      0.0495
     20  C20      -45.8160    8.7490    7.4230 C.ar  501  937501      0.0177
     21  C21      -46.7930    9.7320    6.9560 C.ar  501  937501      0.0398
     22  C22      -46.4740   11.0500    6.8830 C.ar  501  937501      0.1628
     23  O23      -47.3900   12.0330    6.4380 O.3   501  937501     -0.4031
     24  C24      -47.8580   11.9640    5.0760 C.3   501  937501      0.5753
     25  F25      -48.8650   11.0480    4.9920 F     501  937501     -0.1328
     26  F26      -48.3360   13.2050    4.6730 F     501  937501     -0.1328
     27  F27      -46.8640   11.5500    4.2000 F     501  937501     -0.1328
     28  N28      -40.1710   11.6040   15.1920 N.am  501  937501     -0.0823
     29  C29      -43.7590   10.7660   11.3500 C.3   501  937501      0.1630
     30  C30      -44.4220    9.8750   12.4020 C.3   501  937501      0.2083
     31  O31      -43.6500    8.6770   12.5050 O.3   501  937501     -0.2182
     32  N32      -43.6220    8.1500    8.2490 N.pl3 501  937501     -0.3046
     33  C33      -44.1240    6.9210    8.9200 C.3   501  937501      0.1081
     34  C34      -43.0780    6.2140    9.8120 C.3   501  937501      0.0938
     35  N35      -41.7160    6.2730    9.2270 N.3   501  937501     -0.2686
     36  C36      -41.3080    7.6880    9.0880 C.3   501  937501      0.0938
     37  C37      -42.1850    8.3700    8.0100 C.3   501  937501      0.1081
     38  C38      -40.7770    5.5980   10.1270 C.3   501  937501      0.0897
@<TRIPOS>BOND
     1    27    24    1
     2    26    24    1
     3    25    24    1
     4    24    23    1
     5    23    22    1
     6    22    21   ar
     7    22    17   ar
     8    21    20   ar
     9    14    17    1
    10    14     2    1
    11    17    18   ar
    12    20    19   ar
    13    18    19   ar
    14    19    32    1
    15    37    32    1
    16    37    36    1
    17     1     2    2
    18     1     4    1
    19     2     3    2
    20    32    33    1
    21    33    34    1
    22     4     5    2
    23    36    35    1
    24    35    34    1
    25    35    38    1
    26     3     6    2
    27     5     6    1
    28     5     8    1
    29     6    10    1
    30     8     7    1
    31    29    11    1
    32    29    30    1
    33    10    11   ar
    34    10     9   ar
    35    11    12   ar
    36     7     9    1
    37     9    13   ar
    38    30    31    1
    39    12    13   ar
    40    13    15    1
    41    15    16    2
    42    15    28   am
