@<TRIPOS>MOLECULE
2yaj_4HP_A_1.pdb
 19 19 0 0 0
SMALL
GASTEIGER

@<TRIPOS>ATOM
      1  C8        25.0520   71.1360   45.0500 C.2   1898  4HP1898     0.3091
      2  O1        23.9270   70.9270   44.5710 O.3   1898  4HP1898    -0.4804
      3  O2        25.9570   71.7860   44.4320 O.2   1898  4HP1898    -0.2507
      4  C7        25.2690   70.7450   46.4690 C.3   1898  4HP1898     0.0699
      5  C1        24.9270   71.8590   47.3820 C.ar  1898  4HP1898    -0.0365
      6  C2        25.9100   72.6660   47.9560 C.ar  1898  4HP1898    -0.0546
      7  C3        25.5010   73.7930   48.7130 C.ar  1898  4HP1898    -0.0199
      8  C4        24.1210   74.0740   48.8880 C.ar  1898  4HP1898     0.1169
      9  C5        23.1760   73.2400   48.3110 C.ar  1898  4HP1898    -0.0199
     10  C6        23.5790   72.1320   47.5580 C.ar  1898  4HP1898    -0.0546
     11  O4        23.7060   75.2310   49.5590 O.3   1898  4HP1898    -0.5068
     12  HO2       23.9050   71.2130   43.7310 H     1898  4HP1898     0.2951
     13  H71       24.7320   69.9610   46.6730 H     1898  4HP1898     0.0426
     14  H72       26.2100   70.5300   46.5830 H     1898  4HP1898     0.0426
     15  H2        26.8520   72.4740   47.8210 H     1898  4HP1898     0.0622
     16  H3        26.1670   74.3720   49.1160 H     1898  4HP1898     0.0654
     17  H5        22.2310   73.4300   48.4220 H     1898  4HP1898     0.0654
     18  H6        22.9130   71.5590   47.1460 H     1898  4HP1898     0.0622
     19  HO4       23.6530   75.0660   50.4290 H     1898  4HP1898     0.2921
@<TRIPOS>BOND
     1    12     2    1
     2     3     1    2
     3     2     1    1
     4     1     4    1
     5     4    14    1
     6     4    13    1
     7     4     5    1
     8    18    10    1
     9     5    10   ar
    10     5     6   ar
    11    10     9   ar
    12    15     6    1
    13     6     7   ar
    14     9    17    1
    15     9     8   ar
    16     7     8   ar
    17     7    16    1
    18     8    11    1
    19    11    19    1
