@<TRIPOS>MOLECULE
2yak_OSV_A_1.pdb
 40 48 0 0 0
SMALL
GASTEIGER

@<TRIPOS>ATOM
      1  C        -11.0700  -12.0330   20.3670 C.3   1279  OSV1279     0.0000
      2  N        -10.8450  -11.1470   19.6550 N.3   1279  OSV1279     0.0000
      3  S        -11.4610  -13.3430   21.4510 S.3   1279  OSV1279     0.0000
      4  C6       -14.6070   -8.9640   18.2810 C.3   1279  OSV1279     0.0000
      5  C7       -13.9120   -8.1130   17.2150 C.3   1279  OSV1279     0.0000
      6  C8       -11.5360   -7.1840   17.1280 C.3   1279  OSV1279     0.0000
      7  C9       -11.2280   -6.8970   18.6330 C.3   1279  OSV1279     0.0000
      8  C10      -11.7990   -8.1880   20.8320 C.3   1279  OSV1279     0.0000
      9  C11      -13.2690   -8.5370   20.5430 C.3   1279  OSV1279     0.0000
     10  S16      -13.3920   -9.5760   19.2480 S.3   1279  OSV1279     0.0000
     11  S17      -12.3460   -8.6380   16.9560 S.3   1279  OSV1279     0.0000
     12  S18      -10.9840   -8.3470   19.4230 S.3   1279  OSV1279     0.0000
     13  CAA      -14.8370  -17.5040   15.2610 C.3   1279  OSV1279     0.0000
     14  CAB      -14.6830  -15.8320   13.1320 C.3   1279  OSV1279     0.0000
     15  OAC       -7.5290  -12.0560   12.6590 O.2   1279  OSV1279     0.0000
     16  OAD      -11.2350  -14.5830   12.6520 O.2   1279  OSV1279     0.0000
     17  F1        -6.6240   -8.5240   16.0780 F     1279  OSV1279     0.0000
     18  CAF      -15.0770  -13.6960   16.8990 C.2   1279  OSV1279     0.0000
     19  CAG      -14.2510  -12.6990   17.3520 C.2   1279  OSV1279     0.0000
     20  CAH       -8.6710   -9.0750   17.1290 C.2   1279  OSV1279     0.0000
     21  CAI       -7.9630  -10.2720   15.1240 C.2   1279  OSV1279     0.0000
     22  CAJ      -13.5190  -14.1580   15.0780 C.3   1279  OSV1279     0.0000
     23  NAK       -9.8760   -9.8660   17.1220 N.pl3 1279  OSV1279     0.0000
     24  NAL       -9.2710  -13.4700   12.3830 N.2   1279  OSV1279     0.0000
     25  NAM      -12.1900  -11.5680   16.9670 N.ar  1279  OSV1279     0.0000
     26  OAN      -15.6340  -15.4330   15.4590 O.2   1279  OSV1279     0.0000
     27  CAO       -7.7390   -9.2830   16.1140 C.2   1279  OSV1279     0.0000
     28  CAP      -14.7070  -14.4490   15.8070 C.2   1279  OSV1279     0.0000
     29  CAQ       -8.6210  -12.5060   13.0330 C.1   1279  OSV1279     0.0000
     30  CAR      -10.4220  -13.7230   13.0390 C.1   1279  OSV1279     0.0000
     31  CAS      -13.0770  -12.4650   16.6800 C.ar  1279  OSV1279     0.0000
     32  CAT      -12.6760  -13.1730   15.5310 C.ar  1279  OSV1279     0.0000
     33  CAU       -9.1090  -11.0760   15.1410 C.ar  1279  OSV1279     0.0000
     34  CAV      -10.0430  -10.8690   16.1350 C.ar  1279  OSV1279     0.0000
     35  CAW      -11.1850  -11.6420   16.1260 C.ar  1279  OSV1279     0.0000
     36  CAY      -10.5180  -12.8790   14.1760 C.ar  1279  OSV1279     0.0000
     37  CAZ      -11.4530  -12.6410   15.1550 C.ar  1279  OSV1279     0.0000
     38  CBA      -15.4270  -16.4060   14.3630 C.3   1279  OSV1279     0.0000
     39  CAX       -9.3520  -12.0810   14.1720 C.ar  1279  OSV1279     0.0000
     40 RU        -11.6880   -9.8710   18.2930 Ru    1279  OSV1279     0.0000
@<TRIPOS>BOND
     1    24    29    2
     2    24    30    2
     3    16    30    2
     4    15    29    2
     5    29    39    1
     6    30    36    1
     7    14    38    1
     8    39    36   ar
     9    39    33   ar
    10    36    37   ar
    11    38    13    1
    12    38    26    1
    13    22    32    1
    14    22    28    1
    15    21    33    2
    16    21    27    1
    17    33    34   ar
    18    37    32   ar
    19    37    35   ar
    20    26    28    1
    21    32    31   ar
    22    28    18    2
    23    17    27    1
    24    27    20    2
    25    35    34   ar
    26    35    25   ar
    27    34    23    1
    28    31    25   ar
    29    31    19    2
    30    18    19    1
    31    11     6    1
    32    11     5    1
    33    11    40    1
    34    25    40    1
    35    23    20    1
    36    23    40    1
    37     6     7    1
    38     5     4    1
    39     4    10    1
    40    40    10    1
    41    40    12    1
    42    40     2    1
    43     7    12    1
    44    10     9    1
    45    12     8    1
    46     2     1    1
    47     1     3    1
    48     9     8    1
