@<TRIPOS>MOLECULE
2yan_GSH_B_1.pdb
 20 19 0 0 0
SMALL
GASTEIGER

@<TRIPOS>ATOM
      1  N1        35.5930  -54.8060    1.5510 N.3   1338  GSH1338    -0.1208
      2  CA1       34.2660  -55.0710    2.0780 C.3   1338  GSH1338     0.1948
      3  C1        33.3990  -53.9490    1.5940 C.2   1338  GSH1338     0.3819
      4  O11       32.6140  -54.1100    0.6310 O.co2 1338  GSH1338    -0.2441
      5  O12       33.4780  -52.8340    2.1290 O.co2 1338  GSH1338    -0.2441
      6  CB1       34.2610  -55.2360    3.6130 C.3   1338  GSH1338     0.0402
      7  CG1       35.4130  -54.5360    4.3550 C.3   1338  GSH1338     0.0889
      8  CD1       36.5090  -55.4700    4.8840 C.2   1338  GSH1338     0.2418
      9  OE1       37.5980  -55.8990    4.0930 O.2   1338  GSH1338    -0.2733
     10  N2        36.4490  -55.8270    6.1670 N.am  1338  GSH1338    -0.1968
     11  CA2       37.3820  -55.2210    7.1090 C.3   1338  GSH1338     0.1843
     12  C2        38.5030  -56.1450    7.4910 C.2   1338  GSH1338     0.2627
     13  O2        38.2410  -57.4450    7.9780 O.2   1338  GSH1338    -0.2714
     14  CB2       36.6300  -54.6980    8.3320 C.3   1338  GSH1338     0.0997
     15  SG2       35.7750  -53.1800    7.8530 S.3   1338  GSH1338    -0.0797
     16  N3        39.7360  -55.6580    7.3320 N.am  1338  GSH1338    -0.1917
     17  CA3       40.9080  -56.4100    7.7470 C.3   1338  GSH1338     0.2285
     18  C3        40.7940  -56.9210    9.1680 C.2   1338  GSH1338     0.3865
     19  O31       41.1970  -58.0830    9.4320 O.co2 1338  GSH1338    -0.2437
     20  O32       40.2940  -56.1990   10.0740 O.co2 1338  GSH1338    -0.2437
@<TRIPOS>BOND
     1     4     3   ar
     2     1     2    1
     3     3     2    1
     4     3     5   ar
     5     2     6    1
     6     6     7    1
     7     9     8    2
     8     7     8    1
     9     8    10   am
    10    10    11    1
    11    11    12    1
    12    11    14    1
    13    16    12   am
    14    16    17    1
    15    12    13    2
    16    17    18    1
    17    15    14    1
    18    18    19   ar
    19    18    20   ar
