@<TRIPOS>MOLECULE
2yat_EEU_A_1.pdb
 48 52 0 0 0
SMALL
GASTEIGER

@<TRIPOS>ATOM
      1  C1       -14.1990    2.0570  -25.6780 C.1   1549  EEU1549    -0.0659
      2  C2       -13.6200    1.8730  -24.5940 C.1   1549  EEU1549    -0.0579
      3  C3       -12.9440    1.4960  -23.3520 C.3   1549  EEU1549     0.1791
      4  O1       -12.5250    2.6060  -22.5960 O.3   1549  EEU1549    -0.2125
      5  C4       -11.7800    0.6640  -23.8200 C.3   1549  EEU1549     0.0430
      6  C5       -12.3240   -0.7460  -23.9650 C.3   1549  EEU1549     0.0037
      7  C6       -13.7060   -0.6880  -23.3900 C.3   1549  EEU1549     0.0037
      8  C7       -14.1910   -1.9000  -22.6550 C.3   1549  EEU1549     0.0045
      9  C8       -14.0750   -3.1250  -23.5370 C.3   1549  EEU1549     0.0050
     10  C9       -14.7570   -4.3620  -23.0340 C.3   1549  EEU1549     0.0261
     11  C10      -13.7310    0.5320  -22.5340 C.3   1549  EEU1549     0.0366
     12  C11      -12.9220    0.3170  -21.2970 C.3   1549  EEU1549     0.0034
     13  C12      -15.1590    0.9060  -22.2000 C.3   1549  EEU1549     0.0037
     14  C13      -15.8160   -0.2920  -21.5240 C.3   1549  EEU1549     0.0045
     15  C14      -15.6320   -1.5590  -22.3670 C.3   1549  EEU1549     0.0220
     16  C15      -16.3890   -2.7270  -21.8980 C.ar  1549  EEU1549    -0.0263
     17  C16      -17.5410   -2.5330  -21.1390 C.ar  1549  EEU1549    -0.0013
     18  C17      -15.9780   -4.0870  -22.2260 C.ar  1549  EEU1549    -0.0230
     19  C18      -16.7620   -5.1420  -21.7480 C.ar  1549  EEU1549     0.0375
     20  C19      -17.9170   -4.8930  -20.9750 C.ar  1549  EEU1549     0.1954
     21  O2       -18.6540   -5.9210  -20.5320 O.3   1549  EEU1549    -0.2866
     22  C20      -18.2930   -3.5920  -20.6810 C.ar  1549  EEU1549     0.0417
     23  C21      -15.0350    2.5220  -26.9000 C.2   1549  EEU1549     0.0285
     24  C22      -16.2510    2.6640  -27.4100 C.2   1549  EEU1549     0.0333
     25  C23      -13.9590    2.9350  -27.6900 C.3   1549  EEU1549     0.0905
     26  C24      -16.8480    3.1040  -28.5090 C.2   1549  EEU1549     0.1247
     27  C25      -14.4770    3.4450  -28.9450 C.2   1549  EEU1549     0.1075
     28  N1       -15.8470    3.5310  -29.3450 N.2   1549  EEU1549    -0.4117
     29  C26      -18.3080    3.1250  -28.7820 C.3   1549  EEU1549     0.1328
     30  C27      -13.4610    3.9490  -29.9410 C.3   1549  EEU1549     0.1286
     31  N2       -18.4830    4.0210  -29.8710 N.3   1549  EEU1549    -0.2475
     32  N3       -14.0110    3.8420  -31.2640 N.3   1549  EEU1549    -0.2478
     33  O3       -16.8490    6.6330  -30.4420 O.co2 1549  EEU1549    -0.2441
     34  O4       -18.9490    5.3140  -32.2120 O.co2 1549  EEU1549    -0.2441
     35  O5       -15.1230    5.1200  -33.5630 O.co2 1549  EEU1549    -0.2441
     36  O6       -16.3370    2.2740  -32.7300 O.co2 1549  EEU1549    -0.2441
     37  C28      -18.7970    5.3600  -29.3130 C.3   1549  EEU1549     0.1885
     38  C29      -19.5110    3.3940  -30.6960 C.3   1549  EEU1549     0.1885
     39  C30      -13.0930    4.5870  -32.1160 C.3   1549  EEU1549     0.1885
     40  C31      -14.0050    2.4120  -31.6180 C.3   1549  EEU1549     0.1885
     41  C32      -17.6320    6.3780  -29.2610 C.2   1549  EEU1549     0.3809
     42  C33      -19.9380    4.4040  -31.7200 C.2   1549  EEU1549     0.3809
     43  C34      -13.7730    5.4730  -33.1450 C.2   1549  EEU1549     0.3809
     44  C35      -14.9430    1.9560  -32.7430 C.2   1549  EEU1549     0.3809
     45  O7       -17.8260    7.4150  -28.5500 O.co2 1549  EEU1549    -0.2441
     46  O8       -21.1610    4.7490  -31.6890 O.co2 1549  EEU1549    -0.2441
     47  O9       -13.0150    6.0820  -33.9780 O.co2 1549  EEU1549    -0.2441
     48  O10      -14.6130    0.9140  -33.4020 O.co2 1549  EEU1549    -0.2441
@<TRIPOS>BOND
     1    47    43   ar
     2    35    43   ar
     3    48    44   ar
     4    43    39    1
     5    44    36   ar
     6    44    40    1
     7    34    42   ar
     8    39    32    1
     9    42    46   ar
    10    42    38    1
    11    40    32    1
    12    32    30    1
    13    38    31    1
    14    33    41   ar
    15    30    27    1
    16    31    37    1
    17    31    29    1
    18    28    27    2
    19    28    26    2
    20    37    41    1
    21    41    45   ar
    22    27    25    1
    23    29    26    1
    24    26    24    1
    25    25    23    1
    26    24    23    2
    27    23     1    1
    28     1     2    3
    29     2     3    1
    30     6     5    1
    31     6     7    1
    32     5     3    1
    33     9    10    1
    34     9     8    1
    35     7     8    1
    36     7    11    1
    37     3     4    1
    38     3    11    1
    39    10    18    1
    40     8    15    1
    41    11    13    1
    42    11    12    1
    43    15    16    1
    44    15    14    1
    45    18    16   ar
    46    18    19   ar
    47    13    14    1
    48    16    17   ar
    49    19    20   ar
    50    17    22   ar
    51    20    22   ar
    52    20    21    1
