@<TRIPOS>MOLECULE
2yau_NDP_A_1.pdb
 48 52 0 0 0
SMALL
GASTEIGER

@<TRIPOS>ATOM
      1  PA       -31.1770  -54.5490    8.0960 P.3   550  NDP550      0.2189
      2  O1A      -29.6290  -54.0130    8.0740 O.3   550  NDP550     -0.4371
      3  O2A      -31.4180  -55.7640    7.2620 O.2   550  NDP550     -0.5170
      4  O5B      -31.4980  -54.8140    9.6590 O.3   550  NDP550     -0.3112
      5  C5B      -32.8490  -54.7160   10.1540 C.3   550  NDP550      0.1813
      6  C4B      -32.9910  -53.6770   11.3000 C.3   550  NDP550      0.1820
      7  O4B      -34.3790  -53.5900   11.7890 O.3   550  NDP550     -0.3136
      8  C3B      -32.1440  -54.1280   12.4940 C.3   550  NDP550      0.2157
      9  O3B      -31.6960  -52.9850   13.2390 O.3   550  NDP550     -0.2175
     10  C2B      -33.1360  -54.9910   13.2830 C.3   550  NDP550      0.2314
     11  O2B      -32.7910  -55.0570   14.6690 O.3   550  NDP550     -0.2630
     12  C1B      -34.4700  -54.2580   13.0930 C.3   550  NDP550      0.3158
     13  N9A      -35.5870  -55.2460   13.0470 N.pl3 550  NDP550     -0.1439
     14  C8A      -35.5780  -56.4000   12.3750 C.3   550  NDP550      0.3377
     15  N7A      -36.7410  -57.0260   12.5600 N.2   550  NDP550     -0.2095
     16  C5A      -37.5030  -56.2700   13.3440 C.2   550  NDP550      0.2526
     17  C6A      -38.7940  -56.4040   13.8630 C.2   550  NDP550      0.4393
     18  N6A      -39.5320  -57.4770   13.5820 N.pl3 550  NDP550      0.2180
     19  N1A      -39.2890  -55.4300   14.6530 N.2   550  NDP550      0.0021
     20  C2A      -38.5610  -54.3510   14.9380 C.3   550  NDP550      0.5254
     21  N3A      -37.3260  -54.1960   14.4560 N.2   550  NDP550     -0.0055
     22  C4A      -36.7700  -55.1340   13.6580 C.2   550  NDP550      0.3518
     23  O3       -32.0990  -53.2450    7.6360 O.3   550  NDP550     -0.2703
     24  PN       -32.3700  -52.7300    6.0980 P.3   550  NDP550      0.2189
     25  O1N      -33.9940  -52.5960    5.9050 O.3   550  NDP550     -0.4371
     26  O2N      -31.6730  -51.4440    5.8380 O.2   550  NDP550     -0.5170
     27  O5D      -31.9440  -53.9320    5.0620 O.3   550  NDP550     -0.3112
     28  C5D      -31.5400  -53.6480    3.7050 C.3   550  NDP550      0.1813
     29  C4D      -30.1420  -54.2270    3.3450 C.3   550  NDP550      0.1799
     30  O4D      -29.7980  -53.6930    2.0350 O.3   550  NDP550     -0.3327
     31  C3D      -28.9810  -53.8770    4.3060 C.3   550  NDP550      0.2158
     32  O3D      -28.5530  -55.0340    5.0530 O.3   550  NDP550     -0.2175
     33  C2D      -27.8250  -53.4240    3.4220 C.3   550  NDP550      0.2309
     34  O2D      -26.9130  -54.5110    3.1970 O.3   550  NDP550     -0.2158
     35  C1D      -28.4940  -53.0090    2.1060 C.3   550  NDP550      0.2263
     36  N1N      -28.5690  -51.5190    2.0840 N.pl3 550  NDP550     -0.2787
     37  C2N      -27.4180  -50.7820    1.7880 C.3   550  NDP550      0.1244
     38  C3N      -27.4650  -49.3900    1.7270 C.2   550  NDP550      0.0544
     39  C7N      -26.1830  -48.5960    1.4050 C.2   550  NDP550      0.2818
     40  O7N      -26.1950  -47.3620    1.3660 O.2   550  NDP550     -0.2670
     41  N7N      -25.0880  -49.3390    1.1890 N.am  550  NDP550     -0.0839
     42  C4N      -28.7710  -48.6190    2.0040 C.2   550  NDP550      0.0033
     43  C5N      -29.8610  -49.4480    2.2800 C.2   550  NDP550      0.0157
     44  C6N      -29.7760  -50.8400    2.3200 C.2   550  NDP550      0.0633
     45  P2B      -31.5870  -55.9950   15.1670 P.3   550  NDP550      0.5328
     46  O1X      -32.0350  -56.3940   16.6630 O.3   550  NDP550     -0.1145
     47  O2X      -31.7010  -57.3680   14.3120 O.2   550  NDP550     -0.2224
     48  O3X      -30.2640  -55.3350   15.1030 O.3   550  NDP550     -0.1145
@<TRIPOS>BOND
     1    41    39   am
     2    40    39    2
     3    39    38    1
     4    38    37    1
     5    38    42    2
     6    37    36    1
     7    42    43    1
     8    30    35    1
     9    30    29    1
    10    36    35    1
    11    36    44    1
    12    35    33    1
    13    43    44    2
    14    34    33    1
    15    29    28    1
    16    29    31    1
    17    33    31    1
    18    28    27    1
    19    31    32    1
    20    27    24    1
    21    26    24    2
    22    25    24    1
    23    24    23    1
    24     3     1    2
    25    23     1    1
    26     2     1    1
    27     1     4    1
    28     4     5    1
    29     5     6    1
    30     6     7    1
    31     6     8    1
    32     7    12    1
    33    14    15    1
    34    14    13    1
    35     8     9    1
    36     8    10    1
    37    15    16    2
    38    13    12    1
    39    13    22    1
    40    12    10    1
    41    10    11    1
    42    16    22    1
    43    16    17    1
    44    18    17    1
    45    22    21    2
    46    17    19    2
    47    47    45    2
    48    21    20    1
    49    19    20    1
    50    11    45    1
    51    48    45    1
    52    45    46    1
