@<TRIPOS>MOLECULE
2yau_TS8_A_1.pdb
 24 24 0 0 0
SMALL
GASTEIGER

@<TRIPOS>ATOM
      1  S        -25.7780  -46.9010  -11.9670 S.3   650  TS8650     -0.0470
      2  C1       -25.5160  -45.1650  -11.5920 C.3   650  TS8650      0.2161
      3  C2       -24.2680  -45.0270  -10.7100 C.3   650  TS8650      0.2501
      4  O2       -24.4920  -43.9110   -9.8270 O.3   650  TS8650     -0.4448
      5  C3       -23.0120  -44.8740  -11.5810 C.3   650  TS8650      0.2540
      6  O3       -22.8710  -46.0130  -12.4590 O.3   650  TS8650     -0.4444
      7  C4       -23.1020  -43.5590  -12.3760 C.3   650  TS8650      0.2428
      8  O4       -22.5560  -42.4680  -11.6150 O.3   650  TS8650     -0.4456
      9  C5       -24.5570  -43.2170  -12.7510 C.3   650  TS8650      0.2035
     10  O5       -25.3920  -44.4000  -12.8090 O.3   650  TS8650     -0.3357
     11  C6       -24.6450  -42.3810  -14.0390 C.3   650  TS8650      0.2416
     12  O6       -24.0040  -43.0050  -15.1620 O.3   650  TS8650     -0.4457
     13  CAD      -25.3610  -43.5850  -17.2520 C.3   650  TS8650      0.1212
     14  CAE      -20.4580  -42.5270  -10.1460 C.3   650  TS8650      0.1212
     15  CAF      -23.5300  -42.2100   -8.2250 C.3   650  TS8650      0.1212
     16  CAG      -21.5480  -46.6420  -12.5520 C.2   650  TS8650      0.3177
     17  OAH      -23.9590  -41.6650  -17.0200 O.2   650  TS8650     -0.2501
     18  OAI      -20.4400  -42.5150  -12.5280 O.2   650  TS8650     -0.2501
     19  OAJ      -22.6920  -44.4240   -8.4180 O.2   650  TS8650     -0.2501
     20  OAK      -21.1720  -47.3640  -11.6420 O.2   650  TS8650     -0.2501
     21  CAW      -24.4120  -42.6790  -16.5190 C.2   650  TS8650      0.3176
     22  CAX      -21.1010  -42.5020  -11.5020 C.2   650  TS8650      0.3176
     23  CAY      -23.5030  -43.5930   -8.7980 C.2   650  TS8650      0.3177
     24  CAZ      -20.6930  -46.4180  -13.7690 C.3   650  TS8650      0.1212
@<TRIPOS>BOND
     1    13    21    1
     2    17    21    2
     3    21    12    1
     4    12    11    1
     5    11     9    1
     6    24    16    1
     7    10     9    1
     8    10     2    1
     9     9     7    1
    10    16     6    1
    11    16    20    2
    12    18    22    2
    13     6     5    1
    14     7     8    1
    15     7     5    1
    16     1     2    1
    17     8    22    1
    18     2     3    1
    19     5     3    1
    20    22    14    1
    21     3     4    1
    22     4    23    1
    23    23    19    2
    24    23    15    1
