@<TRIPOS>MOLECULE
2yay_DUP_A_1.pdb
 28 29 0 0 0
SMALL
GASTEIGER

@<TRIPOS>ATOM
      1  O4        -5.8790   28.1630   -4.0830 O.2   1265  DUP1265    -0.2085
      2  C4        -6.9370   28.7960   -3.5900 C.1   1265  DUP1265     0.2182
      3  C5        -7.9880   29.0280   -4.5010 C.2   1265  DUP1265     0.1242
      4  C6        -9.1340   29.6000   -4.0120 C.2   1265  DUP1265     0.0928
      5  N3        -7.0560   29.1280   -2.2860 N.2   1265  DUP1265    -0.2452
      6  C2        -8.1760   29.7010   -1.8490 C.1   1265  DUP1265     0.2844
      7  O2        -8.2680   30.0760   -0.6660 O.2   1265  DUP1265    -0.1918
      8  N1        -9.2000   29.9760   -2.7150 N.am  1265  DUP1265    -0.1790
      9  C1'      -10.4170   30.6040   -2.2050 C.3   1265  DUP1265     0.2090
     10  C2'      -10.2720   31.9760   -1.6370 C.3   1265  DUP1265     0.0874
     11  C3'      -11.6010   32.6620   -1.8040 C.3   1265  DUP1265     0.1857
     12  O3'      -12.2980   32.8540   -0.5440 O.3   1265  DUP1265    -0.2203
     13  O4'      -11.4380   30.7800   -3.2210 O.3   1265  DUP1265    -0.3339
     14  C4'      -12.3400   31.7200   -2.7070 C.3   1265  DUP1265     0.1774
     15  C5'      -12.9910   32.3640   -3.9130 C.3   1265  DUP1265     0.1848
     16  O5'      -13.5650   31.3400   -4.7380 O.3   1265  DUP1265    -0.2775
     17  PA       -14.4530   31.7580   -6.0610 P.3   1265  DUP1265     0.4623
     18  O1A      -14.4520   30.5530   -6.9150 O.2   1265  DUP1265    -0.2354
     19  O2A      -13.8830   33.0630   -6.5690 O.3   1265  DUP1265    -0.1255
     20  N3A      -16.0440   32.0980   -5.6570 N.3   1265  DUP1265    -0.0179
     21  PB       -16.5870   33.3430   -4.6940 P.3   1265  DUP1265     0.4700
     22  O1B      -15.8360   34.7270   -4.8210 O.2   1265  DUP1265    -0.2350
     23  O2B      -16.6840   32.8670   -3.2470 O.3   1265  DUP1265    -0.1252
     24  O3B      -18.0240   33.5690   -5.4180 O.3   1265  DUP1265    -0.1901
     25  PG       -18.0470   33.8930   -7.0420 P.3   1265  DUP1265     0.5397
     26  O2G      -18.1110   32.5770   -7.8260 O.2   1265  DUP1265    -0.2220
     27  O1G      -16.7590   34.6080   -7.5350 O.3   1265  DUP1265    -0.1143
     28  O3G      -19.2700   34.7670   -7.0640 O.3   1265  DUP1265    -0.1143
@<TRIPOS>BOND
     1    26    25    2
     2    27    25    1
     3    28    25    1
     4    25    24    1
     5    18    17    2
     6    19    17    1
     7    17    20    1
     8    17    16    1
     9    20    21    1
    10    24    21    1
    11    22    21    2
    12    16    15    1
    13    21    23    1
    14     3     4    2
    15     3     2    1
    16     1     2    2
    17     4     8    1
    18    15    14    1
    19     2     5    2
    20    13    14    1
    21    13     9    1
    22     8     9    1
    23     8     6   am
    24    14    11    1
    25     5     6    2
    26     9    10    1
    27     6     7    2
    28    11    10    1
    29    11    12    1
