@<TRIPOS>MOLECULE
2yaz_UMP_A_1.pdb
 20 21 0 0 0
SMALL
GASTEIGER

@<TRIPOS>ATOM
      1  N1       -17.1980   34.9490   -7.8570 N.am  1265  UMP1265    -0.1790
      2  C2       -17.8520   34.1650   -6.9120 C.1   1265  UMP1265     0.2844
      3  N3       -17.2960   33.9080   -5.6840 N.2   1265  UMP1265    -0.2452
      4  C4       -16.0580   34.4270   -5.3950 C.1   1265  UMP1265     0.2182
      5  C5       -15.3830   35.2190   -6.3310 C.2   1265  UMP1265     0.1242
      6  C6       -15.9650   35.4730   -7.5740 C.2   1265  UMP1265     0.0928
      7  O2       -18.9510   33.6860   -7.1350 O.2   1265  UMP1265    -0.1918
      8  O4       -15.5740   34.1870   -4.2940 O.2   1265  UMP1265    -0.2085
      9  C1'      -17.8810   35.2020   -9.1420 C.3   1265  UMP1265     0.2090
     10  C2'      -19.0690   36.1280   -8.9240 C.3   1265  UMP1265     0.0874
     11  C3'      -19.2780   36.7570  -10.2850 C.3   1265  UMP1265     0.1857
     12  C4'      -17.9830   36.5180  -11.0260 C.3   1265  UMP1265     0.1774
     13  O3'      -20.2710   36.0870  -11.0120 O.3   1265  UMP1265    -0.2203
     14  O4'      -17.1190   35.7850  -10.1720 O.3   1265  UMP1265    -0.3339
     15  C5'      -17.3920   37.8700  -11.4070 C.3   1265  UMP1265     0.1858
     16  O5'      -16.0860   37.6710  -11.9130 O.3   1265  UMP1265    -0.2675
     17  P        -15.4530   38.8010  -12.8680 P.3   1265  UMP1265     0.5327
     18  OP1      -16.4410   38.8460  -14.0460 O.2   1265  UMP1265    -0.2224
     19  OP2      -14.0090   38.4560  -13.1930 O.3   1265  UMP1265    -0.1145
     20  OP3      -15.4410   40.1040  -12.1320 O.3   1265  UMP1265    -0.1145
@<TRIPOS>BOND
     1    18    17    2
     2    19    17    1
     3    17    20    1
     4    17    16    1
     5    16    15    1
     6    15    12    1
     7    12    11    1
     8    12    14    1
     9    13    11    1
    10    11    10    1
    11    14     9    1
    12     9    10    1
    13     9     1    1
    14     1     6    1
    15     1     2   am
    16     6     5    2
    17     7     2    2
    18     2     3    2
    19     5     4    1
    20     3     4    2
    21     4     8    2
