@<TRIPOS>MOLECULE
2yb0_DUR_A_1.pdb
 16 17 0 0 0
SMALL
GASTEIGER

@<TRIPOS>ATOM
      1  N1       -17.1760   35.0590   -7.7030 N.am  1266  DUR1266    -0.1790
      2  C2       -17.8380   34.2480   -6.7500 C.1   1266  DUR1266     0.2844
      3  N3       -17.3030   34.0450   -5.5520 N.2   1266  DUR1266    -0.2452
      4  C4       -16.1110   34.5640   -5.2500 C.1   1266  DUR1266     0.2182
      5  C5       -15.4460   35.3580   -6.1610 C.2   1266  DUR1266     0.1242
      6  C6       -16.0000   35.6010   -7.4020 C.2   1266  DUR1266     0.0928
      7  O2       -18.9370   33.7270   -6.9920 O.2   1266  DUR1266    -0.1918
      8  O4       -15.5950   34.3580   -4.1340 O.2   1266  DUR1266    -0.2085
      9  C1'      -17.8060   35.3360   -8.9850 C.3   1266  DUR1266     0.2090
     10  C2'      -18.9480   36.3090   -8.7590 C.3   1266  DUR1266     0.0874
     11  C3'      -19.1180   36.9830  -10.1040 C.3   1266  DUR1266     0.1858
     12  C4'      -17.8060   36.7540  -10.8220 C.3   1266  DUR1266     0.1802
     13  O3'      -20.1660   36.3940  -10.8810 O.3   1266  DUR1266    -0.2203
     14  O4'      -16.9920   35.9750   -9.9570 O.3   1266  DUR1266    -0.3338
     15  C5'      -17.1150   38.0630  -11.2070 C.3   1266  DUR1266     0.2141
     16  O5'      -18.0320   39.0050  -11.8060 O.3   1266  DUR1266    -0.2176
@<TRIPOS>BOND
     1    16    15    1
     2    15    12    1
     3    13    11    1
     4    12    11    1
     5    12    14    1
     6    11    10    1
     7    14     9    1
     8     9    10    1
     9     9     1    1
    10     1     6    1
    11     1     2   am
    12     6     5    2
    13     7     2    2
    14     2     3    2
    15     5     4    1
    16     3     4    2
    17     4     8    2
