@<TRIPOS>MOLECULE
2yb1_AMP_A_1.pdb
 23 25 0 0 0
SMALL
GASTEIGER

@<TRIPOS>ATOM
      1  P         26.2750   34.3480   45.0220 P.3   1292  AMP1292     0.5327
      2  O1P       26.6580   35.4180   46.0230 O.3   1292  AMP1292    -0.1145
      3  O2P       25.3130   33.3980   45.7020 O.3   1292  AMP1292    -0.1145
      4  O3P       25.8460   34.9880   43.7250 O.2   1292  AMP1292    -0.2224
      5  O5'       27.6750   33.6170   44.8110 O.3   1292  AMP1292    -0.2675
      6  C5'       28.2990   32.9280   45.8810 C.3   1292  AMP1292     0.1860
      7  C4'       29.1810   31.8130   45.3850 C.3   1292  AMP1292     0.1823
      8  O4'       30.4520   32.3570   44.9630 O.3   1292  AMP1292    -0.3135
      9  C3'       29.5530   30.7600   46.4200 C.3   1292  AMP1292     0.2184
     10  O3'       28.5470   29.7700   46.5750 O.3   1292  AMP1292    -0.2174
     11  C2'       30.8760   30.2050   45.8980 C.3   1292  AMP1292     0.2570
     12  O2'       30.6440   29.2110   44.9080 O.3   1292  AMP1292    -0.2130
     13  C1'       31.4910   31.4300   45.2200 C.3   1292  AMP1292     0.3186
     14  N9        32.4960   32.0820   46.0780 N.pl3 1292  AMP1292    -0.1439
     15  C8        32.2580   33.0060   47.0330 C.3   1292  AMP1292     0.3377
     16  N7        33.4240   33.3750   47.6370 N.2   1292  AMP1292    -0.2095
     17  C5        34.4230   32.6690   47.0700 C.2   1292  AMP1292     0.2526
     18  C6        35.8930   32.5690   47.2250 C.2   1292  AMP1292     0.4393
     19  N6        36.5480   33.3150   48.1450 N.pl3 1292  AMP1292     0.2180
     20  N1        36.5550   31.7060   46.4160 N.2   1292  AMP1292     0.0021
     21  C2        35.9220   30.9500   45.4960 C.3   1292  AMP1292     0.5254
     22  N3        34.5890   30.9880   45.3020 N.2   1292  AMP1292    -0.0055
     23  C4        33.8060   31.8160   46.0430 C.2   1292  AMP1292     0.3518
@<TRIPOS>BOND
     1     4     1    2
     2     5     1    1
     3     5     6    1
     4    12    11    1
     5     8    13    1
     6     8     7    1
     7     1     3    1
     8     1     2    1
     9    13    11    1
    10    13    14    1
    11    22    21    1
    12    22    23    2
    13     7     6    1
    14     7     9    1
    15    21    20    1
    16    11     9    1
    17    23    14    1
    18    23    17    1
    19    14    15    1
    20    20    18    2
    21     9    10    1
    22    15    16    1
    23    17    18    1
    24    17    16    2
    25    18    19    1
