@<TRIPOS>MOLECULE
2yb7_GLA_A_1.pdb
 11 11 0 0 0
SMALL
GASTEIGER

@<TRIPOS>ATOM
      1  C1        32.8940   14.2550   54.1310 C.3   1881  GLA1881     0.1777
      2  C2        33.9180   13.3660   53.4750 C.3   1881  GLA1881     0.2141
      3  C3        35.2500   14.1170   53.3700 C.3   1881  GLA1881     0.2173
      4  C4        35.0550   15.3790   52.5140 C.3   1881  GLA1881     0.2142
      5  C5        33.9900   16.2140   53.2750 C.3   1881  GLA1881     0.1810
      6  C6        33.7780   17.5430   52.5440 C.3   1881  GLA1881     0.2141
      7  O2        34.1620   12.2090   54.3020 O.3   1881  GLA1881    -0.2176
      8  O3        36.1250   13.2550   52.6640 O.3   1881  GLA1881    -0.2175
      9  O4        34.5440   15.0660   51.1790 O.3   1881  GLA1881    -0.2176
     10  O5        32.7590   15.4500   53.4230 O.3   1881  GLA1881    -0.3481
     11  O6        32.8510   18.2150   53.3460 O.3   1881  GLA1881    -0.2176
@<TRIPOS>BOND
     1     9     4    1
     2     4     5    1
     3     4     3    1
     4     6     5    1
     5     6    11    1
     6     8     3    1
     7     5    10    1
     8     3     2    1
     9    10     1    1
    10     2     1    1
    11     2     7    1
