@<TRIPOS>MOLECULE
2yb9_HA0_A_1.pdb
 32 34 0 0 0
SMALL
GASTEIGER

@<TRIPOS>ATOM
      1  C         30.2360   43.2290   35.1230 C.2   1751  HA01751     0.2409
      2  N         29.2320   43.0360   36.0120 N.am  1751  HA01751    -0.1951
      3  O         31.2550   42.5490   34.9840 O.2   1751  HA01751    -0.2734
      4  C1        29.3080   40.6310   36.2670 C.2   1751  HA01751     0.3847
      5  O1        30.5670   40.1670   36.3760 O.co2 1751  HA01751    -0.2437
      6  N3        28.8450   40.8130   39.9910 N.ar  1751  HA01751    -0.2104
      7  C4        31.2630   44.9330   33.5270 C.3   1751  HA01751     0.0087
      8  C5        29.7030   45.7400   35.2070 C.3   1751  HA01751     0.0087
      9  O6        31.0280   41.3130   40.1940 O.2   1751  HA01751    -0.4383
     10  CA        28.6480   42.8650   32.5890 C.3   1751  HA01751     0.1039
     11  CB        29.4180   40.1800   41.2280 C.ar  1751  HA01751     0.1391
     12  CD        25.8050   40.5790   31.2640 C.3   1751  HA01751     0.0000
     13  CG        27.2130   41.0850   31.5640 C.3   1751  HA01751     0.0006
     14  CH        30.0150   42.3270   38.1990 C.3   1751  HA01751     0.1185
     15  C11       29.0790   41.9900   37.0120 C.3   1751  HA01751     0.2069
     16  C17       31.5950   39.3050   43.3960 C.ar  1751  HA01751     0.0031
     17  C20       32.6720   39.0000   44.2800 C.ar  1751  HA01751     0.0001
     18  C21       33.9870   39.5090   44.0080 C.ar  1751  HA01751     0.0000
     19  CA1       29.9560   44.4950   34.2850 C.3   1751  HA01751     0.0710
     20  CB1       27.2660   42.4580   32.1900 C.3   1751  HA01751     0.0113
     21  CB2       29.4710   43.1400   31.3540 C.2   1751  HA01751     0.3643
     22  CD2       31.8290   40.1540   42.2550 C.ar  1751  HA01751     0.0362
     23  CE3       33.1710   40.6550   42.0490 C.ar  1751  HA01751     0.0031
     24  CG1       32.0110   45.9980   34.3770 C.3   1751  HA01751     0.0005
     25  OG1       29.5540   44.1210   30.6230 O.co2 1751  HA01751    -0.2457
     26  CG2       31.1140   46.2290   35.6070 C.3   1751  HA01751     0.0005
     27  OG2       30.2240   42.1190   31.2630 O.co2 1751  HA01751    -0.2457
     28  CG3       30.7490   40.5230   41.2660 C.ar  1751  HA01751     0.1659
     29  CH2       28.7030   44.2040   33.4010 C.3   1751  HA01751     0.0199
     30  OXT       28.4490   40.1060   35.5840 O.co2 1751  HA01751    -0.2437
     31  CZ1       29.9020   41.4570   39.4680 C.ar  1751  HA01751     0.2081
     32  CZ3       34.2490   40.3390   42.9230 C.ar  1751  HA01751     0.0001
@<TRIPOS>BOND
     1    25    21   ar
     2    27    21   ar
     3    12    13    1
     4    21    10    1
     5    13    20    1
     6    20    10    1
     7    10    29    1
     8    29    19    1
     9     7    19    1
    10     7    24    1
    11    19     1    1
    12    19     8    1
    13    24    26    1
    14     3     1    2
    15     1     2   am
    16     8    26    1
    17    30     4   ar
    18     2    15    1
    19     4     5   ar
    20     4    15    1
    21    15    14    1
    22    14    31    1
    23    31     6   ar
    24    31     9   ar
    25     6    11   ar
    26     9    28   ar
    27    11    28   ar
    28    28    22    1
    29    23    22   ar
    30    23    32   ar
    31    22    16   ar
    32    32    18   ar
    33    16    17   ar
    34    18    17   ar
