@<TRIPOS>MOLECULE
2ybb_UQ1_c_1.pdb
 14 14 0 0 0
SMALL
GASTEIGER

@<TRIPOS>ATOM
      1  C1        12.0830   43.2480  -10.5980 C.2   3002  UQ13002     0.2282
      2  O1        13.0470   42.8370   -9.9080 O.2   3002  UQ13002    -0.2836
      3  C2        11.0510   42.2350  -11.1810 C.2   3002  UQ13002     0.2140
      4  O2        11.2640   40.8400  -10.9720 O.2   3002  UQ13002    -0.4652
      5  CM2       10.9930   40.3150   -9.6500 C.3   3002  UQ13002     0.2528
      6  C3         9.9650   42.6860  -11.9650 C.2   3002  UQ13002     0.2140
      7  O3         9.0130   41.7780  -12.5150 O.2   3002  UQ13002    -0.4652
      8  CM3        8.0580   41.1810  -11.5960 C.3   3002  UQ13002     0.2528
      9  C4         9.7460   44.2050  -12.2000 C.2   3002  UQ13002     0.2282
     10  O4         8.7910   44.5970  -12.8840 O.2   3002  UQ13002    -0.2836
     11  C5        10.7740   45.2170  -11.6280 C.2   3002  UQ13002     0.0195
     12  CM5       10.5280   46.7360  -11.9000 C.3   3002  UQ13002     0.0343
     13  C6        11.8590   44.7690  -10.8380 C.2   3002  UQ13002     0.0195
     14  C7        12.9040   45.7700  -10.2380 C.3   3002  UQ13002     0.0343
@<TRIPOS>BOND
     1    10     9    2
     2     7     6    1
     3     7     8    1
     4     9     6    1
     5     9    11    1
     6     6     3    2
     7    12    11    1
     8    11    13    2
     9     3     4    1
    10     3     1    1
    11     4     5    1
    12    13     1    1
    13    13    14    1
    14     1     2    2
