@<TRIPOS>MOLECULE
2ybb_HEC_d_1.pdb
 43 50 0 0 0
SMALL
GASTEIGER

@<TRIPOS>ATOM
      1 FE         66.5410   42.1250  -14.4850 Fe    501  HEC501      0.0000
      2  CHA       64.6220   41.1310  -17.1470 C.2   501  HEC501      0.0000
      3  CHB       64.1080   41.1430  -12.4100 C.2   501  HEC501      0.0000
      4  CHC       68.4880   42.8580  -11.9340 C.2   501  HEC501      0.0000
      5  CHD       68.7690   43.4100  -16.6820 C.2   501  HEC501      0.0000
      6  NA        64.7800   41.2510  -14.7330 N.2   501  HEC501      0.0000
      7  C1A       64.1100   40.9360  -15.9020 C.2   501  HEC501      0.0000
      8  C2A       62.7990   40.4350  -15.6150 C.2   501  HEC501      0.0000
      9  C3A       62.6990   40.3310  -14.2820 C.2   501  HEC501      0.0000
     10  C4A       63.9260   40.8800  -13.7430 C.2   501  HEC501      0.0000
     11  CMA       61.5340   39.7780  -13.5030 C.3   501  HEC501      0.0000
     12  CAA       61.6790   40.2240  -16.5900 C.3   501  HEC501      0.0000
     13  CBA       61.5980   38.7410  -16.9430 C.3   501  HEC501      0.0000
     14  CGA       60.4770   38.4280  -17.9100 C.2   501  HEC501      0.0000
     15  O1A       60.3450   39.1350  -18.9240 O.co2 501  HEC501      0.0000
     16  O2A       59.7130   37.4710  -17.6710 O.co2 501  HEC501      0.0000
     17  NB        66.3170   42.0950  -12.5470 N.ar  501  HEC501      0.0000
     18  C1B       65.1720   41.7520  -11.8400 C.ar  501  HEC501      0.0000
     19  C2B       65.3210   41.9750  -10.4160 C.ar  501  HEC501      0.0000
     20  C3B       66.6080   42.3840  -10.2050 C.ar  501  HEC501      0.0000
     21  C4B       67.2310   42.4590  -11.5770 C.ar  501  HEC501      0.0000
     22  CMB       64.2550   41.8970   -9.3620 C.3   501  HEC501      0.0000
     23  CAB       67.3480   42.8130   -8.9330 C.3   501  HEC501      0.0000
     24  CBB       67.4640   41.6000   -8.0170 C.3   501  HEC501      0.0000
     25  NC        68.2810   42.9120  -14.3500 N.2   501  HEC501      0.0000
     26  C1C       68.9830   43.0680  -13.2030 C.2   501  HEC501      0.0000
     27  C2C       70.2310   43.8100  -13.4740 C.2   501  HEC501      0.0000
     28  C3C       70.3050   44.0580  -14.7880 C.2   501  HEC501      0.0000
     29  C4C       69.0580   43.4870  -15.3400 C.2   501  HEC501      0.0000
     30  CMC       71.0980   44.4260  -12.4280 C.3   501  HEC501      0.0000
     31  CAC       71.2180   44.9270  -15.6220 C.3   501  HEC501      0.0000
     32  CBC       72.6950   44.6560  -15.4370 C.3   501  HEC501      0.0000
     33  ND        66.7330   42.1340  -16.4460 N.ar  501  HEC501      0.0000
     34  C1D       67.7040   42.7570  -17.1950 C.ar  501  HEC501      0.0000
     35  C2D       67.4150   42.6940  -18.5920 C.ar  501  HEC501      0.0000
     36  C3D       66.2760   41.9950  -18.7620 C.ar  501  HEC501      0.0000
     37  C4D       65.8360   41.6670  -17.4250 C.ar  501  HEC501      0.0000
     38  CMD       68.2300   43.3530  -19.6920 C.3   501  HEC501      0.0000
     39  CAD       65.6220   41.5770  -20.0800 C.3   501  HEC501      0.0000
     40  CBD       65.7440   40.0770  -20.3210 C.3   501  HEC501      0.0000
     41  CGD       65.1190   39.6150  -21.6240 C.2   501  HEC501      0.0000
     42  O1D       65.7120   38.7210  -22.2640 O.co2 501  HEC501      0.0000
     43  O2D       64.0430   40.1320  -22.0030 O.co2 501  HEC501      0.0000
@<TRIPOS>BOND
     1    42    41   ar
     2    43    41   ar
     3    41    40    1
     4    40    39    1
     5    39    36    1
     6    38    35    1
     7    15    14   ar
     8    36    35   ar
     9    36    37   ar
    10    35    34   ar
    11    14    16   ar
    12    14    13    1
    13    37     2    2
    14    37    33   ar
    15    34     5    2
    16    34    33   ar
    17     2     7    1
    18    13    12    1
    19     5    29    1
    20    12     8    1
    21    33     1    1
    22     7     8    1
    23     7     6    2
    24    31    32    1
    25    31    28    1
    26     8     9    2
    27    29    28    1
    28    29    25    2
    29    28    27    2
    30     6     1    1
    31     6    10    1
    32     1    25    1
    33     1    17    1
    34    25    26    1
    35     9    10    1
    36     9    11    1
    37    10     3    2
    38    27    26    1
    39    27    30    1
    40    26     4    2
    41    17    18   ar
    42    17    21   ar
    43     3    18    1
    44     4    21    1
    45    18    19   ar
    46    21    20   ar
    47    19    20   ar
    48    19    22    1
    49    20    23    1
    50    23    24    1
