@<TRIPOS>MOLECULE
2ybb_SMA_c_1.pdb
 37 38 0 0 0
SMALL
GASTEIGER

@<TRIPOS>ATOM
      1  C2        36.1820   38.4230  -29.2370 C.ar  3001  SMA3001     0.1220
      2  C3        36.7190   37.7450  -30.3260 C.ar  3001  SMA3001     0.0475
      3  C3M       35.8730   37.0170  -31.3180 C.3   3001  SMA3001     0.0373
      4  C4        38.2110   37.7200  -30.5440 C.ar  3001  SMA3001     0.2002
      5  C4A       39.0140   38.4720  -29.5020 C.ar  3001  SMA3001     0.1105
      6  C5        40.4650   38.5610  -29.5210 C.ar  3001  SMA3001     0.1479
      7  C5M       42.5090   37.9110  -30.6680 C.3   3001  SMA3001     0.2525
      8  C6        41.1600   39.3090  -28.4920 C.ar  3001  SMA3001     0.0774
      9  C7        40.4250   39.9710  -27.4450 C.ar  3001  SMA3001     0.1835
     10  C7M       42.4100   40.7700  -26.3060 C.3   3001  SMA3001     0.2526
     11  C8        38.9930   39.8890  -27.4040 C.ar  3001  SMA3001     0.2636
     12  C8A       38.3270   39.1500  -28.4240 C.ar  3001  SMA3001     0.1925
     13  C9        34.7800   38.5540  -28.7960 C.3   3001  SMA3001     0.0644
     14  C10       33.8060   39.3260  -29.6270 C.3   3001  SMA3001     0.0104
     15  C11       32.6060   39.6120  -28.7120 C.3   3001  SMA3001     0.0278
     16  C12       31.5700   40.5290  -29.3890 C.3   3001  SMA3001     0.1179
     17  C13       32.1420   41.9260  -29.7790 C.3   3001  SMA3001     0.0586
     18  C14       31.0250   42.7610  -30.4530 C.3   3001  SMA3001     0.1395
     19  C15       31.5910   43.9140  -31.2180 C.2   3001  SMA3001     0.0029
     20  C16       31.5640   45.1840  -30.8270 C.2   3001  SMA3001    -0.0022
     21  C17       32.0900   46.2430  -31.6230 C.2   3001  SMA3001    -0.0006
     22  C18       32.0670   47.5180  -31.2190 C.2   3001  SMA3001    -0.0046
     23  C19       32.7260   48.6490  -31.8800 C.2   3001  SMA3001    -0.0261
     24  C20       32.5160   49.8860  -31.3710 C.2   3001  SMA3001    -0.0300
     25  C21       33.0770   51.1580  -31.8690 C.3   3001  SMA3001     0.0304
     26  C22       31.9190   38.3170  -28.2600 C.3   3001  SMA3001     0.0025
     27  C23       29.6810   39.5490  -30.5810 C.3   3001  SMA3001     0.1740
     28  C24       32.7270   42.6550  -28.5320 C.3   3001  SMA3001     0.0054
     29  C25       28.7430   43.2780  -29.8700 C.3   3001  SMA3001     0.1745
     30  C26       33.5980   48.3870  -33.0730 C.3   3001  SMA3001     0.0307
     31  O1        36.9450   39.1170  -28.2920 O.2   3001  SMA3001    -0.4544
     32  O4        38.7210   37.1170  -31.4980 O.2   3001  SMA3001    -0.2866
     33  O5        41.0830   37.8860  -30.5710 O.3   3001  SMA3001    -0.4711
     34  O7        40.9860   40.7160  -26.4130 O.3   3001  SMA3001    -0.4680
     35  O8        38.3300   40.5250  -26.3930 O.3   3001  SMA3001    -0.2800
     36  O12       31.0760   39.8860  -30.5960 O.3   3001  SMA3001    -0.3535
     37  O14       30.0940   43.1490  -29.4110 O.3   3001  SMA3001    -0.3491
@<TRIPOS>BOND
     1    30    23    1
     2    23    24    2
     3    23    22    1
     4    25    24    1
     5    21    22    2
     6    21    20    1
     7    32     4    2
     8     3     2    1
     9    19    20    2
    10    19    18    1
    11     7    33    1
    12    36    27    1
    13    36    16    1
    14    33     6    1
    15     4     2   ar
    16     4     5   ar
    17    18    17    1
    18    18    37    1
    19     2     1   ar
    20    29    37    1
    21    17    16    1
    22    17    28    1
    23    14    13    1
    24    14    15    1
    25     6     5   ar
    26     6     8   ar
    27     5    12   ar
    28    16    15    1
    29     1    13    1
    30     1    31   ar
    31    15    26    1
    32     8     9   ar
    33    12    31   ar
    34    12    11   ar
    35     9    11   ar
    36     9    34    1
    37    11    35    1
    38    34    10    1
