@<TRIPOS>MOLECULE
2ybb_HEM_c_1.pdb
 43 50 0 0 0
SMALL
GASTEIGER

@<TRIPOS>ATOM
      1  CHA       36.8450   50.5520  -17.6870 C.2   501  HEM501      0.0000
      2  CHB       32.9810   47.7980  -18.3310 C.2   501  HEM501      0.0000
      3  CHC       30.1550   51.6330  -17.2670 C.2   501  HEM501      0.0000
      4  CHD       34.0210   54.3750  -17.0550 C.2   501  HEM501      0.0000
      5  C1A       36.0640   49.4370  -17.9150 C.ar  501  HEM501      0.0000
      6  C2A       36.5720   48.0740  -18.1210 C.ar  501  HEM501      0.0000
      7  C3A       35.4840   47.2600  -18.3610 C.ar  501  HEM501      0.0000
      8  C4A       34.3140   48.1640  -18.2540 C.ar  501  HEM501      0.0000
      9  CMA       35.4370   45.7570  -18.6270 C.3   501  HEM501      0.0000
     10  CAA       38.0630   47.7010  -17.9700 C.3   501  HEM501      0.0000
     11  CBA       38.3790   47.4370  -16.5040 C.3   501  HEM501      0.0000
     12  CGA       39.8430   47.1680  -16.2340 C.2   501  HEM501      0.0000
     13  O1A       40.2520   45.9900  -16.2360 O.co2 501  HEM501      0.0000
     14  O2A       40.5780   48.1420  -16.0060 O.co2 501  HEM501      0.0000
     15  C1B       31.8860   48.6000  -18.0710 C.2   501  HEM501      0.0000
     16  C2B       30.5030   48.1550  -18.1480 C.2   501  HEM501      0.0000
     17  C3B       29.7050   49.2130  -17.8310 C.2   501  HEM501      0.0000
     18  C4B       30.5850   50.3330  -17.5610 C.2   501  HEM501      0.0000
     19  CMB       30.0760   46.7410  -18.4770 C.3   501  HEM501      0.0000
     20  CAB       28.3490   49.2460  -17.7610 C.3   501  HEM501      0.0000
     21  CBB       27.4000   48.4160  -18.6820 C.3   501  HEM501      0.0000
     22  C1C       30.9210   52.7410  -17.1740 C.ar  501  HEM501      0.0000
     23  C2C       30.4470   54.1300  -17.0960 C.ar  501  HEM501      0.0000
     24  C3C       31.5850   54.9160  -17.0520 C.ar  501  HEM501      0.0000
     25  C4C       32.7050   54.0070  -17.1170 C.ar  501  HEM501      0.0000
     26  CMC       28.9700   54.5250  -17.0450 C.3   501  HEM501      0.0000
     27  CAC       31.8040   56.2530  -16.8600 C.3   501  HEM501      0.0000
     28  CBC       30.7430   57.3340  -16.8210 C.3   501  HEM501      0.0000
     29  C1D       35.1090   53.5790  -17.1620 C.2   501  HEM501      0.0000
     30  C2D       36.4630   54.0660  -16.9920 C.2   501  HEM501      0.0000
     31  C3D       37.2690   53.0250  -17.2290 C.2   501  HEM501      0.0000
     32  C4D       36.3940   51.8430  -17.4790 C.2   501  HEM501      0.0000
     33  CMD       36.9140   55.4320  -16.6130 C.3   501  HEM501      0.0000
     34  CAD       38.7990   53.0900  -17.1980 C.3   501  HEM501      0.0000
     35  CBD       39.4290   52.8010  -15.8500 C.3   501  HEM501      0.0000
     36  CGD       39.5330   51.3210  -15.5580 C.2   501  HEM501      0.0000
     37  O1D       39.0550   50.8900  -14.4810 O.co2 501  HEM501      0.0000
     38  O2D       40.0950   50.6020  -16.4080 O.co2 501  HEM501      0.0000
     39  NA        34.6730   49.4920  -17.9340 N.ar  501  HEM501      0.0000
     40  NB        31.9130   49.9390  -17.7310 N.2   501  HEM501      0.0000
     41  NC        32.3080   52.6530  -17.2490 N.ar  501  HEM501      0.0000
     42  ND        35.0830   52.2170  -17.3890 N.2   501  HEM501      0.0000
     43 FE         33.4960   51.0700  -17.5280 Fe    501  HEM501      0.0000
@<TRIPOS>BOND
     1    21    20    1
     2     9     7    1
     3    19    16    1
     4     7     8   ar
     5     7     6   ar
     6     2     8    2
     7     2    15    1
     8     8    39   ar
     9    16    15    1
    10    16    17    2
    11     6    10    1
    12     6     5   ar
    13    15    40    2
    14    10    11    1
    15    39     5   ar
    16    39    43    1
    17     5     1    2
    18    17    20    1
    19    17    18    1
    20    40    18    1
    21    40    43    1
    22     1    32    1
    23    18     3    2
    24    43    42    1
    25    43    41    1
    26    32    42    2
    27    32    31    1
    28    42    29    1
    29     3    22    1
    30    41    22   ar
    31    41    25   ar
    32    31    34    1
    33    31    30    2
    34    34    35    1
    35    22    23   ar
    36    29     4    2
    37    29    30    1
    38    25     4    1
    39    25    24   ar
    40    23    24   ar
    41    23    26    1
    42    24    27    1
    43    30    33    1
    44    27    28    1
    45    11    12    1
    46    38    36   ar
    47    13    12   ar
    48    12    14   ar
    49    35    36    1
    50    36    37   ar
