@<TRIPOS>MOLECULE
2ybb_NAI_1_1.pdb
 44 48 0 0 0
SMALL
GASTEIGER

@<TRIPOS>ATOM
      1  PA       -78.7760 -105.5570  -24.4890 P.3   441  NAI441      0.2189
      2  O1A      -79.0650 -103.9890  -24.9210 O.2   441  NAI441     -0.5170
      3  O2A      -77.6140 -105.5320  -23.6300 O.3   441  NAI441     -0.4371
      4  O5B      -80.1550 -106.2010  -23.8180 O.3   441  NAI441     -0.3112
      5  C5B      -81.2290 -106.4760  -24.7280 C.3   441  NAI441      0.1813
      6  C4B      -82.6050 -106.3490  -24.2520 C.3   441  NAI441      0.1821
      7  O4B      -82.7280 -106.0260  -22.9180 O.3   441  NAI441     -0.3135
      8  C3B      -83.3610 -105.3970  -24.9280 C.3   441  NAI441      0.2184
      9  O3B      -84.5890 -105.9220  -25.2090 O.3   441  NAI441     -0.2174
     10  C2B      -83.5260 -104.3480  -24.0540 C.3   441  NAI441      0.2570
     11  O2B      -84.6770 -103.6820  -24.3930 O.3   441  NAI441     -0.2130
     12  C1B      -83.5800 -104.9720  -22.8200 C.3   441  NAI441      0.3186
     13  N9A      -83.2080 -104.1950  -21.6290 N.pl3 441  NAI441     -0.1439
     14  C8A      -81.8920 -104.2630  -20.9210 C.3   441  NAI441      0.3377
     15  N7A      -81.9220 -103.4310  -19.8560 N.2   441  NAI441     -0.2095
     16  C5A      -83.2920 -102.7700  -19.8130 C.2   441  NAI441      0.2526
     17  C6A      -83.9150 -101.7360  -18.8480 C.2   441  NAI441      0.4393
     18  N6A      -83.1450 -101.1350  -17.7490 N.pl3 441  NAI441      0.2180
     19  N1A      -85.0710 -101.3580  -19.0460 N.2   441  NAI441      0.0021
     20  C2A      -85.8680 -101.9190  -20.2470 C.3   441  NAI441      0.5254
     21  N3A      -85.3190 -102.8210  -21.0920 N.2   441  NAI441     -0.0055
     22  C4A      -84.0210 -103.2500  -20.8730 C.2   441  NAI441      0.3518
     23  O3       -78.4160 -106.5520  -25.7850 O.3   441  NAI441     -0.2703
     24  PN       -78.8080 -106.2750  -27.3730 P.3   441  NAI441      0.2189
     25  O1N      -78.0440 -105.1470  -27.8170 O.2   441  NAI441     -0.5170
     26  O2N      -80.3790 -105.8370  -27.6110 O.3   441  NAI441     -0.4371
     27  O5D      -78.3750 -107.6360  -28.2700 O.3   441  NAI441     -0.3112
     28  C5D      -77.2790 -108.5120  -27.9640 C.3   441  NAI441      0.1813
     29  C4D      -77.4080 -109.7870  -28.6900 C.3   441  NAI441      0.1799
     30  O4D      -77.7180 -109.5410  -30.0050 O.3   441  NAI441     -0.3327
     31  C3D      -76.2730 -110.5670  -28.7330 C.3   441  NAI441      0.2158
     32  O3D      -76.1150 -111.4450  -27.6630 O.3   441  NAI441     -0.2175
     33  C2D      -76.3430 -111.2110  -30.0190 C.3   441  NAI441      0.2309
     34  O2D      -76.2330 -112.5970  -30.0080 O.3   441  NAI441     -0.2158
     35  C1D      -77.5230 -110.7670  -30.5500 C.3   441  NAI441      0.2263
     36  N1N      -77.6210 -110.7920  -31.9310 N.pl3 441  NAI441     -0.2787
     37  C2N      -78.6890 -111.5450  -32.6580 C.3   441  NAI441      0.1244
     38  C3N      -78.8150 -111.5890  -33.9900 C.2   441  NAI441      0.0544
     39  C7N      -79.9460 -112.3770  -34.7350 C.2   441  NAI441      0.2818
     40  O7N      -79.9730 -112.3670  -35.9290 O.2   441  NAI441     -0.2670
     41  N7N      -80.9700 -113.1250  -34.0350 N.am  441  NAI441     -0.0839
     42  C4N      -77.7910 -110.8250  -34.8440 C.2   441  NAI441      0.0033
     43  C5N      -76.6930 -110.0680  -34.0000 C.2   441  NAI441      0.0157
     44  C6N      -76.6570 -110.0840  -32.6740 C.2   441  NAI441      0.0633
@<TRIPOS>BOND
     1    40    39    2
     2    42    43    1
     3    42    38    2
     4    39    41   am
     5    39    38    1
     6    43    44    2
     7    38    37    1
     8    44    36    1
     9    37    36    1
    10    36    35    1
    11    35    33    1
    12    35    30    1
    13    33    34    1
    14    33    31    1
    15    30    29    1
    16    31    29    1
    17    31    32    1
    18    29    28    1
    19    27    28    1
    20    27    24    1
    21    25    24    2
    22    26    24    1
    23    24    23    1
    24    23     1    1
    25     9     8    1
    26     8     6    1
    27     8    10    1
    28     2     1    2
    29     5     6    1
    30     5     4    1
    31     1     4    1
    32     1     3    1
    33    11    10    1
    34     6     7    1
    35    10    12    1
    36     7    12    1
    37    12    13    1
    38    13    14    1
    39    13    22    1
    40    21    22    2
    41    21    20    1
    42    14    15    1
    43    22    16    1
    44    20    19    1
    45    15    16    2
    46    16    17    1
    47    19    17    2
    48    17    18    1
