@<TRIPOS>MOLECULE
2ybb_FMN_1_1.pdb
 31 33 0 0 0
SMALL
GASTEIGER

@<TRIPOS>ATOM
      1  N1       -81.9550 -109.2460  -33.2670 N.2   440  FMN440     -0.2887
      2  C2       -82.5870 -109.8950  -34.2910 C.1   440  FMN440      0.3669
      3  O2       -83.6350 -110.4720  -34.0390 O.2   440  FMN440     -0.1744
      4  N3       -82.0370 -109.8940  -35.5630 N.2   440  FMN440     -0.2300
      5  C4       -80.8370 -109.2270  -35.8090 C.1   440  FMN440      0.2513
      6  O4       -80.3050 -109.1940  -36.9320 O.2   440  FMN440     -0.2057
      7  C4A      -80.2030 -108.5740  -34.7620 C.2   440  FMN440      0.2703
      8  N5       -79.0100 -107.9000  -34.9590 N.2   440  FMN440     -0.3882
      9  C5A      -78.4070 -107.2540  -33.8820 C.2   440  FMN440      0.1277
     10  C6       -77.2150 -106.5650  -34.0490 C.3   440  FMN440      0.0820
     11  C7       -76.6250 -105.9240  -32.9710 C.2   440  FMN440     -0.0408
     12  C7M      -75.3360 -105.1920  -33.1680 C.3   440  FMN440      0.0265
     13  C8       -77.2270 -105.9590  -31.7250 C.2   440  FMN440     -0.0280
     14  C8M      -76.5680 -105.2610  -30.5820 C.3   440  FMN440      0.0304
     15  C9       -78.4210 -106.6390  -31.5450 C.2   440  FMN440      0.0123
     16  C9A      -78.9960 -107.2770  -32.6320 C.2   440  FMN440      0.0793
     17  N10      -80.1570 -107.9620  -32.4740 N.pl3 440  FMN440     -0.2545
     18  C10      -80.7770 -108.5950  -33.5070 C.2   440  FMN440      0.2449
     19  C1'      -80.7430 -107.9660  -31.1320 C.3   440  FMN440      0.1336
     20  C2'      -81.8970 -107.0120  -31.1870 C.3   440  FMN440      0.2048
     21  O2'      -81.5860 -105.9280  -30.3090 O.3   440  FMN440     -0.2185
     22  C3'      -83.0580 -107.9750  -30.8940 C.3   440  FMN440      0.2165
     23  O3'      -83.6490 -108.4980  -32.0770 O.3   440  FMN440     -0.2175
     24  C4'      -84.1750 -107.5510  -29.9690 C.3   440  FMN440      0.2147
     25  O4'      -83.6020 -107.2620  -28.7110 O.3   440  FMN440     -0.2176
     26  C5'      -85.0780 -108.7870  -29.9600 C.3   440  FMN440      0.1892
     27  O5'      -85.9930 -108.8440  -28.8980 O.3   440  FMN440     -0.2674
     28  P        -85.9880 -110.2050  -28.0760 P.3   440  FMN440      0.5327
     29  O1P      -86.0540 -111.3750  -28.9970 O.2   440  FMN440     -0.2224
     30  O2P      -87.1640 -110.2000  -27.1490 O.3   440  FMN440     -0.1145
     31  O3P      -84.7020 -110.2730  -27.2930 O.3   440  FMN440     -0.1145
@<TRIPOS>BOND
     1     6     5    2
     2     5     4    2
     3     5     7    1
     4     4     2    2
     5     8     7    2
     6     8     9    2
     7     7    18    1
     8     2     3    2
     9     2     1    2
    10    10     9    1
    11    10    11    1
    12     9    16    1
    13    18     1    2
    14    18    17    1
    15    12    11    1
    16    11    13    2
    17    16    17    1
    18    16    15    2
    19    17    19    1
    20    23    22    1
    21    13    15    1
    22    13    14    1
    23    20    19    1
    24    20    22    1
    25    20    21    1
    26    22    24    1
    27    24    26    1
    28    24    25    1
    29    26    27    1
    30    29    28    2
    31    27    28    1
    32    28    31    1
    33    28    30    1
