@<TRIPOS>MOLECULE
2ybe_3PG_A_1.pdb
 11 10 0 0 0
SMALL
GASTEIGER

@<TRIPOS>ATOM
      1  C1        -1.4600   -8.7180   17.4940 C.2   1421  3PG1421     0.3972
      2  O1        -2.6050   -8.7060   16.9540 O.co2 1421  3PG1421    -0.2427
      3  O2        -1.2480   -9.1370   18.6910 O.co2 1421  3PG1421    -0.2427
      4  C2        -0.2060   -8.3330   16.6720 C.3   1421  3PG1421     0.2838
      5  O3        -0.4670   -8.0590   15.3350 O.3   1421  3PG1421    -0.2081
      6  C3         0.6970   -9.5960   16.6410 C.3   1421  3PG1421     0.1983
      7  O1P       -0.0450  -10.6310   16.0200 O.3   1421  3PG1421    -0.2669
      8  P          0.6600  -12.1930   16.4080 P.3   1421  3PG1421     0.5327
      9  O2P       -0.3550  -12.9510   15.5970 O.2   1421  3PG1421    -0.2224
     10  O3P        2.0980  -12.1270   15.9340 O.3   1421  3PG1421    -0.1145
     11  O4P        0.5030  -12.3750   17.9180 O.3   1421  3PG1421    -0.1145
@<TRIPOS>BOND
     1     5     4    1
     2     9     8    2
     3    10     8    1
     4     7     8    1
     5     7     6    1
     6     8    11    1
     7     6     4    1
     8     4     1    1
     9     2     1   ar
    10     1     3   ar
