@<TRIPOS>MOLECULE
2ybe_LA8_A_1.pdb
 27 29 0 0 0
SMALL
GASTEIGER

@<TRIPOS>ATOM
      1  N1       -11.0810  -18.2500   23.2340 N.2   1419  LA81419     0.0021
      2  C2       -10.9810  -17.2290   22.3890 C.3   1419  LA81419     0.5254
      3  N3       -10.9400  -15.9480   22.7780 N.2   1419  LA81419    -0.0055
      4  C4       -11.0420  -15.6480   24.0700 C.2   1419  LA81419     0.3518
      5  C5       -11.1470  -16.6820   24.9960 C.2   1419  LA81419     0.2526
      6  C6       -11.1550  -17.9890   24.5480 C.2   1419  LA81419     0.4393
      7  N6       -11.2070  -18.9620   25.4540 N.pl3 1419  LA81419     0.2180
      8  N7       -11.1550  -16.1450   26.2130 N.2   1419  LA81419    -0.2095
      9  C8       -11.1180  -14.7660   26.0460 C.3   1419  LA81419     0.3377
     10  N9       -11.0450  -14.4650   24.7280 N.pl3 1419  LA81419    -0.1439
     11  PA        -5.7040  -11.3720   22.1370 P.3   1419  LA81419     0.2231
     12  PB        -5.0960   -8.7740   21.9920 P.3   1419  LA81419     0.5373
     13  C1'      -10.9810  -13.0750   24.0490 C.3   1419  LA81419     0.3186
     14  O1A       -5.6160  -11.4540   20.4230 O.2   1419  LA81419    -0.5169
     15  O1B       -3.4670   -8.5320   21.8440 O.3   1419  LA81419    -0.1143
     16  C2'      -10.7040  -12.8480   21.6110 C.3   1419  LA81419     0.2184
     17  O2'      -11.2500  -11.9230   20.6610 O.3   1419  LA81419    -0.2174
     18  O2A       -5.1880  -12.5830   22.7980 O.3   1419  LA81419    -0.4370
     19  O2B       -5.4490   -7.5620   22.9370 O.3   1419  LA81419    -0.1143
     20  C3'      -11.7570  -13.0500   22.7190 C.3   1419  LA81419     0.2570
     21  O3'      -12.5610  -11.8460   22.7310 O.3   1419  LA81419    -0.2130
     22  O3A       -5.1100  -10.1130   22.7780 O.3   1419  LA81419    -0.2261
     23  O3B       -5.8190   -8.7070   20.6590 O.2   1419  LA81419    -0.2221
     24  C4'       -9.6600  -12.0750   22.3740 C.3   1419  LA81419     0.1821
     25  O4'       -9.6350  -12.7670   23.6800 O.3   1419  LA81419    -0.3135
     26  C5'       -8.2720  -12.2050   21.7810 C.3   1419  LA81419     0.1813
     27  O5'       -7.3450  -11.2820   22.4730 O.3   1419  LA81419    -0.3111
@<TRIPOS>BOND
     1    14    11    2
     2    23    12    2
     3    17    16    1
     4    16    24    1
     5    16    20    1
     6    26    24    1
     7    26    27    1
     8    15    12    1
     9    12    22    1
    10    12    19    1
    11    11    27    1
    12    11    22    1
    13    11    18    1
    14    24    25    1
    15     2     3    1
    16     2     1    1
    17    20    21    1
    18    20    13    1
    19     3     4    2
    20     1     6    2
    21    25    13    1
    22    13    10    1
    23     4    10    1
    24     4     5    1
    25     6     5    1
    26     6     7    1
    27    10     9    1
    28     5     8    2
    29     9     8    1
