@<TRIPOS>MOLECULE
2ybk_2HG_A_1.pdb
 10 9 0 0 0
SMALL
GASTEIGER

@<TRIPOS>ATOM
      1  C1       -24.0610  -21.5210    4.3850 C.2   601  2HG601      0.3946
      2  O1       -23.2290  -21.6140    3.4560 O.co2 601  2HG601     -0.2428
      3  C2       -25.5210  -21.8220    4.0420 C.3   601  2HG601      0.2545
      4  O2       -23.8090  -21.2040    5.5670 O.co2 601  2HG601     -0.2428
      5  C3       -26.4130  -21.4370    5.2240 C.3   601  2HG601      0.0565
      6  O3       -25.9060  -21.0700    2.8890 O.3   601  2HG601     -0.2109
      7  C4       -27.8590  -21.8770    4.9860 C.3   601  2HG601      0.1173
      8  O4       -29.9500  -21.2640    5.9310 O.co2 601  2HG601     -0.2457
      9  C5       -28.7480  -21.5070    6.1750 C.2   601  2HG601      0.3650
     10  O5       -28.2050  -21.4750    7.3000 O.co2 601  2HG601     -0.2457
@<TRIPOS>BOND
     1     6     3    1
     2     2     1   ar
     3     3     1    1
     4     3     5    1
     5     1     4   ar
     6     7     5    1
     7     7     9    1
     8     8     9   ar
     9     9    10   ar
