@<TRIPOS>MOLECULE
2ybp_2HG_A_1.pdb
 10 9 0 0 0
SMALL
GASTEIGER

@<TRIPOS>ATOM
      1  C1        39.4000  -55.7770   -1.5500 C.2   1359  2HG1359     0.3946
      2  O1        38.4050  -55.6990   -2.3080 O.co2 1359  2HG1359    -0.2428
      3  C2        40.5730  -54.8430   -1.8450 C.3   1359  2HG1359     0.2545
      4  O2        39.5170  -56.5370   -0.5660 O.co2 1359  2HG1359    -0.2428
      5  C3        41.8450  -55.3780   -1.1870 C.3   1359  2HG1359     0.0565
      6  O3        40.7940  -54.7200   -3.2520 O.3   1359  2HG1359    -0.2109
      7  C4        43.0190  -54.4630   -1.5350 C.3   1359  2HG1359     0.1173
      8  O4        44.2210  -55.0580    0.4130 O.co2 1359  2HG1359    -0.2457
      9  C5        44.2890  -54.9390   -0.8300 C.2   1359  2HG1359     0.3650
     10  O5        45.2820  -55.1770   -1.5490 O.co2 1359  2HG1359    -0.2457
@<TRIPOS>BOND
     1     6     3    1
     2     2     1   ar
     3     3     1    1
     4     3     5    1
     5     1     4   ar
     6    10     9   ar
     7     7     5    1
     8     7     9    1
     9     9     8   ar
