@<TRIPOS>MOLECULE
2ybs_S2G_A_1.pdb
 10 9 0 0 0
SMALL
GASTEIGER

@<TRIPOS>ATOM
      1  C1        11.2850   18.8850    1.6690 C.2   1359  S2G1359     0.3946
      2  C3         8.8500   19.2890    1.2680 C.3   1359  S2G1359     0.0565
      3  C4         7.4760   19.3740    1.9260 C.3   1359  S2G1359     0.1173
      4  C5         6.3730   19.6680    0.8990 C.2   1359  S2G1359     0.3650
      5  O2        12.2670   19.3450    2.2910 O.co2 1359  S2G1359    -0.2428
      6  O1        11.3170   18.3240    0.5510 O.co2 1359  S2G1359    -0.2428
      7  O3         9.8880   20.0540    3.2960 O.3   1359  S2G1359    -0.2109
      8  O5         5.1970   19.5680    1.3010 O.co2 1359  S2G1359    -0.2457
      9  C2         9.9100   18.9970    2.3330 C.3   1359  S2G1359     0.2545
     10  O4         6.7410   19.9830   -0.2540 O.co2 1359  S2G1359    -0.2457
@<TRIPOS>BOND
     1    10     4   ar
     2     6     1   ar
     3     4     8   ar
     4     4     3    1
     5     2     3    1
     6     2     9    1
     7     1     5   ar
     8     1     9    1
     9     9     7    1
