@<TRIPOS>MOLECULE
2ybt_DW0_A_1.pdb
 29 32 0 0 0
SMALL
GASTEIGER

@<TRIPOS>ATOM
      1  N1        26.7730  -31.7400  -41.8440 N.am  1399  DW01399    -0.1920
      2  C2        27.6310  -30.8100  -41.3050 C.2   1399  DW01399     0.4044
      3  O2        28.8550  -30.7840  -41.6500 O.2   1399  DW01399    -0.2230
      4  N3        27.0880  -29.9170  -40.3830 N.am  1399  DW01399    -0.1218
      5  C4        25.6880  -30.0210  -39.9980 C.2   1399  DW01399     0.3276
      6  C5        24.8200  -30.9870  -40.5760 C.3   1399  DW01399     0.2453
      7  C6        25.3860  -31.8430  -41.5260 C.2   1399  DW01399     0.2609
      8  O6        24.7130  -32.7090  -42.1260 O.2   1399  DW01399    -0.2723
      9  N7        23.5880  -30.8060  -40.0070 N.3   1399  DW01399    -0.2098
     10  C8        23.6740  -29.7920  -39.1320 C.3   1399  DW01399     0.3428
     11  N9        24.9300  -29.2990  -39.1340 N.2   1399  DW01399    -0.0479
     12  N10       28.5050  -36.1870  -43.2990 N.am  1399  DW01399    -0.1920
     13  CA0       28.1620  -34.7680  -43.5540 C.3   1399  DW01399     0.1065
     14  CAA       22.2500  -31.5370  -40.2420 C.3   1399  DW01399     0.0945
     15  CAB       25.6560  -39.8500  -42.8900 C.3   1399  DW01399     0.0945
     16  CAC       28.0360  -28.9120  -39.7870 C.3   1399  DW01399     0.2626
     17  CAD       31.6400  -38.2890  -42.8160 C.3   1399  DW01399     0.2626
     18  OAF       26.2600  -36.7080  -43.3690 O.2   1399  DW01399    -0.2723
     19  OAH       30.8060  -35.8350  -43.2340 O.2   1399  DW01399    -0.2230
     20  CAJ       27.9900  -40.6500  -42.6220 C.3   1399  DW01399     0.3428
     21  CAK       27.3460  -32.6410  -42.8600 C.3   1399  DW01399     0.1065
     22  CAL       27.5600  -34.0520  -42.3350 C.3   1399  DW01399     0.0442
     23  NAN       29.2470  -40.1200  -42.6340 N.2   1399  DW01399    -0.0479
     24  CAP       27.4330  -37.1360  -43.2180 C.2   1399  DW01399     0.2609
     25  CAR       29.8580  -36.6100  -43.1840 C.2   1399  DW01399     0.4044
     26  CAT       29.1550  -38.8260  -42.8430 C.2   1399  DW01399     0.3276
     27  CAV       27.7920  -38.4750  -42.9730 C.3   1399  DW01399     0.2453
     28  NAX       27.1230  -39.6350  -42.8190 N.3   1399  DW01399    -0.2098
     29  NAZ       30.1830  -37.9070  -42.9540 N.am  1399  DW01399    -0.1218
@<TRIPOS>BOND
     1    13    12    1
     2    13    22    1
     3    18    24    2
     4    12    24   am
     5    12    25   am
     6    19    25    2
     7    24    27    1
     8    25    29   am
     9    27    26    1
    10    27    28    1
    11    29    26    1
    12    29    17    1
    13    15    28    1
    14    21    22    1
    15    21     1    1
    16    26    23    2
    17    28    20    1
    18    23    20    1
    19     8     7    2
    20     1     7   am
    21     1     2   am
    22     3     2    2
    23     7     6    1
    24     2     4   am
    25     6     9    1
    26     6     5    1
    27     4     5    1
    28     4    16    1
    29    14     9    1
    30     9    10    1
    31     5    11    2
    32    11    10    1
