@<TRIPOS>MOLECULE
2ybu_CX9_A_1.pdb
 28 31 0 0 0
SMALL
GASTEIGER

@<TRIPOS>ATOM
      1  O6        26.2630  -36.9630  -42.8820 O.2   1398  CX91398    -0.2723
      2  C6        27.4710  -37.1950  -42.7660 C.2   1398  CX91398     0.2609
      3  C5        27.9460  -38.4690  -42.5360 C.3   1398  CX91398     0.2453
      4  N1        28.4110  -36.1940  -42.9100 N.am  1398  CX91398    -0.1920
      5  N7        27.3270  -39.6150  -42.3560 N.3   1398  CX91398    -0.2098
      6  C4        29.2970  -38.7440  -42.4460 C.2   1398  CX91398     0.3276
      7  CAA       25.8540  -39.8250  -42.4170 C.3   1398  CX91398     0.0945
      8  C8        28.2690  -40.5710  -42.1940 C.3   1398  CX91398     0.3428
      9  N9        29.5010  -40.0080  -42.2380 N.2   1398  CX91398    -0.0479
     10  N3        30.2210  -37.7760  -42.5470 N.am  1398  CX91398    -0.1218
     11  CAC       31.7360  -38.1630  -42.4400 C.3   1398  CX91398     0.2626
     12  C2        29.7510  -36.5110  -42.8020 C.2   1398  CX91398     0.4044
     13  O2        30.5670  -35.6250  -42.8730 O.2   1398  CX91398    -0.2230
     14  CAK       27.9510  -34.8270  -43.1830 C.3   1398  CX91398     0.1067
     15  CAL       27.5260  -34.0460  -41.9380 C.3   1398  CX91398     0.0468
     16  CA0       27.2560  -32.6530  -42.5100 C.3   1398  CX91398     0.1154
     17  N10       26.5970  -31.8070  -41.5000 N.ar  1398  CX91398    -0.2474
     18  CAP       25.2540  -31.9750  -41.2150 C.ar  1398  CX91398     0.2845
     19  CAR       27.3770  -30.8700  -40.8470 C.ar  1398  CX91398     0.3350
     20  OAF       24.6020  -32.8790  -41.8320 O.2   1398  CX91398    -0.2651
     21  CAV       24.6840  -31.1210  -40.2810 C.ar  1398  CX91398     0.1681
     22  NAX       23.4410  -31.0510  -39.7770 N.2   1398  CX91398    -0.2364
     23  CAT       25.4600  -30.1810  -39.6020 C.ar  1398  CX91398     0.1668
     24  CAJ       23.3920  -30.0950  -38.8330 C.3   1398  CX91398     0.2523
     25  NAN       24.6380  -29.5220  -38.7460 N.2   1398  CX91398    -0.2256
     26  NAZ       26.8340  -30.0430  -39.9220 N.ar  1398  CX91398    -0.2630
     27  CAD       27.7730  -29.0380  -39.2860 C.3   1398  CX91398     0.1366
     28  OAH       28.5820  -30.7580  -41.1290 O.2   1398  CX91398    -0.2461
@<TRIPOS>BOND
     1    14     4    1
     2    14    15    1
     3     4    12   am
     4     4     2   am
     5     1     2    2
     6    13    12    2
     7    12    10   am
     8     2     3    1
     9    10     6    1
    10    10    11    1
    11     3     6    1
    12     3     5    1
    13    16    15    1
    14    16    17    1
    15     6     9    2
    16     7     5    1
    17     5     8    1
    18     9     8    1
    19    20    18    2
    20    17    18   ar
    21    17    19   ar
    22    18    21   ar
    23    28    19    2
    24    19    26   ar
    25    21    22    2
    26    21    23   ar
    27    26    23   ar
    28    26    27    1
    29    22    24    1
    30    23    25    2
    31    24    25    1
