@<TRIPOS>MOLECULE
2yc0_2HG_A_1.pdb
 10 9 0 0 0
SMALL
GASTEIGER

@<TRIPOS>ATOM
      1  C1        22.5370   25.2660   27.9690 C.2   601  2HG601      0.3946
      2  O1        23.6720   25.6980   28.2870 O.co2 601  2HG601     -0.2428
      3  C2        21.3470   26.1910   28.2830 C.3   601  2HG601      0.2545
      4  O2        22.2880   24.1810   27.4270 O.co2 601  2HG601     -0.2428
      5  C3        20.1320   25.3330   28.6500 C.3   601  2HG601      0.0565
      6  O3        21.6750   27.0990   29.3240 O.3   601  2HG601     -0.2109
      7  C4        18.9490   26.2480   29.0140 C.3   601  2HG601      0.1173
      8  O4        16.7090   25.8740   29.6990 O.co2 601  2HG601     -0.2457
      9  C5        17.6020   25.5450   28.8910 C.2   601  2HG601      0.3650
     10  O5        17.4660   24.7290   27.9470 O.co2 601  2HG601     -0.2457
@<TRIPOS>BOND
     1     4     1   ar
     2    10     9   ar
     3     1     3    1
     4     1     2   ar
     5     3     5    1
     6     3     6    1
     7     5     7    1
     8     9     7    1
     9     9     8   ar
