@<TRIPOS>MOLECULE
2yc3_MW5_A_1.pdb
 18 20 0 0 0
SMALL
GASTEIGER

@<TRIPOS>ATOM
      1  O         17.1090   55.4690  -19.6490 O.2   1301  MW51301    -0.2716
      2  C5        16.8120   56.6680  -19.3450 C.2   1301  MW51301     0.2651
      3  N2        17.6400   57.6880  -19.6690 N.am  1301  MW51301    -0.0856
      4  N3        18.7970   57.6320  -20.3240 N.2   1301  MW51301    -0.1380
      5  C1        19.2010   58.8760  -20.3610 C.2   1301  MW51301     0.2300
      6  C4        15.6430   56.9700  -18.6920 C.3   1301  MW51301     0.1479
      7  C3        15.4030   58.3390  -18.4580 C.2   1301  MW51301     0.1872
      8 CL         13.9100   58.7940  -17.7390 Cl    1301  MW51301    -0.0511
      9  N4        16.1950   59.3450  -18.8200 N.2   1301  MW51301    -0.3283
     10  C2        17.3290   59.0170  -19.4590 C.1   1301  MW51301     0.1766
     11  N1        18.2900   59.7730  -19.8880 N.2   1301  MW51301    -0.1454
     12  C6        14.6590   55.9450  -18.2050 C.3   1301  MW51301     0.0436
     13  C7        13.6500   55.3820  -19.1800 C.ar  1301  MW51301    -0.0212
     14  C12       13.9380   55.2020  -20.5390 C.ar  1301  MW51301    -0.0042
     15  C11       13.0000   54.6660  -21.4020 C.ar  1301  MW51301    -0.0003
     16  C10       11.8100   54.2030  -20.9190 C.ar  1301  MW51301    -0.0000
     17  C9        11.5470   54.3630  -19.5530 C.ar  1301  MW51301    -0.0003
     18  C8        12.4570   54.9540  -18.7260 C.ar  1301  MW51301    -0.0042
@<TRIPOS>BOND
     1    15    16   ar
     2    15    14   ar
     3    16    17   ar
     4    14    13   ar
     5     5     4    2
     6     5    11    1
     7     4     3    1
     8    11    10    2
     9     3    10    1
    10     3     2   am
    11     1     2    2
    12    17    18   ar
    13    10     9    2
    14     2     6    1
    15    13    18   ar
    16    13    12    1
    17     9     7    2
    18     6     7    1
    19     6    12    1
    20     7     8    1
