@<TRIPOS>MOLECULE
2yc5_6BC_A_1.pdb
 20 22 0 0 0
SMALL
GASTEIGER

@<TRIPOS>ATOM
      1 CL17       13.8850   58.7160  -17.3980 Cl    1300  6BC1300    -0.0519
      2  C16       15.3740   58.3100  -18.2180 C.2   1300  6BC1300     0.1762
      3  N18       16.1300   59.3620  -18.5030 N.2   1300  6BC1300    -0.3768
      4  C4        17.2570   59.0470  -19.1630 C.2   1300  6BC1300     0.2182
      5  C8        15.6300   56.9630  -18.5150 C.3   1300  6BC1300     0.1462
      6  C6        16.8080   56.7010  -19.2240 C.2   1300  6BC1300     0.2561
      7  O7        17.1600   55.4890  -19.5650 O.2   1300  6BC1300    -0.2724
      8  N5        17.6170   57.7940  -19.4710 N.am  1300  6BC1300    -0.1385
      9  N19       18.8160   57.7300  -20.1790 N.pl3 1300  6BC1300    -0.1362
     10  C20       19.2400   59.0070  -20.2700 C.2   1300  6BC1300     0.1187
     11  C1        18.2690   59.8020  -19.6510 C.2   1300  6BC1300     0.1320
     12  C2        18.3560   61.1320  -19.5470 C.1   1300  6BC1300     0.1058
     13  N3        18.4310   62.2770  -19.4460 N.1   1300  6BC1300    -0.1907
     14  C9        14.6740   55.9010  -18.1090 C.3   1300  6BC1300     0.0436
     15  C10       13.6890   55.3660  -19.1140 C.ar  1300  6BC1300    -0.0213
     16  C15       14.0180   55.1840  -20.4390 C.ar  1300  6BC1300    -0.0042
     17  C14       13.0420   54.6520  -21.3120 C.ar  1300  6BC1300    -0.0003
     18  C13       11.7740   54.3370  -20.8630 C.ar  1300  6BC1300    -0.0000
     19  C12       11.4560   54.6000  -19.5340 C.ar  1300  6BC1300    -0.0003
     20  C11       12.4320   55.0740  -18.6820 C.ar  1300  6BC1300    -0.0042
@<TRIPOS>BOND
     1    17    18   ar
     2    17    16   ar
     3    18    19   ar
     4    16    15   ar
     5    10     9    1
     6    10    11    2
     7     9     8    1
     8    11    12    1
     9    11     4    1
    10     7     6    2
    11    12    13    3
    12    19    20   ar
    13     8     6   am
    14     8     4    1
    15     6     5    1
    16     4     3    2
    17    15    20   ar
    18    15    14    1
    19     5     2    1
    20     5    14    1
    21     3     2    2
    22     2     1    1
