@<TRIPOS>MOLECULE
2yca_ZM3_A_1.pdb
 48 50 0 0 0
SMALL
GASTEIGER

@<TRIPOS>ATOM
      1  O5        14.7700  -25.0210   11.5820 O.2   460  ZM3460     -0.2449
      2  C24       14.6330  -24.4590   10.4920 C.2   460  ZM3460      0.3410
      3  O6        13.6140  -23.4450   10.3000 O.3   460  ZM3460     -0.4488
      4  C25       12.9200  -22.9710   11.4440 C.3   460  ZM3460      0.1755
      5  C28       13.6080  -21.6950   11.9670 C.3   460  ZM3460      0.0918
      6  C1        15.1080  -21.9400   12.2170 C.2   460  ZM3460     -0.0203
      7  C2        15.9960  -21.6950   11.2160 C.2   460  ZM3460     -0.0043
      8  C29       12.8790  -21.3510   13.2480 C.3   460  ZM3460      0.1527
      9  O7        13.3590  -20.1150   13.7760 O.3   460  ZM3460     -0.3282
     10  C26       11.4790  -22.7540   11.0010 C.3   460  ZM3460      0.0441
     11  C27       10.9600  -24.0570   10.4560 C.3   460  ZM3460      0.0038
     12  C23       15.4560  -24.7270    9.3020 C.2   460  ZM3460      0.0774
     13  C22       16.4280  -25.6380    9.3630 C.2   460  ZM3460     -0.0174
     14  C20       17.2000  -25.9070    8.1020 C.3   460  ZM3460      0.0495
     15  C21       16.4750  -27.1280    7.4720 C.3   460  ZM3460      0.0072
     16  C11       18.6310  -26.2670    8.5200 C.3   460  ZM3460      0.1217
     17  C9        19.3830  -25.1370    9.2270 C.3   460  ZM3460      0.0281
     18  C10       20.6260  -25.6810    9.9950 C.3   460  ZM3460      0.0025
     19  C8        19.6770  -23.9690    8.2590 C.3   460  ZM3460      0.0101
     20  C6        20.3890  -22.7880    8.9860 C.3   460  ZM3460      0.0620
     21  C7        20.5420  -21.6430    8.0270 C.3   460  ZM3460      0.0081
     22  C5        19.6440  -22.3950   10.2390 C.2   460  ZM3460      0.1727
     23  O1        20.2580  -22.4390   11.2930 O.2   460  ZM3460     -0.2914
     24  C4        18.1810  -22.0520   10.2280 C.2   460  ZM3460      0.0374
     25  C3        17.4470  -21.9510   11.3480 C.2   460  ZM3460      0.0026
     26  O2        19.2880  -26.6740    7.3300 O.3   460  ZM3460     -0.3308
     27  C12       19.6560  -28.0830    7.2640 C.3   460  ZM3460      0.2679
     28  O4        20.8150  -28.3010    8.0740 O.3   460  ZM3460     -0.3311
     29  C18       21.3550  -29.6540    8.0730 C.3   460  ZM3460      0.1194
     30  C19       22.5050  -29.7340    9.0730 C.3   460  ZM3460      0.0322
     31  C17       21.7370  -30.0700    6.6410 C.3   460  ZM3460      0.0483
     32  C14       20.4780  -29.8770    5.8150 C.3   460  ZM3460      0.0957
     33  N         20.6540  -30.2350    4.4120 N.3   460  ZM3460     -0.2691
     34  C16       20.2420  -31.5800    4.1030 C.3   460  ZM3460      0.0897
     35  C15       21.7260  -29.6710    3.5710 C.3   460  ZM3460      0.0897
     36  C13       20.0260  -28.4090    5.8400 C.3   460  ZM3460      0.2224
     37  O3        18.8710  -28.2810    5.0110 O.3   460  ZM3460     -0.2163
     38  O11       11.6130  -20.3760   15.3830 O.3   460  ZM3460     -0.3284
     39  C36       11.1790  -20.2890   16.7610 C.3   460  ZM3460      0.1508
     40  C35       11.4100  -18.8520   17.2820 C.3   460  ZM3460      0.2116
     41  C33       12.8130  -18.2960   16.9670 C.3   460  ZM3460      0.2165
     42  C31       13.2890  -18.5600   15.5400 C.3   460  ZM3460      0.2041
     43  C30       12.9980  -19.9970   15.1420 C.3   460  ZM3460      0.2660
     44  C37        9.6900  -20.6380   16.8550 C.3   460  ZM3460      0.0350
     45  O10       11.1620  -18.7380   18.7060 O.3   460  ZM3460     -0.2177
     46  O9        13.8070  -18.8830   17.8290 O.3   460  ZM3460     -0.2175
     47  O8        14.7060  -18.4200   15.5920 O.3   460  ZM3460     -0.3457
     48  C32       15.3330  -18.1880   14.3300 C.3   460  ZM3460      0.1743
@<TRIPOS>BOND
     1    35    33    1
     2    34    33    1
     3    33    32    1
     4    37    36    1
     5    32    36    1
     6    32    31    1
     7    36    27    1
     8    31    29    1
     9    27    26    1
    10    27    28    1
    11    26    16    1
    12    15    14    1
    13    21    20    1
    14    29    28    1
    15    29    30    1
    16    14    16    1
    17    14    13    1
    18    19    20    1
    19    19    17    1
    20    16    17    1
    21    20    22    1
    22    17    18    1
    23    12    13    2
    24    12     2    1
    25    24    22    1
    26    24    25    2
    27    22    23    2
    28     3     2    1
    29     3     4    1
    30    11    10    1
    31     2     1    2
    32    10     4    1
    33     7    25    1
    34     7     6    2
    35     4     5    1
    36     5     6    1
    37     5     8    1
    38     8     9    1
    39     9    43    1
    40    48    47    1
    41    43    38    1
    42    43    42    1
    43    38    39    1
    44    42    47    1
    45    42    41    1
    46    39    44    1
    47    39    40    1
    48    41    40    1
    49    41    46    1
    50    40    45    1
