@<TRIPOS>MOLECULE
2yca_HEM_A_1.pdb
 43 50 0 0 0
SMALL
GASTEIGER

@<TRIPOS>ATOM
      1  CHA       13.1010  -27.5350    5.5020 C.2   450  HEM450      0.0000
      2  CHB       16.8100  -27.4900    2.3650 C.2   450  HEM450      0.0000
      3  CHC       15.6940  -22.8570    1.1710 C.2   450  HEM450      0.0000
      4  CHD       12.0980  -22.8670    4.3450 C.2   450  HEM450      0.0000
      5  C1A       14.1760  -27.9470    4.7440 C.ar  450  HEM450      0.0000
      6  C2A       14.7660  -29.2900    4.6800 C.ar  450  HEM450      0.0000
      7  C3A       15.7710  -29.2550    3.7930 C.ar  450  HEM450      0.0000
      8  C4A       15.8850  -27.9090    3.3000 C.ar  450  HEM450      0.0000
      9  CMA       16.7570  -30.3980    3.4100 C.3   450  HEM450      0.0000
     10  CAA       14.3160  -30.5500    5.4740 C.3   450  HEM450      0.0000
     11  CBA       15.0760  -30.5970    6.8080 C.3   450  HEM450      0.0000
     12  CGA       14.7890  -31.8840    7.5510 C.2   450  HEM450      0.0000
     13  O1A       13.7800  -32.5960    7.2610 O.co2 450  HEM450      0.0000
     14  O2A       15.5630  -32.1930    8.4650 O.co2 450  HEM450      0.0000
     15  C1B       16.8740  -26.2130    1.8450 C.2   450  HEM450      0.0000
     16  C2B       17.8860  -25.7470    0.9370 C.2   450  HEM450      0.0000
     17  C3B       17.5620  -24.4450    0.6190 C.2   450  HEM450      0.0000
     18  C4B       16.3810  -24.0570    1.3240 C.2   450  HEM450      0.0000
     19  CMB       19.1020  -26.6090    0.4460 C.3   450  HEM450      0.0000
     20  CAB       18.3260  -23.4580   -0.2690 C.2   450  HEM450      0.0000
     21  CBB       18.9940  -23.9130   -1.3090 C.2   450  HEM450      0.0000
     22  C1C       14.5540  -22.4990    1.8540 C.ar  450  HEM450      0.0000
     23  C2C       13.8050  -21.2760    1.6420 C.ar  450  HEM450      0.0000
     24  C3C       12.8090  -21.2660    2.5720 C.ar  450  HEM450      0.0000
     25  C4C       12.9220  -22.4820    3.3390 C.ar  450  HEM450      0.0000
     26  CMC       14.1940  -20.2720    0.4970 C.3   450  HEM450      0.0000
     27  CAC       11.6640  -20.2280    2.8660 C.2   450  HEM450      0.0000
     28  CBC       11.5050  -19.1710    2.0410 C.2   450  HEM450      0.0000
     29  C1D       12.0800  -24.1030    4.9820 C.2   450  HEM450      0.0000
     30  C2D       11.1670  -24.4360    6.0650 C.2   450  HEM450      0.0000
     31  C3D       11.4960  -25.8540    6.4400 C.2   450  HEM450      0.0000
     32  C4D       12.5270  -26.2680    5.5130 C.2   450  HEM450      0.0000
     33  CMD       10.1310  -23.5620    6.7840 C.3   450  HEM450      0.0000
     34  CAD       10.8390  -26.7380    7.5310 C.3   450  HEM450      0.0000
     35  CBD        9.6050  -27.3700    6.8260 C.3   450  HEM450      0.0000
     36  CGD        8.8990  -28.3320    7.7830 C.2   450  HEM450      0.0000
     37  O1D        9.5090  -28.6990    8.8260 O.co2 450  HEM450      0.0000
     38  O2D        7.7090  -28.7370    7.5370 O.co2 450  HEM450      0.0000
     39  NA        14.8710  -27.1700    3.8600 N.ar  450  HEM450      0.0000
     40  NB        15.9430  -25.1500    2.0400 N.2   450  HEM450      0.0000
     41  NC        13.9700  -23.2280    2.8590 N.ar  450  HEM450      0.0000
     42  ND        12.8420  -25.2200    4.6770 N.2   450  HEM450      0.0000
     43 FE         14.3630  -25.1970    3.3120 Fe    450  HEM450      0.0000
@<TRIPOS>BOND
     1    21    20    2
     2    20    17    1
     3    19    16    1
     4    26    23    1
     5    17    16    2
     6    17    18    1
     7    16    15    1
     8     3    18    2
     9     3    22    1
    10    18    40    1
    11    23    22   ar
    12    23    24   ar
    13    15    40    2
    14    15     2    1
    15    22    41   ar
    16    40    43    1
    17    28    27    2
    18     2     8    2
    19    24    27    1
    20    24    25   ar
    21    41    43    1
    22    41    25   ar
    23     8     7   ar
    24     8    39   ar
    25    43    39    1
    26    43    42    1
    27    25     4    1
    28     9     7    1
    29     7     6   ar
    30    39     5   ar
    31     4    29    2
    32    42    29    1
    33    42    32    2
    34     6     5   ar
    35     6    10    1
    36     5     1    2
    37    29    30    1
    38    10    11    1
    39     1    32    1
    40    32    31    1
    41    30    31    2
    42    30    33    1
    43    31    34    1
    44    11    12    1
    45    35    34    1
    46    35    36    1
    47    13    12   ar
    48    38    36   ar
    49    12    14   ar
    50    36    37   ar
