@<TRIPOS>MOLECULE
2ycc_HEM_A_1.pdb
 43 50 0 0 0
SMALL
GASTEIGER

@<TRIPOS>ATOM
      1 FE          2.8590   20.8780   13.0680 Fe    104  HEM104      0.0000
      2  CHA        5.0330   18.4630   14.1640 C.2   104  HEM104      0.0000
      3  CHB        3.9700   20.6400    9.9640 C.2   104  HEM104      0.0000
      4  CHC        0.1880   22.6670   12.1540 C.2   104  HEM104      0.0000
      5  CHD        2.3530   21.8150   16.3320 C.2   104  HEM104      0.0000
      6  NA         4.2720   19.7800   12.2410 N.ar  104  HEM104      0.0000
      7  C1A        5.0310   18.7860   12.8310 C.ar  104  HEM104      0.0000
      8  C2A        5.8110   18.1310   11.8130 C.ar  104  HEM104      0.0000
      9  C3A        5.5730   18.7200   10.6350 C.ar  104  HEM104      0.0000
     10  C4A        4.5930   19.7560   10.8560 C.ar  104  HEM104      0.0000
     11  CMA        6.0890   18.3200    9.2450 C.3   104  HEM104      0.0000
     12  CAA        6.7750   16.9490   12.1340 C.3   104  HEM104      0.0000
     13  CBA        8.0460   17.3650   12.8170 C.3   104  HEM104      0.0000
     14  CGA        9.4010   16.8260   12.5880 C.2   104  HEM104      0.0000
     15  O1A       10.3630   17.6010   12.4470 O.co2 104  HEM104      0.0000
     16  O2A        9.6630   15.6000   12.7270 O.co2 104  HEM104      0.0000
     17  NB         2.0960   21.4410   11.3310 N.2   104  HEM104      0.0000
     18  C1B        2.8260   21.4250   10.1420 C.2   104  HEM104      0.0000
     19  C2B        2.0580   22.1930    9.1520 C.2   104  HEM104      0.0000
     20  C3B        1.0240   22.7540    9.7740 C.2   104  HEM104      0.0000
     21  C4B        1.0690   22.3150   11.1550 C.2   104  HEM104      0.0000
     22  CMB        2.4710   22.3150    7.6710 C.3   104  HEM104      0.0000
     23  CAB       -0.1010   23.6910    9.2260 C.3   104  HEM104      0.0000
     24  CBB       -1.3290   23.2090    8.5310 C.3   104  HEM104      0.0000
     25  NC         1.5350   22.0420   14.0540 N.ar  104  HEM104      0.0000
     26  C1C        0.4930   22.6700   13.5080 C.ar  104  HEM104      0.0000
     27  C2C       -0.2780   23.3720   14.5400 C.ar  104  HEM104      0.0000
     28  C3C        0.3570   23.1940   15.6990 C.ar  104  HEM104      0.0000
     29  C4C        1.4860   22.3010   15.4180 C.ar  104  HEM104      0.0000
     30  CMC       -1.5870   24.1940   14.2410 C.3   104  HEM104      0.0000
     31  CAC       -0.0670   23.7710   17.0800 C.3   104  HEM104      0.0000
     32  CBC       -1.5830   23.7930   17.4490 C.3   104  HEM104      0.0000
     33  ND         3.5440   20.2420   14.8870 N.2   104  HEM104      0.0000
     34  C1D        3.1590   20.7420   16.1140 C.2   104  HEM104      0.0000
     35  C2D        3.7880   19.9420   17.1540 C.2   104  HEM104      0.0000
     36  C3D        4.5190   19.0250   16.5600 C.2   104  HEM104      0.0000
     37  C4D        4.3590   19.1480   15.1270 C.2   104  HEM104      0.0000
     38  CMD        3.5220   20.0930   18.6830 C.3   104  HEM104      0.0000
     39  CAD        5.3300   17.8800   17.2540 C.3   104  HEM104      0.0000
     40  CBD        4.4290   16.6650   17.4000 C.3   104  HEM104      0.0000
     41  CGD        4.8970   15.6160   18.3760 C.2   104  HEM104      0.0000
     42  O1D        5.8910   15.9250   19.0840 O.co2 104  HEM104      0.0000
     43  O2D        4.2060   14.5360   18.4050 O.co2 104  HEM104      0.0000
@<TRIPOS>BOND
     1    22    19    1
     2    24    23    1
     3    19    20    2
     4    19    18    1
     5    23    20    1
     6    11     9    1
     7    20    21    1
     8     3    18    1
     9     3    10    2
    10    18    17    2
    11     9    10   ar
    12     9     8   ar
    13    10     6   ar
    14    21    17    1
    15    21     4    2
    16    17     1    1
    17     8    12    1
    18     8     7   ar
    19    12    13    1
    20     4    26    1
    21     6     7   ar
    22     6     1    1
    23    15    14   ar
    24    14    16   ar
    25    14    13    1
    26     7     2    2
    27     1    25    1
    28     1    33    1
    29    26    25   ar
    30    26    27   ar
    31    25    29   ar
    32     2    37    1
    33    30    27    1
    34    27    28   ar
    35    33    37    2
    36    33    34    1
    37    37    36    1
    38    29    28   ar
    39    29     5    1
    40    28    31    1
    41    34     5    2
    42    34    35    1
    43    36    35    2
    44    36    39    1
    45    31    32    1
    46    35    38    1
    47    39    40    1
    48    40    41    1
    49    41    43   ar
    50    41    42   ar
