@<TRIPOS>MOLECULE
2ycd_GTB_A_1.pdb
 30 30 0 0 0
SMALL
GASTEIGER

@<TRIPOS>ATOM
      1  N1        -5.5100   37.6660   17.6220 N.3   501  GTB501     -0.1208
      2  CA1       -6.2090   37.5510   16.3340 C.3   501  GTB501      0.1948
      3  C1        -5.5310   36.5220   15.4660 C.2   501  GTB501      0.3819
      4  O11       -4.2840   36.4670   15.5120 O.co2 501  GTB501     -0.2441
      5  O12       -6.2280   35.7830   14.7300 O.co2 501  GTB501     -0.2441
      6  CB1       -6.2450   38.9390   15.6750 C.3   501  GTB501      0.0402
      7  CG1       -7.0820   38.9200   14.3980 C.3   501  GTB501      0.0889
      8  CD1       -7.0360   40.2500   13.6710 C.2   501  GTB501      0.2418
      9  OE1       -6.3980   41.1870   14.1510 O.2   501  GTB501     -0.2733
     10  N2        -7.6960   40.3110   12.5160 N.am  501  GTB501     -0.1969
     11  CA2       -7.7270   41.5230   11.6960 C.3   501  GTB501      0.1834
     12  C2        -9.1270   41.9200   11.3430 C.2   501  GTB501      0.2626
     13  O2        -9.9970   41.0850   11.1060 O.2   501  GTB501     -0.2714
     14  CB2       -7.0490   41.2230   10.3450 C.3   501  GTB501      0.0889
     15  SG2       -5.3210   40.8970   10.4420 S.3   501  GTB501     -0.1331
     16  N3        -9.3600   43.2330   11.2810 N.am  501  GTB501     -0.1917
     17  CA3      -10.6280   43.8270   10.8920 C.3   501  GTB501      0.2285
     18  C3       -11.3650   44.4890   12.0200 C.2   501  GTB501      0.3865
     19  O31      -10.8250   44.5750   13.1400 O.co2 501  GTB501     -0.2437
     20  O32      -12.5100   44.9230   11.7560 O.co2 501  GTB501     -0.2437
     21  C'        -4.5630   42.4160   10.9350 C.3   501  GTB501      0.0838
     22  C1'       -4.0530   43.2150    9.7640 C.ar  501  GTB501     -0.0112
     23  C2'       -4.8450   44.2010    9.1980 C.ar  501  GTB501     -0.0017
     24  C3'       -4.3630   44.9420    8.1200 C.ar  501  GTB501      0.0238
     25  C4'       -3.0870   44.6930    7.6190 C.ar  501  GTB501      0.1429
     26  N41       -2.5970   45.4480    6.5370 N.pl3 501  GTB501      0.0577
     27  O41       -1.4380   45.3210    6.1480 O.2   501  GTB501     -0.1261
     28  O42       -3.3390   46.2470    5.9980 O.2   501  GTB501     -0.1261
     29  C5'       -2.2970   43.7100    8.1980 C.ar  501  GTB501      0.0238
     30  C6'       -2.7750   42.9710    9.2760 C.ar  501  GTB501     -0.0017
@<TRIPOS>BOND
     1    28    26    2
     2    27    26    2
     3    26    25    1
     4    25    24   ar
     5    25    29   ar
     6    24    23   ar
     7    29    30   ar
     8    23    22   ar
     9    30    22   ar
    10    22    21    1
    11    14    15    1
    12    14    11    1
    13    15    21    1
    14    17    16    1
    15    17    18    1
    16    13    12    2
    17    16    12   am
    18    12    11    1
    19    11    10    1
    20    20    18   ar
    21    18    19   ar
    22    10     8   am
    23     8     9    2
    24     8     7    1
    25     7     6    1
    26     5     3   ar
    27     3     4   ar
    28     3     2    1
    29     6     2    1
    30     2     1    1
