@<TRIPOS>MOLECULE
2yce_M2P_A_1.pdb
 20 19 0 0 0
SMALL
GASTEIGER

@<TRIPOS>ATOM
      1  C1         1.3920  127.8640   19.2690 C.3   270  M2P270      0.1892
      2  C5         2.3550  124.1780   22.2230 C.3   270  M2P270      0.2147
      3  C6         2.8920  122.7520   22.2540 C.3   270  M2P270      0.1892
      4  C4         1.4540  124.3480   20.9810 C.3   270  M2P270      0.2174
      5  C3         1.0390  125.8240   20.7340 C.3   270  M2P270      0.2174
      6  C2         1.3150  126.3130   19.2920 C.3   270  M2P270      0.2147
      7  O12        4.2630  129.4660   21.4830 O.3   270  M2P270     -0.1145
      8  P1         3.6700  129.0230   20.0670 P.3   270  M2P270      0.5327
      9  O13        4.5280  127.8070   19.4670 O.3   270  M2P270     -0.1145
     10  O11        3.5770  130.0510   18.9880 O.2   270  M2P270     -0.2224
     11  O1         2.2110  128.3560   20.3930 O.3   270  M2P270     -0.2674
     12  O2         2.5860  125.8190   18.9320 O.3   270  M2P270     -0.2176
     13  O3        -0.3570  126.0190   20.9520 O.3   270  M2P270     -0.2175
     14  O4         0.3410  123.5040   21.1890 O.3   270  M2P270     -0.2175
     15  O5         3.4730  125.0340   22.0420 O.3   270  M2P270     -0.2176
     16  O6         3.8080  122.6040   21.1170 O.3   270  M2P270     -0.2674
     17  P6         5.1270  121.6420   21.1920 P.3   270  M2P270      0.5327
     18  O62        6.0410  122.3640   22.2470 O.3   270  M2P270     -0.1145
     19  O63        4.6870  120.2400   21.8370 O.3   270  M2P270     -0.1145
     20  O61        5.7150  121.4910   19.8300 O.2   270  M2P270     -0.2224
@<TRIPOS>BOND
     1    12     6    1
     2    10     8    2
     3     1     6    1
     4     1    11    1
     5     6     5    1
     6     9     8    1
     7    20    17    2
     8     8    11    1
     9     8     7    1
    10     5    13    1
    11     5     4    1
    12     4    14    1
    13     4     2    1
    14    16    17    1
    15    16     3    1
    16    17    19    1
    17    17    18    1
    18    15     2    1
    19     2     3    1
