@<TRIPOS>MOLECULE
2ycf_YCF_A_1.pdb
 32 33 0 0 0
SMALL
GASTEIGER

@<TRIPOS>ATOM
      1  NAA       46.7270   22.9070  -12.1180 N.pl3 600  YCF600      0.1370
      2  NAB       47.3660   23.2680  -14.2880 N.4   600  YCF600      0.1153
      3  NAC       47.2310   21.1070  -13.5160 N.pl3 600  YCF600      0.0561
      4  NAD       46.9940   20.3110  -12.6010 N.2   600  YCF600     -0.0740
      5  NAE       45.9050   16.3120   -7.9750 N.am  600  YCF600     -0.1607
      6  NAF       45.8540   14.9470   -6.1840 N.am  600  YCF600     -0.1607
      7  NAG       46.8190   12.1420   -0.5790 N.2   600  YCF600     -0.0740
      8  NAH       47.0560   11.5380    0.4830 N.pl3 600  YCF600      0.0561
      9  NAI       45.9740   13.2180    1.6260 N.4   600  YCF600      0.1153
     10  NAJ       46.8500   11.4740    2.8180 N.pl3 600  YCF600      0.1370
     11  CAK       47.1110   22.4230  -13.3010 C.2   600  YCF600      0.5542
     12  CAL       47.0690   18.9820  -12.7220 C.2   600  YCF600      0.0972
     13  CAM       47.5420   18.3330  -14.0280 C.3   600  YCF600      0.0554
     14  CAN       46.7960   18.2410  -11.5650 C.ar  600  YCF600      0.0167
     15  CAO       46.0110   18.8340  -10.5680 C.ar  600  YCF600      0.0026
     16  CAP       45.7340   18.1680   -9.3780 C.ar  600  YCF600      0.0167
     17  CAQ       46.2350   16.8830   -9.1600 C.ar  600  YCF600      0.0750
     18  CAR       47.0280   16.2890  -10.1510 C.ar  600  YCF600      0.0167
     19  CAS       47.3190   16.9690  -11.3500 C.ar  600  YCF600      0.0026
     20  CAT       46.4870   15.2830   -7.3270 C.2   600  YCF600      0.3477
     21  CAU       46.2410   14.1060   -5.1900 C.ar  600  YCF600      0.0750
     22  CAV       45.4700   14.1360   -4.0170 C.ar  600  YCF600      0.0167
     23  CAW       45.7780   13.3420   -2.9150 C.ar  600  YCF600      0.0026
     24  CAX       46.8970   12.5000   -2.9360 C.ar  600  YCF600      0.0167
     25  CAY       47.6910   12.4740   -4.1020 C.ar  600  YCF600      0.0026
     26  CAZ       47.3700   13.2740   -5.2140 C.ar  600  YCF600      0.0167
     27  CBA       47.2040   11.7190   -1.8050 C.2   600  YCF600      0.0972
     28  CBB       48.0540   10.4470   -1.9400 C.3   600  YCF600      0.0554
     29  CBC       46.6480   12.0810    1.6420 C.2   600  YCF600      0.5542
     30  OBD       47.4500   14.6570   -7.7720 O.2   600  YCF600     -0.2484
     31  OBE       47.2400   24.6030  -14.0670 O.3   600  YCF600      0.0295
     32  OBF       45.5150   13.7630    2.7930 O.3   600  YCF600      0.0295
@<TRIPOS>BOND
     1     2    31    1
     2     2    11    1
     3    13    12    1
     4     3    11    1
     5     3     4    1
     6    11     1    2
     7    12     4    2
     8    12    14    1
     9    14    19   ar
    10    14    15   ar
    11    19    18   ar
    12    15    16   ar
    13    18    17   ar
    14    16    17   ar
    15    17     5    1
    16     5    20   am
    17    30    20    2
    18    20     6   am
    19     6    21    1
    20    26    21   ar
    21    26    25   ar
    22    21    22   ar
    23    25    24   ar
    24    22    23   ar
    25    24    23   ar
    26    24    27    1
    27    28    27    1
    28    27     7    2
    29     7     8    1
    30     8    29    1
    31     9    29    1
    32     9    32    1
    33    29    10    2
