@<TRIPOS>MOLECULE
2ycg_HEM_A_1.pdb
 43 50 0 0 0
SMALL
GASTEIGER

@<TRIPOS>ATOM
      1  CHA      -14.4300    0.4580    1.1470 C.2   295  HEM295      0.0000
      2  C1A      -13.4020    0.1780    1.9820 C.2   295  HEM295      0.0000
      3  C2A      -13.4000   -0.9810    2.8310 C.2   295  HEM295      0.0000
      4  CAA      -14.5350   -2.0970    2.6500 C.3   295  HEM295      0.0000
      5  CBA      -14.2700   -3.1000    1.5370 C.3   295  HEM295      0.0000
      6  CGA      -15.5530   -3.9720    1.6540 C.2   295  HEM295      0.0000
      7  O1A      -15.6060   -4.7570    2.7060 O.co2 295  HEM295      0.0000
      8  O2A      -16.1280   -4.2470    0.6340 O.co2 295  HEM295      0.0000
      9  C3A      -12.2840   -1.0220    3.5800 C.2   295  HEM295      0.0000
     10  CMA      -11.7730   -2.0880    4.5810 C.3   295  HEM295      0.0000
     11  C4A      -11.5610    0.2310    3.2500 C.2   295  HEM295      0.0000
     12  NA       -12.2610    0.8500    2.2630 N.2   295  HEM295      0.0000
     13  CHB      -10.3580    0.4530    3.8430 C.2   295  HEM295      0.0000
     14  C1B       -9.6650    1.6720    3.4380 C.ar  295  HEM295      0.0000
     15  C2B       -8.4170    2.1170    4.0530 C.ar  295  HEM295      0.0000
     16  CMB       -7.8330    1.2610    5.2130 C.3   295  HEM295      0.0000
     17  C3B       -8.1000    3.3190    3.5630 C.ar  295  HEM295      0.0000
     18  CAB       -6.8790    4.1830    3.8800 C.3   295  HEM295      0.0000
     19  CBB       -6.3510    4.2450    5.1740 C.3   295  HEM295      0.0000
     20  C4B       -9.1290    3.6590    2.5340 C.ar  295  HEM295      0.0000
     21  NB       -10.0180    2.6440    2.5650 N.ar  295  HEM295      0.0000
     22  CHC       -9.0080    4.6670    1.6070 C.2   295  HEM295      0.0000
     23  C1C       -9.9250    4.8750    0.6400 C.2   295  HEM295      0.0000
     24  C2C       -9.8330    5.9500   -0.3990 C.2   295  HEM295      0.0000
     25  CMC       -8.4870    6.7160   -0.5370 C.3   295  HEM295      0.0000
     26  C3C      -10.8520    5.8740   -1.2710 C.2   295  HEM295      0.0000
     27  CAC      -10.9940    6.6040   -2.6110 C.2   295  HEM295      0.0000
     28  CBC      -10.6910    7.8450   -2.8450 C.2   295  HEM295      0.0000
     29  C4C      -11.6520    4.6650   -0.7680 C.2   295  HEM295      0.0000
     30  NC       -11.0390    4.1650    0.3350 N.2   295  HEM295      0.0000
     31  CHD      -12.9190    4.2820   -1.3270 C.2   295  HEM295      0.0000
     32  C1D      -13.6430    3.2810   -0.8130 C.ar  295  HEM295      0.0000
     33  C2D      -14.9300    3.0310   -1.3560 C.ar  295  HEM295      0.0000
     34  CMD      -15.7310    3.9520   -2.3030 C.3   295  HEM295      0.0000
     35  C3D      -15.4190    1.9550   -0.7160 C.ar  295  HEM295      0.0000
     36  CAD      -16.8650    1.2190   -0.7050 C.3   295  HEM295      0.0000
     37  CBD      -16.7890    0.0600   -1.7140 C.3   295  HEM295      0.0000
     38  CGD      -18.1630   -0.6460   -1.7820 C.2   295  HEM295      0.0000
     39  O1D      -18.0120   -1.6820   -2.5170 O.co2 295  HEM295      0.0000
     40  O2D      -19.0810   -0.2080   -1.2420 O.co2 295  HEM295      0.0000
     41  C4D      -14.3790    1.4890    0.2640 C.ar  295  HEM295      0.0000
     42  ND       -13.3490    2.3580    0.1330 N.ar  295  HEM295      0.0000
     43 FE        -11.6930    2.5520    1.3420 Fe    295  HEM295      0.0000
@<TRIPOS>BOND
     1    28    27    2
     2    27    26    1
     3    39    38   ar
     4    34    33    1
     5    38    37    1
     6    38    40   ar
     7    37    36    1
     8    33    32   ar
     9    33    35   ar
    10    31    32    2
    11    31    29    1
    12    26    29    1
    13    26    24    2
    14    32    42   ar
    15    29    30    2
    16    35    36    1
    17    35    41   ar
    18    25    24    1
    19    24    23    1
    20    42    41   ar
    21    42    43    1
    22    41     1    2
    23    30    23    1
    24    30    43    1
    25     8     6   ar
    26    23    22    2
    27     1     2    1
    28    43    12    1
    29    43    21    1
    30     5     6    1
    31     5     4    1
    32    22    20    1
    33     6     7   ar
    34     2    12    2
    35     2     3    1
    36    12    11    1
    37    20    21   ar
    38    20    17   ar
    39    21    14   ar
    40     4     3    1
    41     3     9    2
    42    11     9    1
    43    11    13    2
    44    14    13    1
    45    14    15   ar
    46    17    18    1
    47    17    15   ar
    48     9    10    1
    49    18    19    1
    50    15    16    1
