@<TRIPOS>MOLECULE
2ych_ATP_A_1.pdb
 31 33 0 0 0
SMALL
GASTEIGER

@<TRIPOS>ATOM
      1  PG        15.0390    5.6060   22.5330 P.3   502  ATP502      0.5373
      2  O1G       15.9450    5.9450   23.7070 O.3   502  ATP502     -0.1143
      3  O2G       14.7070    6.8620   21.7860 O.2   502  ATP502     -0.2221
      4  O3G       13.8770    4.7670   22.8810 O.3   502  ATP502     -0.1143
      5  PB        15.7620    3.6240   20.4700 P.3   502  ATP502      0.2277
      6  O1B       16.1710    4.3160   19.1940 O.2   502  ATP502     -0.5168
      7  O2B       14.3210    3.2270   20.5410 O.3   502  ATP502     -0.4368
      8  O3B       16.1210    4.7200   21.6290 O.3   502  ATP502     -0.2258
      9  PA        16.6990    0.8940   20.4190 P.3   502  ATP502      0.2189
     10  O1A       16.2990    0.9970   18.9450 O.2   502  ATP502     -0.5170
     11  O2A       15.9060    0.0520   21.3690 O.3   502  ATP502     -0.4371
     12  O3A       16.7720    2.4520   20.8520 O.3   502  ATP502     -0.2700
     13  O5'       18.1450    0.4290   20.7230 O.3   502  ATP502     -0.3112
     14  C5'       19.2010    1.1740   20.1840 C.3   502  ATP502      0.1813
     15  C4'       20.3740    1.0690   21.1830 C.3   502  ATP502      0.1821
     16  O4'       20.7730   -0.2540   21.5070 O.3   502  ATP502     -0.3135
     17  C3'       21.5930    1.6960   20.5490 C.3   502  ATP502      0.2184
     18  O3'       22.1250    2.4340   21.6120 O.3   502  ATP502     -0.2174
     19  C2'       22.5430    0.5890   20.2010 C.3   502  ATP502      0.2570
     20  O2'       23.8910    1.0020   20.2650 O.3   502  ATP502     -0.2130
     21  C1'       22.2100   -0.3620   21.3100 C.3   502  ATP502      0.3186
     22  N9        22.4670   -1.7160   20.8390 N.pl3 502  ATP502     -0.1439
     23  C8        21.7930   -2.2590   19.7810 C.3   502  ATP502      0.3377
     24  N7        22.1780   -3.5380   19.6300 N.2   502  ATP502     -0.2095
     25  C5        23.1210   -3.8140   20.5090 C.2   502  ATP502      0.2526
     26  C6        23.9680   -4.9860   20.7600 C.2   502  ATP502      0.4393
     27  N6        23.8490   -6.1130   20.0540 N.pl3 502  ATP502      0.2180
     28  N1        24.8590   -4.9000   21.7430 N.2   502  ATP502      0.0021
     29  C2        24.9870   -3.7460   22.4810 C.3   502  ATP502      0.5254
     30  N3        24.2780   -2.6140   22.2830 N.2   502  ATP502     -0.0055
     31  C4        23.3360   -2.6020   21.3070 C.2   502  ATP502      0.3518
@<TRIPOS>BOND
     1    10     9    2
     2     6     5    2
     3    24    23    1
     4    24    25    2
     5    23    22    1
     6    27    26    1
     7    14    13    1
     8    14    15    1
     9    19    20    1
    10    19    17    1
    11    19    21    1
    12     9    13    1
    13     9    12    1
    14     9    11    1
    15     5     7    1
    16     5    12    1
    17     5     8    1
    18    25    26    1
    19    25    31    1
    20    17    15    1
    21    17    18    1
    22    26    28    2
    23    22    31    1
    24    22    21    1
    25    15    16    1
    26    31    30    2
    27    21    16    1
    28     8     1    1
    29    28    29    1
    30     3     1    2
    31    30    29    1
    32     1     4    1
    33     1     2    1
