@<TRIPOS>MOLECULE
2ycj_C2F_A_1.pdb
 33 35 0 0 0
SMALL
GASTEIGER

@<TRIPOS>ATOM
      1  N1       -10.0770    0.9930  -20.0570 N.2   3000  C2F3000    -0.2726
      2  C2       -10.7800    0.1740  -19.2370 C.1   3000  C2F3000     0.2603
      3  NA2      -10.9620   -1.1200  -19.5960 N.pl3 3000  C2F3000    -0.0221
      4  N3       -11.3040    0.5920  -18.0730 N.2   3000  C2F3000    -0.2515
      5  C4       -11.1760    1.8520  -17.6500 C.1   3000  C2F3000     0.2218
      6  O4       -11.6980    2.1750  -16.5610 O.2   3000  C2F3000    -0.2109
      7  C4A      -10.4180    2.8190  -18.4880 C.3   3000  C2F3000     0.2763
      8  N5       -10.2450    4.1710  -18.1110 N.3   3000  C2F3000    -0.2435
      9  C6        -9.0880    4.7760  -18.7890 C.3   3000  C2F3000     0.1062
     10  C7        -9.0750    4.5040  -20.3000 C.3   3000  C2F3000     0.1547
     11  N8        -9.1560    3.0820  -20.5880 N.2   3000  C2F3000    -0.2096
     12  C8A       -9.8610    2.2890  -19.7550 C.1   3000  C2F3000     0.1050
     13  C9        -7.7990    4.2790  -18.1370 C.3   3000  C2F3000     0.1302
     14  N10       -6.7100    5.1430  -18.5530 N.pl3 3000  C2F3000    -0.2361
     15  C11      -11.4430    4.9480  -18.4580 C.3   3000  C2F3000     0.0915
     16  C12       -5.9200    8.7700  -16.6880 C.ar  3000  C2F3000     0.0551
     17  C13       -6.9260    7.9500  -16.1840 C.ar  3000  C2F3000     0.0059
     18  C14       -7.1960    6.7320  -16.8090 C.ar  3000  C2F3000     0.0162
     19  C15       -6.4670    6.3300  -17.9300 C.ar  3000  C2F3000     0.0654
     20  C16       -5.4660    7.1550  -18.4290 C.ar  3000  C2F3000     0.0162
     21  C17       -5.2050    8.3680  -17.8110 C.ar  3000  C2F3000     0.0059
     22  C         -5.6000   10.0970  -16.0470 C.2   3000  C2F3000     0.2652
     23  O         -5.3480   10.1410  -14.8580 O.2   3000  C2F3000    -0.2684
     24  N         -5.5970   11.2010  -16.8060 N.am  3000  C2F3000    -0.1918
     25  CA        -4.9130   12.4410  -16.4520 C.3   3000  C2F3000     0.1986
     26  CB        -4.6240   13.2270  -17.7320 C.3   3000  C2F3000     0.0451
     27  CG        -3.5680   14.3090  -17.5260 C.3   3000  C2F3000     0.1164
     28  CD        -3.5580   15.2540  -18.7090 C.2   3000  C2F3000     0.3649
     29  OE1       -2.4870   15.8290  -19.0180 O.co2 3000  C2F3000    -0.2457
     30  OE2       -4.6230   15.4300  -19.3460 O.co2 3000  C2F3000    -0.2457
     31  CT        -5.7100   13.3030  -15.5060 C.2   3000  C2F3000     0.3842
     32  O1        -5.1210   13.8710  -14.5560 O.co2 3000  C2F3000    -0.2437
     33  O2        -6.9420   13.4310  -15.7000 O.co2 3000  C2F3000    -0.2437
@<TRIPOS>BOND
     1    11    10    1
     2    11    12    2
     3    10     9    1
     4     1    12    2
     5     1     2    2
     6    12     7    1
     7     3     2    1
     8    30    28   ar
     9     2     4    2
    10    29    28   ar
    11     9    13    1
    12     9     8    1
    13    28    27    1
    14    14    13    1
    15    14    19    1
    16     7     8    1
    17     7     5    1
    18    15     8    1
    19    20    19   ar
    20    20    21   ar
    21     4     5    2
    22    19    18   ar
    23    21    16   ar
    24    26    27    1
    25    26    25    1
    26     5     6    2
    27    18    17   ar
    28    24    25    1
    29    24    22   am
    30    16    17   ar
    31    16    22    1
    32    25    31    1
    33    22    23    2
    34    33    31   ar
    35    31    32   ar
