@<TRIPOS>MOLECULE
2yck_THG_X_1.pdb
 32 34 0 0 0
SMALL
GASTEIGER

@<TRIPOS>ATOM
      1  N3        -0.5950   11.0050   17.9800 N.2   7216  THG7216    -0.2474
      2  C2        -0.2280   10.5390   19.1770 C.1   7216  THG7216     0.2608
      3  N1        -1.1010    9.8430   19.9640 N.2   7216  THG7216    -0.2683
      4  C8A       -2.3870    9.6230   19.5210 C.1   7216  THG7216     0.1270
      5  C4A       -2.7530   10.1010   18.3020 C.2   7216  THG7216     0.2463
      6  C4        -1.8230   10.8010   17.5150 C.1   7216  THG7216     0.2441
      7  N8        -3.3120    8.9480   20.3740 N.2   7216  THG7216    -0.2054
      8  C7        -4.7200    8.8780   20.0080 C.3   7216  THG7216     0.1634
      9  C6        -4.8600    8.8780   18.4840 C.3   7216  THG7216     0.1514
     10  N5        -4.0730    9.8840   17.7990 N.2   7216  THG7216    -0.2469
     11  C9        -4.4020    7.5290   17.9160 C.3   7216  THG7216     0.1385
     12  N10       -5.2740    6.4680   18.3960 N.pl3 7216  THG7216    -0.2355
     13  C4'       -6.5400    6.2020   17.7080 C.ar  7216  THG7216     0.0654
     14  C3'       -6.9340    6.9870   16.6190 C.ar  7216  THG7216     0.0162
     15  C2'       -8.1370    6.7120   15.9730 C.ar  7216  THG7216     0.0059
     16  C1'       -8.9280    5.6600   16.4000 C.ar  7216  THG7216     0.0551
     17  C6'       -8.5240    4.8820   17.4910 C.ar  7216  THG7216     0.0059
     18  C5'       -7.3220    5.1580   18.1390 C.ar  7216  THG7216     0.0162
     19  C11      -10.2590    5.3690   15.7420 C.2   7216  THG7216     0.2652
     20  N        -11.4180    5.1130   16.5900 N.am  7216  THG7216    -0.1918
     21  CA       -12.7200    4.6750   16.0750 C.3   7216  THG7216     0.1986
     22  C        -13.4190    5.7150   15.2930 C.2   7216  THG7216     0.3842
     23  OX2      -14.1790    5.3940   14.3360 O.co2 7216  THG7216    -0.2437
     24  OX1      -13.3580    6.9120   15.6590 O.co2 7216  THG7216    -0.2437
     25  CB       -13.6100    4.2650   17.2540 C.3   7216  THG7216     0.0451
     26  CG       -14.7980    3.3690   16.7640 C.3   7216  THG7216     0.1164
     27  CD       -15.5410    2.8510   17.9520 C.2   7216  THG7216     0.3649
     28  OE1      -15.9210    1.6460   17.9670 O.co2 7216  THG7216    -0.2457
     29  OE2      -15.7100    3.5910   18.9510 O.co2 7216  THG7216    -0.2457
     30  O11      -10.4160    5.6280   14.5800 O.2   7216  THG7216    -0.2684
     31  O4        -2.1390   11.2510   16.4210 O.2   7216  THG7216    -0.2063
     32  N2         1.1130   10.7960   19.6340 N.pl3 7216  THG7216    -0.0220
@<TRIPOS>BOND
     1    23    22   ar
     2    30    19    2
     3    22    24   ar
     4    22    21    1
     5    19    16    1
     6    19    20   am
     7    15    16   ar
     8    15    14   ar
     9    21    20    1
    10    21    25    1
    11    16    17   ar
    12    31     6    2
    13    14    13   ar
    14    26    25    1
    15    26    27    1
    16    17    18   ar
    17     6     1    2
    18     6     5    1
    19    13    18   ar
    20    13    12    1
    21    10     5    2
    22    10     9    1
    23    11    12    1
    24    11     9    1
    25    27    28   ar
    26    27    29   ar
    27     1     2    2
    28     5     4    1
    29     9     8    1
    30     2    32    1
    31     2     3    2
    32     4     3    2
    33     4     7    2
    34     8     7    1
