@<TRIPOS>MOLECULE
2ycm_30A_A_1.pdb
 21 23 0 0 0
SMALL
GASTEIGER

@<TRIPOS>ATOM
      1 CL         14.2150   58.8110  -17.7750 Cl    1306  30A1306    -0.0519
      2  C1        18.6850   59.9200  -20.0970 C.3   1306  30A1306     0.2143
      3  C2        18.6830   61.4110  -19.9000 C.2   1306  30A1306     0.3781
      4  O3        19.2990   62.1100  -20.7350 O.co2 1306  30A1306    -0.2447
      5  C4        17.6430   59.1340  -19.6240 C.2   1306  30A1306     0.2021
      6  O4        18.1040   61.9440  -18.9170 O.co2 1306  30A1306    -0.2447
      7  N5        17.9500   57.8840  -19.9610 N.am  1306  30A1306    -0.1326
      8  C6        17.1650   56.8370  -19.6480 C.2   1306  30A1306     0.2576
      9  O7        17.4540   55.5460  -19.9760 O.2   1306  30A1306    -0.2722
     10  C8        15.9920   57.1010  -18.9870 C.3   1306  30A1306     0.1463
     11  C9        15.1100   55.9390  -18.5970 C.3   1306  30A1306     0.0436
     12  C10       14.0170   55.4890  -19.5410 C.ar  1306  30A1306    -0.0213
     13  C11       12.7560   55.2110  -19.0030 C.ar  1306  30A1306    -0.0042
     14  C12       11.7350   54.7680  -19.8200 C.ar  1306  30A1306    -0.0003
     15  C13       11.9790   54.5900  -21.1680 C.ar  1306  30A1306    -0.0000
     16  C14       13.2310   54.8440  -21.7040 C.ar  1306  30A1306    -0.0003
     17  C15       14.2570   55.2930  -20.8890 C.ar  1306  30A1306    -0.0042
     18  C16       15.7080   58.4260  -18.6420 C.2   1306  30A1306     0.1758
     19  N18       16.5210   59.4610  -18.9600 N.2   1306  30A1306    -0.3810
     20  N19       19.1530   57.7880  -20.6290 N.2   1306  30A1306    -0.1717
     21  C20       19.5970   59.0690  -20.7070 C.2   1306  30A1306     0.1116
@<TRIPOS>BOND
     1    16    15   ar
     2    16    17   ar
     3    15    14   ar
     4    17    12   ar
     5     4     3   ar
     6    21    20    2
     7    21     2    1
     8    20     7    1
     9     2     3    1
    10     2     5    1
    11     9     8    2
    12     7     8   am
    13     7     5    1
    14     3     6   ar
    15    14    13   ar
    16     8    10    1
    17     5    19    2
    18    12    13   ar
    19    12    11    1
    20    10    18    1
    21    10    11    1
    22    19    18    2
    23    18     1    1
