@<TRIPOS>MOLECULE
2ycn_P61_A_1.pdb
 29 30 0 0 0
SMALL
GASTEIGER

@<TRIPOS>ATOM
      1  C         24.2050   85.8020    8.5420 C.2   600  P61600      0.3869
      2  F         27.1750   85.8520   12.2330 F     600  P61600     -0.2008
      3  N         25.0390   84.2600    6.9300 N.2   600  P61600     -0.2589
      4  O         23.6770   86.0590    9.6630 O.co2 600  P61600     -0.2435
      5  P         24.8170   79.2130    6.3860 P.3   600  P61600      0.5329
      6  N1        27.8040   83.1880    2.7850 N.ar  600  P61600     -0.2452
      7  C2        27.2540   84.3460    3.1820 C.ar  600  P61600      0.0981
      8  C3        26.4540   84.4080    4.4280 C.ar  600  P61600      0.2103
      9  O3        25.9170   85.5610    4.8420 O.3   600  P61600     -0.2853
     10  C4        26.3040   83.1610    5.2030 C.ar  600  P61600      0.0587
     11  C5        26.9600   81.9400    4.6650 C.ar  600  P61600      0.0316
     12  C6        27.6730   82.0180    3.4610 C.ar  600  P61600      0.0968
     13  CA        24.5550   84.4470    8.1750 C.3   600  P61600      0.2100
     14  CB        24.4430   83.3290    9.2090 C.3   600  P61600      0.0623
     15  CG        25.7290   83.3230   10.0220 C.ar  600  P61600     -0.0172
     16  OH        29.4210   85.0210   11.0140 O.3   600  P61600     -0.2842
     17  CZ        28.2300   84.4310   10.6900 C.ar  600  P61600      0.2229
     18  O1P       25.8180   78.1240    6.6750 O.3   600  P61600     -0.1145
     19  C2A       27.4420   85.6000    2.3580 C.3   600  P61600      0.0555
     20  O2P       24.6540   80.1600    7.5590 O.3   600  P61600     -0.1145
     21  O3P       23.5570   78.7430    5.6900 O.2   600  P61600     -0.2224
     22  C4A       25.5190   83.1300    6.4590 C.2   600  P61600      0.0967
     23  O4P       25.5010   80.1370    5.2490 O.3   600  P61600     -0.2653
     24  C5A       26.8470   80.6140    5.3870 C.3   600  P61600      0.1819
     25  CD1       25.8490   84.3200   10.9890 C.ar  600  P61600      0.0288
     26  CD2       26.8920   82.8470    9.4100 C.ar  600  P61600     -0.0008
     27  CE1       27.0850   84.8790   11.3080 C.ar  600  P61600      0.1785
     28  CE2       28.1420   83.4010    9.7440 C.ar  600  P61600      0.0441
     29  OXT       24.5780   86.6880    7.7330 O.co2 600  P61600     -0.2435
@<TRIPOS>BOND
     1    19     7    1
     2     6     7   ar
     3     6    12   ar
     4     7     8   ar
     5    12    11   ar
     6     8     9    1
     7     8    10   ar
     8    11    10   ar
     9    11    24    1
    10    10    22    1
    11    23    24    1
    12    23     5    1
    13    21     5    2
    14     5    18    1
    15     5    20    1
    16    22     3    2
    17     3    13    1
    18    29     1   ar
    19    13     1    1
    20    13    14    1
    21     1     4   ar
    22    14    15    1
    23    26    28   ar
    24    26    15   ar
    25    28    17   ar
    26    15    25   ar
    27    17    16    1
    28    17    27   ar
    29    25    27   ar
    30    27     2    1
