@<TRIPOS>MOLECULE
2ycp_P61_A_1.pdb
 29 30 0 0 0
SMALL
GASTEIGER

@<TRIPOS>ATOM
      1  C         20.6190  -21.5680   -5.7530 C.2   600  P61600      0.3869
      2  F         17.7750  -22.4870   -1.8200 F     600  P61600     -0.2008
      3  N         19.2850  -20.4030   -7.3540 N.2   600  P61600     -0.2589
      4  O         21.2930  -21.5930   -4.6960 O.co2 600  P61600     -0.2435
      5  P         17.6060  -15.6270   -7.7310 P.3   600  P61600      0.5329
      6  N1        16.2030  -20.2800  -11.4190 N.ar  600  P61600     -0.2452
      7  C2        17.1760  -21.1540  -11.0930 C.ar  600  P61600      0.0981
      8  C3        17.9730  -20.9770   -9.8690 C.ar  600  P61600      0.2103
      9  O3        18.9200  -21.8550   -9.5300 O.3   600  P61600     -0.2853
     10  C4        17.6710  -19.7900   -9.0510 C.ar  600  P61600      0.0587
     11  C5        16.5850  -18.8940   -9.5030 C.ar  600  P61600      0.0316
     12  C6        15.9020  -19.1770  -10.6850 C.ar  600  P61600      0.0968
     13  CA        19.8370  -20.4130   -6.1340 C.3   600  P61600      0.2100
     14  CB        19.5370  -19.3430   -5.1010 C.3   600  P61600      0.0623
     15  CG        18.3640  -19.8690   -4.2770 C.ar  600  P61600     -0.0172
     16  OH        15.3920  -22.4330   -2.9760 O.3   600  P61600     -0.2842
     17  CZ        16.3360  -21.5580   -3.4140 C.ar  600  P61600      0.2229
     18  O1P       16.3040  -14.9410   -7.4230 O.3   600  P61600     -0.1145
     19  C2A       17.4430  -22.3610  -11.9390 C.3   600  P61600      0.0555
     20  O2P       18.1780  -16.4310   -6.5870 O.3   600  P61600     -0.1145
     21  O3P       18.6060  -14.7650   -8.4810 O.2   600  P61600     -0.2224
     22  C4A       18.4240  -19.5190   -7.7880 C.2   600  P61600      0.0967
     23  O4P       17.2410  -16.6870   -8.8760 O.3   600  P61600     -0.2653
     24  C5A       16.2240  -17.6680   -8.6860 C.3   600  P61600      0.1819
     25  CD1       18.6230  -20.7870   -3.2490 C.ar  600  P61600      0.0288
     26  CD2       17.0750  -19.7770   -4.8350 C.ar  600  P61600     -0.0008
     27  CE1       17.5870  -21.6200   -2.8260 C.ar  600  P61600      0.1785
     28  CE2       16.0440  -20.6250   -4.4120 C.ar  600  P61600      0.0441
     29  OXT       20.4520  -22.5960   -6.4520 O.co2 600  P61600     -0.2435
@<TRIPOS>BOND
     1    19     7    1
     2     6     7   ar
     3     6    12   ar
     4     7     8   ar
     5    12    11   ar
     6     8     9    1
     7     8    10   ar
     8    11    10   ar
     9    11    24    1
    10    10    22    1
    11    23    24    1
    12    23     5    1
    13    21     5    2
    14    22     3    2
    15     5    18    1
    16     5    20    1
    17     3    13    1
    18    29     1   ar
    19    13     1    1
    20    13    14    1
    21     1     4   ar
    22    14    15    1
    23    26    28   ar
    24    26    15   ar
    25    28    17   ar
    26    15    25   ar
    27    17    16    1
    28    17    27   ar
    29    25    27   ar
    30    27     2    1
