@<TRIPOS>MOLECULE
2ycq_UPX_A_1.pdb
 30 33 0 0 0
SMALL
GASTEIGER

@<TRIPOS>ATOM
      1  OBB      -49.5680  -15.8120  -11.4110 O.2   600  UPX600     -0.1260
      2  NAB      -48.9160  -16.9670  -11.8910 N.pl3 600  UPX600      0.0602
      3  OBC      -49.2380  -17.3740  -13.1800 O.2   600  UPX600     -0.1260
      4  CAJ      -47.9940  -17.6060  -11.1750 C.ar  600  UPX600      0.1722
      5  CAI      -47.3380  -18.7390  -11.6610 C.ar  600  UPX600      0.0267
      6  CAH      -46.3750  -19.3700  -10.8650 C.ar  600  UPX600      0.0019
      7  CAM      -46.0670  -18.8780   -9.5990 C.ar  600  UPX600      0.0027
      8  CAL      -46.7150  -17.7390   -9.1170 C.ar  600  UPX600      0.0340
      9  CAO      -46.6330  -17.0350   -7.9760 C.2   600  UPX600      0.0394
     10  CAK      -47.6710  -17.1180   -9.9160 C.ar  600  UPX600      0.1539
     11  NAA      -48.1330  -16.0760   -9.2540 N.2   600  UPX600     -0.3955
     12  CAN      -47.5100  -16.0240   -8.0870 C.2   600  UPX600      0.1866
     13  CAP      -47.8480  -14.9140   -7.0760 C.2   600  UPX600      0.2987
     14  OBD      -48.7420  -14.1150   -7.3760 O.2   600  UPX600     -0.2652
     15  NAC      -47.1270  -14.9100   -5.9370 N.am  600  UPX600     -0.1733
     16  CAQ      -47.2870  -14.0870   -4.8750 C.ar  600  UPX600      0.0738
     17  CAV      -46.4980  -14.3090   -3.7420 C.ar  600  UPX600      0.0166
     18  CAU      -46.6170  -13.5380   -2.5870 C.ar  600  UPX600      0.0026
     19  CAR      -48.2170  -13.0670   -4.8260 C.ar  600  UPX600      0.0166
     20  CAS      -48.3440  -12.2810   -3.6710 C.ar  600  UPX600      0.0026
     21  CAT      -47.5480  -12.4930   -2.5420 C.ar  600  UPX600      0.0152
     22  CAW      -47.6830  -11.6990   -1.3920 C.2   600  UPX600      0.0793
     23  CAX      -48.2940  -10.2880   -1.4510 C.3   600  UPX600      0.0538
     24  NAD      -47.3100  -12.2040   -0.2110 N.2   600  UPX600     -0.1532
     25  NAE      -47.3570  -11.5860    0.8690 N.pl3 600  UPX600     -0.0450
     26  CAY      -46.9740  -12.2050    2.0030 C.1   600  UPX600      0.1343
     27  NAF      -47.0180  -11.6760    3.2280 N.2   600  UPX600     -0.1757
     28  CAZ      -46.5010  -12.6080    4.2190 C.2   600  UPX600      0.1323
     29  CBA      -46.1550  -13.8310    3.4020 C.2   600  UPX600      0.1323
     30  NAG      -46.5340  -13.4560    2.0400 N.2   600  UPX600     -0.1757
@<TRIPOS>BOND
     1     3     2    2
     2     2     1    2
     3     2     4    1
     4     5     4   ar
     5     5     6   ar
     6     4    10   ar
     7     6     7   ar
     8    10    11    2
     9    10     8   ar
    10     7     8   ar
    11    11    12    2
    12     8     9    2
    13    12     9    1
    14    12    13    1
    15    14    13    2
    16    13    15   am
    17    15    16    1
    18    16    19   ar
    19    16    17   ar
    20    19    20   ar
    21    17    18   ar
    22    20    21   ar
    23    18    21   ar
    24    21    22    1
    25    23    22    1
    26    22    24    2
    27    24    25    1
    28    25    26    1
    29    26    30    2
    30    26    27    2
    31    30    29    1
    32    27    28    1
    33    29    28    2
