@<TRIPOS>MOLECULE
2ycr_HCW_A_1.pdb
 34 37 0 0 0
SMALL
GASTEIGER

@<TRIPOS>ATOM
      1  OBH      -36.5350   33.7960    7.7370 O.2   600  HCW600     -0.2484
      2  CAV      -37.1040   32.9820    8.4370 C.2   600  HCW600      0.3477
      3  NAF      -37.9890   32.0890    8.0030 N.am  600  HCW600     -0.1607
      4  CAW      -38.4690   31.8330    6.7630 C.ar  600  HCW600      0.0750
      5  CBB      -38.0810   32.5160    5.6140 C.ar  600  HCW600      0.0167
      6  CBA      -38.6400   32.1650    4.3960 C.ar  600  HCW600      0.0026
      7  CAX      -39.4110   30.8100    6.6800 C.ar  600  HCW600      0.0167
      8  CAY      -39.9650   30.4620    5.4600 C.ar  600  HCW600      0.0026
      9  CAZ      -39.5820   31.1450    4.3090 C.ar  600  HCW600      0.0152
     10  CBC      -40.1870   30.7670    2.9900 C.2   600  HCW600      0.0782
     11  CBD      -39.7980   31.4600    1.7180 C.3   600  HCW600      0.0538
     12  NAG      -41.0760   29.7740    2.9570 N.2   600  HCW600     -0.1642
     13  NAH      -41.7370   29.3580    1.8890 N.pl3 600  HCW600     -0.0951
     14  CBE      -42.9390   28.5400    2.0710 C.3   600  HCW600      0.3237
     15  NAI      -43.5320   28.6510    3.4170 N.2   600  HCW600     -0.2244
     16  CBF      -44.7540   28.9810    3.3880 C.2   600  HCW600      0.1174
     17  CBG      -45.2670   29.1950    1.9860 C.2   600  HCW600      0.1174
     18  NAJ      -44.0490   28.9780    1.2360 N.2   600  HCW600     -0.2244
     19  NAE      -36.9320   32.8670    9.7520 N.am  600  HCW600     -0.1607
     20  CAS      -36.1610   33.5520   10.6340 C.ar  600  HCW600      0.0750
     21  CAR      -35.2900   34.5980   10.3350 C.ar  600  HCW600      0.0167
     22  CAQ      -34.5730   35.1930   11.3620 C.ar  600  HCW600      0.0026
     23  CAP      -34.6940   34.7560   12.6860 C.ar  600  HCW600      0.0152
     24  CAU      -35.5640   33.7130   12.9620 C.ar  600  HCW600      0.0026
     25  CAT      -36.2960   33.1260   11.9460 C.ar  600  HCW600      0.0167
     26  CAN      -33.9440   35.3470   13.8550 C.2   600  HCW600      0.0793
     27  CAO      -32.9510   36.4690   13.7560 C.3   600  HCW600      0.0538
     28  NAD      -34.2020   34.8130   15.0460 N.2   600  HCW600     -0.1532
     29  NAC      -33.6670   35.1200   16.1250 N.pl3 600  HCW600     -0.0457
     30  CAM      -34.2020   34.4930   17.3340 C.1   600  HCW600      0.1254
     31  NAB      -33.5350   34.5610   18.6140 N.2   600  HCW600     -0.2034
     32  CAL      -34.2460   33.7060   19.5440 C.3   600  HCW600      0.1647
     33  CAK      -34.9010   32.7610   18.5440 C.3   600  HCW600      0.1647
     34  NAA      -34.7950   33.1520   17.3300 N.2   600  HCW600     -0.2034
@<TRIPOS>BOND
     1    18    17    2
     2    18    14    1
     3    11    10    1
     4    13    14    1
     5    13    12    1
     6    17    16    1
     7    14    15    1
     8    12    10    2
     9    10     9    1
    10    16    15    2
    11     9     6   ar
    12     9     8   ar
    13     6     5   ar
    14     8     7   ar
    15     5     4   ar
    16     7     4   ar
    17     4     3    1
    18     1     2    2
    19     3     2   am
    20     2    19   am
    21    19    20    1
    22    21    20   ar
    23    21    22   ar
    24    20    25   ar
    25    22    23   ar
    26    25    24   ar
    27    23    24   ar
    28    23    26    1
    29    27    26    1
    30    26    28    2
    31    28    29    1
    32    29    30    1
    33    34    30    2
    34    34    33    1
    35    30    31    2
    36    33    32    1
    37    31    32    1
