@<TRIPOS>MOLECULE
2ycs_NXP_A_1.pdb
 25 27 0 0 0
SMALL
GASTEIGER

@<TRIPOS>ATOM
      1  NAB      -36.8530   33.1920    9.3580 N.am  600  NXP600     -0.1754
      2  CAP      -36.1900   33.8100   10.4610 C.ar  600  NXP600      0.0737
      3  CAU      -36.0290   32.9970   11.5890 C.ar  600  NXP600      0.0166
      4  CAT      -35.4230   33.4590   12.7590 C.ar  600  NXP600      0.0026
      5  CAS      -34.9230   34.7600   12.8140 C.ar  600  NXP600      0.0167
      6  CAR      -35.0950   35.5780   11.6860 C.ar  600  NXP600      0.0026
      7  CAQ      -35.6920   35.1170   10.5210 C.ar  600  NXP600      0.0166
      8  CAV      -34.2680   35.3010   14.0690 C.2   600  NXP600      0.0972
      9  CAW      -33.3690   36.5220   14.0880 C.3   600  NXP600      0.0554
     10  NAC      -34.4920   34.7090   15.2450 N.2   600  NXP600     -0.0740
     11  NAD      -33.9980   35.1470   16.3210 N.pl3 600  NXP600      0.0567
     12  CAX      -34.3020   34.5030   17.4480 C.cat 600  NXP600      0.5604
     13  NAF      -35.1050   33.4640   17.3830 N.pl3 600  NXP600      0.1376
     14  NAE      -33.8210   34.8590   18.6310 N.pl3 600  NXP600      0.1376
     15  OAY      -36.9110   34.5820    7.5730 O.2   600  NXP600     -0.2680
     16  CAO      -37.1830   33.5090    8.1120 C.2   600  NXP600      0.2705
     17  CAN      -37.9070   32.3260    7.5060 C.2   600  NXP600      0.0756
     18  CAM      -38.0300   31.0540    8.0580 C.2   600  NXP600      0.1034
     19  NAA      -38.7540   30.2930    7.1970 N.2   600  NXP600     -0.2437
     20  CAJ      -39.1050   31.0250    6.1170 C.2   600  NXP600      0.0809
     21  CAI      -39.8460   30.6780    4.9860 C.2   600  NXP600      0.0149
     22  CAH      -40.0610   31.6360    4.0030 C.2   600  NXP600     -0.0199
     23  CAG      -39.5450   32.9200    4.1670 C.3   600  NXP600      0.0521
     24  CAL      -38.8020   33.2700    5.3080 C.2   600  NXP600     -0.0197
     25  CAK      -38.5850   32.3140    6.2850 C.2   600  NXP600      0.0197
@<TRIPOS>BOND
     1    22    23    1
     2    22    21    2
     3    23    24    1
     4    21    20    1
     5    24    25    2
     6    20    25    1
     7    20    19    2
     8    25    17    1
     9    19    18    1
    10    17    18    2
    11    17    16    1
    12    15    16    2
    13    16     1   am
    14     1     2    1
    15     2     7   ar
    16     2     3   ar
    17     7     6   ar
    18     3     4   ar
    19     6     5   ar
    20     4     5   ar
    21     5     8    1
    22     8     9    1
    23     8    10    2
    24    10    11    1
    25    11    12    2
    26    13    12    1
    27    12    14    1
