@<TRIPOS>MOLECULE
2yct_PLI_A_1.pdb
 21 21 0 0 0
SMALL
GASTEIGER

@<TRIPOS>ATOM
      1  OP2       24.7120   79.5020    7.6430 O.3   1457  PLI1457    -0.1145
      2  P         24.9900   78.5830    6.4820 P.3   1457  PLI1457     0.5329
      3  OP1       23.7620   78.1030    5.7220 O.2   1457  PLI1457    -0.2224
      4  OP3       25.9980   77.5130    6.8520 O.3   1457  PLI1457    -0.1145
      5  OP4       25.7460   79.5010    5.3880 O.3   1457  PLI1457    -0.2653
      6  C5A       27.0830   79.9530    5.5820 C.3   1457  PLI1457     0.1816
      7  C5        27.1610   81.2770    4.8700 C.ar  1457  PLI1457     0.0280
      8  C6        27.6730   81.3300    3.5750 C.ar  1457  PLI1457     0.0965
      9  N1        27.7580   82.4830    2.8840 N.ar  1457  PLI1457    -0.2452
     10  C2        27.3570   83.6740    3.3750 C.ar  1457  PLI1457     0.0978
     11  C2A       27.4910   84.9150    2.5370 C.3   1457  PLI1457     0.0555
     12  C3        26.7790   83.7800    4.7410 C.ar  1457  PLI1457     0.2067
     13  O3A       26.3760   84.9610    5.2380 O.3   1457  PLI1457    -0.2856
     14  C4        26.6750   82.5280    5.5240 C.ar  1457  PLI1457     0.0421
     15  C4A       26.0910   82.5740    6.8750 C.3   1457  PLI1457     0.1547
     16  N         25.7670   83.8030    7.2890 N.2   1457  PLI1457    -0.2632
     17  CA        24.8970   84.1250    8.2510 C.2   1457  PLI1457     0.1338
     18  CB        24.1200   83.0570    8.9370 C.3   1457  PLI1457     0.0588
     19  C         24.6720   85.5050    8.6380 C.2   1457  PLI1457     0.4007
     20  O         25.1610   86.4000    7.9140 O.co2 1457  PLI1457    -0.2392
     21  OXT       24.0150   85.7370    9.6880 O.co2 1457  PLI1457    -0.2392
@<TRIPOS>BOND
     1    11    10    1
     2     9    10   ar
     3     9     8   ar
     4    10    12   ar
     5     8     7   ar
     6    12    13    1
     7    12    14   ar
     8     7    14   ar
     9     7     6    1
    10     5     6    1
    11     5     2    1
    12    14    15    1
    13     3     2    2
    14     2     4    1
    15     2     1    1
    16    15    16    1
    17    16    17    2
    18    20    19   ar
    19    17    19    1
    20    17    18    1
    21    19    21   ar
