@<TRIPOS>MOLECULE
2yct_PLP_A_1.pdb
 15 15 0 0 0
SMALL
GASTEIGER

@<TRIPOS>ATOM
      1  N1        28.3680   82.5660    3.2700 N.2   1257  PLP1257    -0.2458
      2  C2        27.5700   83.6850    3.4470 C.2   1257  PLP1257     0.0942
      3  C3        26.5660   83.7080    4.4160 C.2   1257  PLP1257     0.1899
      4  O3        25.8960   84.7420    4.5290 O.2   1257  PLP1257    -0.2898
      5  C4        26.3570   82.5960    5.2440 C.3   1257  PLP1257     0.0852
      6  C5        27.1820   81.4720    5.0570 C.2   1257  PLP1257     0.0118
      7  C6        28.1720   81.4600    4.0760 C.2   1257  PLP1257     0.0929
      8  P         25.0810   78.5830    6.6800 P.3   1257  PLP1257     0.5329
      9  C2A       27.7790   84.8890    2.5810 C.3   1257  PLP1257     0.0552
     10  C4A       25.2770   82.6050    6.3080 C.3   1257  PLP1257     0.0127
     11  C5A       27.0200   80.2410    5.8940 C.3   1257  PLP1257     0.1779
     12  O4P       25.9400   79.3480    5.5480 O.3   1257  PLP1257    -0.2656
     13  O1P       24.9930   79.5030    7.8350 O.3   1257  PLP1257    -0.1145
     14  O2P       23.8070   78.3160    5.9640 O.2   1257  PLP1257    -0.2224
     15  O3P       25.8910   77.3870    7.0110 O.3   1257  PLP1257    -0.1145
@<TRIPOS>BOND
     1     9     2    1
     2     1     2    2
     3     1     7    1
     4     2     3    1
     5     7     6    2
     6     3     4    2
     7     3     5    1
     8     6     5    1
     9     6    11    1
    10     5    10    1
    11    12    11    1
    12    12     8    1
    13    14     8    2
    14     8    15    1
    15     8    13    1
