@<TRIPOS>MOLECULE
2ycu_AOV_A_1.pdb
 45 47 0 0 0
SMALL
GASTEIGER

@<TRIPOS>ATOM
      1  PB        18.2170   -8.1350  -28.7560 P.3   1981  AOV1981     0.0000
      2  O1B       19.6560   -8.3500  -29.1290 O.3   1981  AOV1981    -0.5000
      3  O2B       17.3200   -9.1480  -29.4480 O.2   1981  AOV1981    -0.5000
      4  O3B       17.8140   -6.7380  -29.2830 O.3   1981  AOV1981     0.0000
      5  PA        19.2350   -8.4540  -26.1170 P.3   1981  AOV1981     0.0000
      6  O1A       19.6480   -9.8010  -26.5650 O.2   1981  AOV1981    -0.5000
      7  O2A       20.1390   -7.2190  -25.9660 O.3   1981  AOV1981    -0.5000
      8  O3A       18.0750   -8.1860  -27.1550 O.3   1981  AOV1981     0.0000
      9  O5'       18.1510   -8.4460  -24.9380 O.3   1981  AOV1981     0.0000
     10  C5'       17.6430   -7.2580  -24.2580 C.3   1981  AOV1981     0.0000
     11  C4'       17.7550   -7.3650  -22.7370 C.3   1981  AOV1981     0.0000
     12  O4'       16.6990   -8.2870  -22.3390 O.3   1981  AOV1981     0.0000
     13  C3'       19.0910   -7.9330  -22.2620 C.3   1981  AOV1981     0.0000
     14  O3'       19.9130   -6.8000  -22.1380 O.3   1981  AOV1981     0.0000
     15  C2'       18.5540   -8.4180  -20.9450 C.3   1981  AOV1981     0.0000
     16  O2'       18.4320   -7.3740  -20.0080 O.3   1981  AOV1981     0.0000
     17  C1'       17.2250   -9.0440  -21.2560 C.3   1981  AOV1981     0.0000
     18  N9        17.4080  -10.4790  -21.5700 N.pl3 1981  AOV1981     0.5000
     19  C8        17.2030  -10.9920  -22.7930 C.3   1981  AOV1981     0.0000
     20  N7        17.4060  -12.3290  -22.7670 N.2   1981  AOV1981     0.0000
     21  C5        17.7130  -12.5880  -21.4830 C.2   1981  AOV1981     0.0000
     22  C6        18.0160  -13.8660  -20.7770 C.2   1981  AOV1981     0.0000
     23  N6        17.9960  -15.0360  -21.4650 N.pl3 1981  AOV1981     0.5000
     24  N1        18.3160  -13.8570  -19.4720 N.2   1981  AOV1981     0.5000
     25  C2        18.3200  -12.6920  -18.7860 C.3   1981  AOV1981     0.0000
     26  N3        18.0350  -11.5050  -19.3530 N.2   1981  AOV1981     0.5000
     27  C4        17.7390  -11.3790  -20.6610 C.2   1981  AOV1981     0.0000
     28  VG        18.4290   -5.5170  -30.7950 V     1981  AOV1981     0.0000
     29  O1G       20.1340   -5.6750  -30.2880 O.3   1981  AOV1981     0.0000
     30  O2G       17.8280   -4.1440  -29.8170 O.3   1981  AOV1981     0.0000
     31  O3G       17.3270   -6.0710  -32.0440 O.3   1981  AOV1981     0.0000
     32  O4G       18.9010   -4.1560  -31.9610 O.3   1981  AOV1981     0.0000
     33 H5'1       18.1470   -6.4840  -24.5580 H     1981  AOV1981     0.0000
     34 H5'2       16.7080   -7.1370  -24.4960 H     1981  AOV1981     0.0000
     35  H4'       17.3000   -6.5150  -22.5570 H     1981  AOV1981     0.0000
     36  H3'       19.8740   -8.4680  -22.5060 H     1981  AOV1981     0.0000
     37  H1'       16.3740   -8.9570  -20.7820 H     1981  AOV1981     0.0000
     38  HA        20.7660   -7.0520  -22.1270 H     1981  AOV1981     0.0000
     39  H2'       19.3190   -8.7910  -20.4680 H     1981  AOV1981     0.0000
     40  HB        18.8310   -7.6090  -19.2490 H     1981  AOV1981     0.0000
     41 H61N       17.8010  -15.0370  -22.3530 H     1981  AOV1981     0.0000
     42 H62N       18.1770  -15.8180  -21.0380 H     1981  AOV1981     0.0000
     43 H2G1       18.0200   -3.3820  -30.2270 H     1981  AOV1981     0.0000
     44 H3G1       17.0800   -5.3840  -32.5470 H     1981  AOV1981     0.0000
     45 H4G1       19.5470   -4.4390  -32.4990 H     1981  AOV1981     0.0000
@<TRIPOS>BOND
     1    44    31    1
     2    45    32    1
     3    31    28    1
     4    32    28    1
     5    28    29    1
     6    28    30    1
     7    28     4    1
     8    43    30    1
     9     3     1    2
    10     4     1    1
    11     2     1    1
    12     1     8    1
    13     8     5    1
    14     6     5    2
    15     5     7    1
    16     5     9    1
    17     9    10    1
    18    33    10    1
    19    34    10    1
    20    10    11    1
    21    19    20    1
    22    19    18    1
    23    20    21    2
    24    11    35    1
    25    11    12    1
    26    11    13    1
    27    36    13    1
    28    41    23    1
    29    12    17    1
    30    13    14    1
    31    13    15    1
    32    14    38    1
    33    18    17    1
    34    18    27    1
    35    21    22    1
    36    21    27    1
    37    23    42    1
    38    23    22    1
    39    17    15    1
    40    17    37    1
    41    15    39    1
    42    15    16    1
    43    22    24    2
    44    27    26    2
    45    16    40    1
    46    24    25    1
    47    26    25    1
