@<TRIPOS>MOLECULE
2ycw_CAU_A_1.pdb
 22 24 0 0 0
SMALL
GASTEIGER

@<TRIPOS>ATOM
      1  O17       53.6720   -5.9560   24.0350 O.3   400  CAU400     -0.2176
      2  C16       52.9830   -5.4300   22.9100 C.3   400  CAU400      0.2126
      3  C18       52.7710   -6.5610   21.9170 C.3   400  CAU400      0.1253
      4  N19       54.0840   -7.0190   21.4280 N.3   400  CAU400     -0.2167
      5  C20       53.7460   -7.9200   20.3250 C.3   400  CAU400      0.0730
      6  C21       54.0500   -9.3730   20.7240 C.3   400  CAU400      0.0188
      7  C22       54.4900   -7.4650   19.0530 C.3   400  CAU400      0.0188
      8  C15       51.6770   -4.8150   23.3620 C.3   400  CAU400      0.2395
      9  O14       50.8750   -4.5360   22.2110 O.3   400  CAU400     -0.4726
     10  C13       49.5420   -4.3580   22.5020 C.ar  400  CAU400      0.1411
     11  C12       49.0700   -4.3670   23.8120 C.ar  400  CAU400      0.0371
     12  C11       47.7270   -4.1760   24.0730 C.ar  400  CAU400      0.0057
     13  C10       46.8320   -3.9820   23.0340 C.ar  400  CAU400      0.0322
     14  C8        47.2880   -3.9710   21.7320 C.ar  400  CAU400      0.1344
     15  C9        48.6330   -4.1610   21.4690 C.ar  400  CAU400      0.0660
     16  N7        46.6460   -3.8020   20.5830 N.2   400  CAU400     -0.4018
     17  C3        47.5050   -3.8790   19.5730 C.ar  400  CAU400      0.1315
     18  C4        48.7740   -4.1080   20.0940 C.ar  400  CAU400      0.0350
     19  C2        47.3280   -3.7810   18.2010 C.ar  400  CAU400      0.0320
     20  C1        48.4390   -3.9080   17.3630 C.ar  400  CAU400      0.0026
     21  C6        49.7130   -4.1340   17.8800 C.ar  400  CAU400      0.0002
     22  C5        49.8780   -4.2340   19.2540 C.ar  400  CAU400      0.0027
@<TRIPOS>BOND
     1    20    21   ar
     2    20    19   ar
     3    21    22   ar
     4    19    17   ar
     5     7     5    1
     6    22    18   ar
     7    17    18   ar
     8    17    16    2
     9    18    15    2
    10     5     6    1
    11     5     4    1
    12    16    14    2
    13     4     3    1
    14    15    14   ar
    15    15    10   ar
    16    14    13   ar
    17     3     2    1
    18     9    10    1
    19     9     8    1
    20    10    11   ar
    21     2     8    1
    22     2     1    1
    23    13    12   ar
    24    11    12   ar
