@<TRIPOS>MOLECULE
2ycw_2CV_A_1.pdb
 26 25 0 0 0
SMALL
GASTEIGER

@<TRIPOS>ATOM
      1  C9        46.7010   12.1960   40.5690 C.3   1360  2CV1360     0.0000
      2  C12       46.7900   12.6920   42.0100 C.3   1360  2CV1360     0.0000
      3  C15       47.7090   13.9090   42.1290 C.3   1360  2CV1360     0.0000
      4  C18       48.0300   14.2050   43.5960 C.3   1360  2CV1360     0.0000
      5  C21       48.4130   15.6770   43.8040 C.3   1360  2CV1360     0.0005
      6  C24       48.0130   16.1920   45.2000 C.3   1360  2CV1360     0.0096
      7  C27       48.9050   17.3540   45.6610 C.3   1360  2CV1360     0.0853
      8  C30       50.2770   16.8550   46.1480 C.2   1360  2CV1360     0.2258
      9  N33       50.9930   17.7320   46.8620 N.am  1360  2CV1360    -0.2741
     10  O34       50.6630   15.7130   45.8880 O.2   1360  2CV1360    -0.2749
     11  C35       50.4790   19.0870   47.1540 C.3   1360  2CV1360     0.1290
     12  C36       52.3280   17.3640   47.3910 C.3   1360  2CV1360     0.1290
     13  C37       52.2210   16.5340   48.6910 C.3   1360  2CV1360     0.2044
     14  C40       52.8290   15.1240   48.5290 C.3   1360  2CV1360     0.2166
     15  C41       52.4970   14.1570   49.6970 C.3   1360  2CV1360     0.2175
     16  C42       51.0840   13.5040   49.6090 C.3   1360  2CV1360     0.2175
     17  C43       50.5500   13.4380   48.1650 C.3   1360  2CV1360     0.2175
     18  O44       49.3340   14.1860   48.0280 O.3   1360  2CV1360    -0.2175
     19  O47       50.8540   16.4480   49.1240 O.3   1360  2CV1360    -0.2185
     20  O49       54.2560   15.2270   48.4040 O.3   1360  2CV1360    -0.2175
     21  O51       52.6880   14.8070   50.9680 O.3   1360  2CV1360    -0.2175
     22  O53       50.1360   14.1760   50.4610 O.3   1360  2CV1360    -0.2175
     23  C60       51.2320   20.1300   46.3230 C.3   1360  2CV1360     0.2035
     24  O63       50.7980   20.0500   44.9590 O.3   1360  2CV1360    -0.2185
     25  C1        45.6870   11.0570   40.4200 C.3   1360  2CV1360     0.0000
     26  C0        46.0230    9.8680   41.3200 C.3   1360  2CV1360     0.0000
@<TRIPOS>BOND
     1    25     1    1
     2    25    26    1
     3     1     2    1
     4     2     3    1
     5     3     4    1
     6     4     5    1
     7     5     6    1
     8    24    23    1
     9     6     7    1
    10     7     8    1
    11    10     8    2
    12     8     9   am
    13    23    11    1
    14     9    11    1
    15     9    12    1
    16    12    13    1
    17    18    17    1
    18    17    16    1
    19    20    14    1
    20    14    13    1
    21    14    15    1
    22    13    19    1
    23    16    15    1
    24    16    22    1
    25    15    21    1
