@<TRIPOS>MOLECULE
2ycx_P32_A_1.pdb
 21 22 0 0 0
SMALL
GASTEIGER

@<TRIPOS>ATOM
      1  O2        54.4330  -19.4660  -26.9150 O.3   1355  P321355    -0.2176
      2  C10       53.5070  -20.1640  -26.1250 C.3   1355  P321355     0.2126
      3  N3        46.5980  -24.3490  -22.8030 N.1   1355  P321355    -0.1885
      4  C11       54.1100  -20.4770  -24.7420 C.3   1355  P321355     0.1253
      5  N2        55.5120  -20.9390  -24.7220 N.3   1355  P321355    -0.2180
      6  C12       55.7780  -22.1000  -23.8140 C.3   1355  P321355     0.0596
      7  C15       55.8630  -21.6350  -22.3380 C.3   1355  P321355     0.0174
      8  C13       57.1530  -22.7230  -24.1650 C.3   1355  P321355     0.0174
      9  C9        52.2730  -19.2810  -25.9130 C.3   1355  P321355     0.2390
     10  O1        51.3030  -20.0030  -25.1920 O.2   1355  P321355    -0.4768
     11  C4        50.0740  -19.4140  -24.8570 C.2   1355  P321355     0.1194
     12  C5        49.8450  -17.9100  -25.0280 C.3   1355  P321355     0.0897
     13  C6        48.4880  -17.2860  -24.6530 C.2   1355  P321355    -0.0156
     14  C7        47.3570  -18.1550  -24.1130 C.2   1355  P321355     0.0277
     15  C8        47.5940  -19.6620  -23.9430 C.2   1355  P321355     0.1306
     16  C3        48.9430  -20.2850  -24.3100 C.2   1355  P321355     0.0452
     17  N1        46.7020  -20.7390  -23.4460 N.2   1355  P321355    -0.3959
     18  C1        47.4700  -22.0320  -23.4990 C.2   1355  P321355     0.1808
     19  C2        48.8600  -21.7410  -24.0390 C.3   1355  P321355     0.1014
     20  C16       46.9660  -23.3150  -23.1080 C.1   1355  P321355     0.1286
     21  C14       54.6990  -23.2140  -23.9600 C.3   1355  P321355     0.0174
@<TRIPOS>BOND
     1     1     2    1
     2     2     9    1
     3     2     4    1
     4     9    10    1
     5    10    11    1
     6    12    11    1
     7    12    13    1
     8    11    16    2
     9     4     5    1
    10     5     6    1
    11    13    14    2
    12    16    19    1
    13    16    15    1
    14     8     6    1
    15    14    15    1
    16    19    18    1
    17    21     6    1
    18    15    17    2
    19     6     7    1
    20    18    17    2
    21    18    20    1
    22    20     3    3
