@<TRIPOS>MOLECULE
2ycy_P32_A_1.pdb
 21 22 0 0 0
SMALL
GASTEIGER

@<TRIPOS>ATOM
      1  O2        15.7210   18.1640   -8.3480 O.3   400  P32400     -0.2176
      2  C10       16.7360   19.1340   -8.6830 C.3   400  P32400      0.2126
      3  N3        24.0140   22.7440  -10.9830 N.1   400  P32400     -0.1882
      4  C11       17.2550   19.8630   -7.4620 C.3   400  P32400      0.1253
      5  N2        16.1320   20.5490   -6.7880 N.3   400  P32400     -0.2180
      6  C12       16.6140   21.2930   -5.5790 C.3   400  P32400      0.0596
      7  C15       17.1750   20.3630   -4.4900 C.3   400  P32400      0.0174
      8  C13       15.5270   22.0790   -4.9000 C.3   400  P32400      0.0174
      9  C9        17.8790   18.3460   -9.3600 C.3   400  P32400      0.2395
     10  O1        18.9540   19.1980   -9.7290 O.3   400  P32400     -0.4726
     11  C4        19.9590   18.4900  -10.3370 C.ar  400  P32400      0.1412
     12  C5        19.8540   17.1350  -10.6380 C.ar  400  P32400      0.0371
     13  C6        20.9210   16.5070  -11.2530 C.ar  400  P32400      0.0057
     14  C7        22.0480   17.2450  -11.5610 C.ar  400  P32400      0.0323
     15  C8        22.1010   18.5400  -11.2500 C.ar  400  P32400      0.1353
     16  C3        21.0740   19.1600  -10.6430 C.ar  400  P32400      0.0668
     17  N1        23.0710   19.4290  -11.4480 N.2   400  P32400     -0.3915
     18  C1        22.6440   20.5850  -10.9650 C.2   400  P32400      0.1990
     19  C2        21.4220   20.4370  -10.4630 C.2   400  P32400      0.0483
     20  C16       23.4090   21.8000  -10.9790 C.1   400  P32400      0.1329
     21  C14       17.6280   22.3430   -5.9930 C.3   400  P32400      0.0174
@<TRIPOS>BOND
     1    14    13   ar
     2    14    15   ar
     3    17    15    2
     4    17    18    2
     5    13    12   ar
     6    15    16   ar
     7     3    20    3
     8    20    18    1
     9    18    19    1
    10    16    19    2
    11    16    11   ar
    12    12    11   ar
    13    11    10    1
    14    10     9    1
    15     9     2    1
    16     2     1    1
    17     2     4    1
    18     4     5    1
    19     5     6    1
    20    21     6    1
    21     6     8    1
    22     6     7    1
