@<TRIPOS>MOLECULE
2ycz_I32_A_1.pdb
 22 23 0 0 0
SMALL
GASTEIGER

@<TRIPOS>ATOM
      1  O2        64.4200   -9.8430   14.4970 O.3   400  I32400     -0.2176
      2  C10       63.5210   -8.9000   15.1370 C.3   400  I32400      0.2126
      3  C11       62.8820   -7.9880   14.0820 C.3   400  I32400      0.1253
      4  N2        63.9080   -7.3570   13.2270 N.3   400  I32400     -0.2180
      5  C12       63.2810   -6.4880   12.2060 C.3   400  I32400      0.0596
      6  C15       64.3760   -5.8610   11.3560 C.3   400  I32400      0.0174
      7  C13       62.4780   -5.4160   12.9480 C.3   400  I32400      0.0174
      8  C9        62.3830   -9.6640   15.8670 C.3   400  I32400      0.2390
      9  O1        61.4930   -8.7640   16.5890 O.2   400  I32400     -0.4768
     10  C4        60.4200   -9.4340   17.0610 C.2   400  I32400      0.1201
     11  C5        60.4840  -10.8030   17.2520 C.3   400  I32400      0.0897
     12  C6        59.4110  -11.5100   17.7300 C.2   400  I32400     -0.0156
     13  C7        58.2440  -10.8460   18.0290 C.2   400  I32400      0.0277
     14  C8        58.1610   -9.4800   17.8490 C.2   400  I32400      0.1314
     15  C3        59.2470   -8.7720   17.3630 C.2   400  I32400      0.0543
     16  N1        57.1580   -8.6420   18.0690 N.2   400  I32400     -0.3951
     17  C1        57.5470   -7.4130   17.7470 C.2   400  I32400      0.1898
     18  C2        58.8370   -7.4590   17.3080 C.3   400  I32400      0.1420
     19  C16       56.8470   -6.1710   17.7970 C.1   400  I32400      0.1294
     20  C14       62.4000   -7.3050   11.2770 C.3   400  I32400      0.0174
     21  IAA       59.8850   -5.7470   16.6890 I     400  I32400     -0.0619
     22  NAF       56.2980   -5.1720   17.8220 N.1   400  I32400     -0.1885
@<TRIPOS>BOND
     1    20     5    1
     2     6     5    1
     3     5     7    1
     4     5     4    1
     5     4     3    1
     6     3     2    1
     7     1     2    1
     8     2     8    1
     9     8     9    1
    10     9    10    1
    11    21    18    1
    12    10    11    1
    13    10    15    2
    14    11    12    1
    15    18    15    1
    16    18    17    1
    17    15    14    1
    18    12    13    2
    19    17    19    1
    20    17    16    2
    21    19    22    3
    22    14    13    1
    23    14    16    2
