@<TRIPOS>MOLECULE
2yd0_BES_A_1.pdb
 22 22 0 0 0
SMALL
GASTEIGER

@<TRIPOS>ATOM
      1  N2         6.2780   75.3130   21.2640 N.3   1950  BES1950    -0.1293
      2  C1         7.3290   74.7450   22.0370 C.3   1950  BES1950     0.1355
      3  C6         8.3460   75.8010   22.5610 C.3   1950  BES1950     0.0485
      4  C7         8.1730   76.4140   23.9570 C.ar  1950  BES1950    -0.0206
      5  C8         8.5880   75.7710   25.1240 C.ar  1950  BES1950    -0.0042
      6  C12        7.6140   77.6800   24.0930 C.ar  1950  BES1950    -0.0042
      7  C9         8.4200   76.3800   26.3810 C.ar  1950  BES1950    -0.0003
      8  C11        7.4470   78.2770   25.3380 C.ar  1950  BES1950    -0.0003
      9  C10        7.8570   77.6450   26.4880 C.ar  1950  BES1950    -0.0000
     10  C2         8.1710   73.6890   21.2260 C.3   1950  BES1950     0.2467
     11  O2         7.5030   72.8870   20.2710 O.3   1950  BES1950    -0.2116
     12  C3         8.5720   72.6130   22.1440 C.2   1950  BES1950     0.2738
     13  O3         7.6100   71.9590   22.5280 O.2   1950  BES1950    -0.2705
     14  N1         9.8670   72.4670   22.4640 N.am  1950  BES1950    -0.1934
     15  C4        10.3240   71.4380   23.4340 C.3   1950  BES1950     0.1978
     16  C13       11.2420   70.3680   22.7960 C.3   1950  BES1950     0.0333
     17  C14       11.0370   68.9450   23.4060 C.3   1950  BES1950     0.0023
     18  C15       11.5010   67.8040   22.4850 C.3   1950  BES1950     0.0001
     19  C16        9.6130   68.6310   23.8830 C.3   1950  BES1950     0.0001
     20  C5        11.0000   72.0860   24.6100 C.2   1950  BES1950     0.3842
     21  O1        11.4140   73.2450   24.4490 O.co2 1950  BES1950    -0.2437
     22  O4        11.0980   71.4810   25.7020 O.co2 1950  BES1950    -0.2437
@<TRIPOS>BOND
     1    11    10    1
     2    10     2    1
     3    10    12    1
     4     1     2    1
     5     2     3    1
     6    12    14   am
     7    12    13    2
     8    14    15    1
     9    18    17    1
    10     3     4    1
    11    16    17    1
    12    16    15    1
    13    17    19    1
    14    15    20    1
    15     4     6   ar
    16     4     5   ar
    17     6     8   ar
    18    21    20   ar
    19    20    22   ar
    20     5     7   ar
    21     8     9   ar
    22     7     9   ar
