@<TRIPOS>MOLECULE
2yd8_SCR_A_1.pdb
 28 28 0 0 0
SMALL
GASTEIGER

@<TRIPOS>ATOM
      1  C11      -50.8950   14.7640   10.1900 C.3   1228  SCR1228     0.2338
      2  C12      -50.2610   15.2500    8.8740 C.3   1228  SCR1228     0.2790
      3  C13      -48.9120   14.6650    8.5760 C.3   1228  SCR1228     0.2313
      4  C14      -48.0250   15.7470    8.6460 C.3   1228  SCR1228     0.2071
      5  C15      -48.7930   16.7700    9.3960 C.3   1228  SCR1228     0.1818
      6  C16      -48.3110   18.1500    9.1680 C.3   1228  SCR1228     0.2046
      7  O1       -51.1350   14.9970    7.8450 O.3   1228  SCR1228    -0.1896
      8  O10      -50.0740   16.6290    8.9170 O.3   1228  SCR1228    -0.3254
      9  O51      -47.5140   18.7140   10.1760 O.3   1228  SCR1228    -0.2384
     10  O52      -49.5970   18.9840   11.3550 O.2   1228  SCR1228    -0.3452
     11  O53      -47.5860   18.4920   12.5710 O.3   1228  SCR1228    -0.2682
     12  O54      -47.8950   20.6510   11.5570 O.2   1228  SCR1228    -0.3452
     13  O71      -46.8840   15.3540    9.3640 O.3   1228  SCR1228    -0.2383
     14  O72      -45.7010   17.1880    8.3260 O.2   1228  SCR1228    -0.3452
     15  O73      -45.4920   16.7480   10.6870 O.3   1228  SCR1228    -0.2682
     16  O74      -44.5190   15.2390    9.1060 O.2   1228  SCR1228    -0.3452
     17  O81      -51.6540   15.7290   10.8950 O.3   1228  SCR1228    -0.2357
     18  O82      -51.9390   17.1800   12.8210 O.2   1228  SCR1228    -0.3452
     19  O83      -52.4720   14.8640   13.0170 O.3   1228  SCR1228    -0.2682
     20  O84      -50.2010   15.5600   12.8300 O.2   1228  SCR1228    -0.3452
     21  O91      -48.8680   14.0860    7.2810 O.3   1228  SCR1228    -0.2358
     22  O92      -47.4350   12.1130    7.5200 O.2   1228  SCR1228    -0.3452
     23  O93      -49.8220   11.8990    7.8010 O.3   1228  SCR1228    -0.2682
     24  O94      -48.8780   12.3240    5.6460 O.2   1228  SCR1228    -0.3452
     25  S11      -51.5630   15.8290   12.4000 S.3   1228  SCR1228     0.0000
     26  S12      -48.7490   12.6030    7.0610 S.3   1228  SCR1228     0.0000
     27  S13      -45.6530   16.1310    9.3580 S.3   1228  SCR1228    -0.0001
     28  S14      -48.1440   19.2130   11.4100 S.3   1228  SCR1228    -0.0001
@<TRIPOS>BOND
     1    24    26    2
     2    26    21    1
     3    26    22    2
     4    26    23    1
     5    21     3    1
     6     7     2    1
     7    14    27    2
     8     3     4    1
     9     3     2    1
    10     4    13    1
    11     4     5    1
    12     2     8    1
    13     2     1    1
    14     8     5    1
    15    16    27    2
    16     6     5    1
    17     6     9    1
    18    27    13    1
    19    27    15    1
    20     9    28    1
    21     1    17    1
    22    17    25    1
    23    10    28    2
    24    28    12    2
    25    28    11    1
    26    25    18    2
    27    25    20    2
    28    25    19    1
