@<TRIPOS>MOLECULE
2ydb_NAP_A_1.pdb
 27 29 0 0 0
SMALL
GASTEIGER

@<TRIPOS>ATOM
      1  PA        -4.9560    2.6610  -28.8920 P.3   1379  NAP1379     0.5327
      2  O1A       -4.2750    3.2980  -30.0420 O.2   1379  NAP1379    -0.2224
      3  O2A       -4.2610    1.4140  -28.4940 O.3   1379  NAP1379    -0.1145
      4  O5B       -5.0740    3.6980  -27.6590 O.3   1379  NAP1379    -0.2675
      5  C5B       -5.4270    5.0450  -27.8990 C.3   1379  NAP1379     0.1860
      6  C4B       -5.8390    5.7900  -26.6270 C.3   1379  NAP1379     0.1822
      7  O4B       -7.2330    5.6850  -26.3980 O.3   1379  NAP1379    -0.3136
      8  C3B       -5.1720    5.3110  -25.3440 C.3   1379  NAP1379     0.2157
      9  O3B       -4.0680    6.1330  -25.0420 O.3   1379  NAP1379    -0.2175
     10  C2B       -6.2310    5.4570  -24.2650 C.3   1379  NAP1379     0.2314
     11  O2B       -5.8590    6.5080  -23.4110 O.3   1379  NAP1379    -0.2630
     12  C1B       -7.4770    5.8900  -25.0170 C.3   1379  NAP1379     0.3158
     13  N9A       -8.7030    5.2340  -24.5090 N.pl3 1379  NAP1379    -0.1439
     14  C8A       -9.4300    5.7310  -23.4610 C.3   1379  NAP1379     0.3377
     15  N7A      -10.4920    4.9250  -23.2400 N.2   1379  NAP1379    -0.2095
     16  C5A      -10.4650    3.9120  -24.1370 C.2   1379  NAP1379     0.2526
     17  C6A      -11.3180    2.8310  -24.3390 C.2   1379  NAP1379     0.4393
     18  N6A      -12.3860    2.6700  -23.5580 N.pl3 1379  NAP1379     0.2180
     19  N1A      -11.0490    1.9300  -25.3520 N.2   1379  NAP1379     0.0021
     20  C2A       -9.9350    2.1150  -26.1490 C.3   1379  NAP1379     0.5254
     21  N3A       -9.0920    3.1950  -25.9390 N.2   1379  NAP1379    -0.0055
     22  C4A       -9.3440    4.0890  -24.9470 C.2   1379  NAP1379     0.3518
     23  O3        -6.4960    2.3700  -29.2620 O.3   1379  NAP1379    -0.1145
     24  P2B       -5.5230    6.2520  -21.8550 P.3   1379  NAP1379     0.5328
     25  O1X       -4.0490    5.9520  -21.7100 O.2   1379  NAP1379    -0.2224
     26  O2X       -6.3600    5.1310  -21.2950 O.3   1379  NAP1379    -0.1145
     27  O3X       -5.8380    7.5180  -21.1030 O.3   1379  NAP1379    -0.1145
@<TRIPOS>BOND
     1     2     1    2
     2    23     1    1
     3     1     3    1
     4     1     4    1
     5     5     4    1
     6     5     6    1
     7     6     7    1
     8     6     8    1
     9     7    12    1
    10    20    21    1
    11    20    19    1
    12    21    22    2
    13    19    17    2
    14     8     9    1
    15     8    10    1
    16    12    13    1
    17    12    10    1
    18    22    13    1
    19    22    16    1
    20    13    14    1
    21    17    16    1
    22    17    18    1
    23    10    11    1
    24    16    15    2
    25    14    15    1
    26    11    24    1
    27    24    25    2
    28    24    26    1
    29    24    27    1
