@<TRIPOS>MOLECULE
2ydc_GDP_A_1.pdb
 28 30 0 0 0
SMALL
GASTEIGER

@<TRIPOS>ATOM
      1  PB        -6.1240    6.0900  -21.4500 P.3   1379  GDP1379     0.5373
      2  O1B       -5.7090    5.0900  -20.3980 O.3   1379  GDP1379    -0.1143
      3  O2B       -7.5150    6.6010  -21.1500 O.3   1379  GDP1379    -0.1143
      4  O3B       -5.1390    7.2340  -21.4580 O.2   1379  GDP1379    -0.2221
      5  O3A       -6.1040    5.3600  -22.8840 O.3   1379  GDP1379    -0.2261
      6  PA        -6.2090    6.1890  -24.2620 P.3   1379  GDP1379     0.2231
      7  O1A       -4.9080    6.1080  -25.0280 O.2   1379  GDP1379    -0.5169
      8  O2A       -6.6030    7.6250  -24.0070 O.3   1379  GDP1379    -0.4370
      9  O5'       -7.3710    5.3850  -25.0310 O.3   1379  GDP1379    -0.3111
     10  C5'       -7.4140    5.2520  -26.4480 C.3   1379  GDP1379     0.1813
     11  C4'       -7.6660    3.7730  -26.7120 C.3   1379  GDP1379     0.1799
     12  O4'       -8.7380    3.2980  -25.8920 O.3   1379  GDP1379    -0.3326
     13  C3'       -8.0570    3.4570  -28.1470 C.3   1379  GDP1379     0.2158
     14  O3'       -6.9370    2.9320  -28.8650 O.3   1379  GDP1379    -0.2175
     15  C2'       -9.1490    2.4080  -28.0260 C.3   1379  GDP1379     0.2310
     16  O2'       -8.7530    1.2100  -28.6980 O.3   1379  GDP1379    -0.2158
     17  C1'       -9.3180    2.1600  -26.5310 C.3   1379  GDP1379     0.2293
     18  N9       -10.7490    1.9680  -26.1700 N.pl3 1379  GDP1379    -0.2354
     19  C8       -11.6030    1.1650  -26.8330 C.3   1379  GDP1379     0.2246
     20  N7       -12.8390    1.1860  -26.2740 N.2   1379  GDP1379    -0.2322
     21  C5       -12.7920    2.0270  -25.2250 C.2   1379  GDP1379     0.2182
     22  C6       -13.7540    2.5080  -24.2030 C.1   1379  GDP1379     0.2372
     23  O6       -14.9410    2.1140  -24.1990 O.2   1379  GDP1379    -0.2069
     24  N1       -13.3130    3.3770  -23.2850 N.2   1379  GDP1379    -0.2485
     25  C2       -12.0420    3.8190  -23.2640 C.1   1379  GDP1379     0.2531
     26  N2       -11.6850    4.6990  -22.2960 N.pl3 1379  GDP1379    -0.0226
     27  N3       -11.1060    3.4200  -24.1690 N.2   1379  GDP1379    -0.3074
     28  C4       -11.4140    2.5420  -25.1560 C.2   1379  GDP1379     0.2300
@<TRIPOS>BOND
     1    14    13    1
     2    16    15    1
     3    13    15    1
     4    13    11    1
     5    15    17    1
     6    19    20    1
     7    19    18    1
     8    11    10    1
     9    11    12    1
    10    17    18    1
    11    17    12    1
    12    10     9    1
    13    20    21    2
    14    18    28    1
    15    21    28    1
    16    21    22    1
    17    28    27    2
    18     9     6    1
    19     7     6    2
    20     6     8    1
    21     6     5    1
    22    22    23    2
    23    22    24    2
    24    27    25    2
    25    24    25    2
    26    25    26    1
    27     5     1    1
    28     4     1    2
    29     1     3    1
    30     1     2    1
