@<TRIPOS>MOLECULE
2ydd_2AM_A_1.pdb
 23 25 0 0 0
SMALL
GASTEIGER

@<TRIPOS>ATOM
      1  P         -6.0420    5.7740  -21.4860 P.3   1379  2AM1379     0.5328
      2  O1P       -4.5600    6.0430  -21.6940 O.2   1379  2AM1379    -0.2224
      3  O2P       -6.2600    4.4130  -20.8520 O.3   1379  2AM1379    -0.1145
      4  O3P       -6.6940    6.7670  -20.5470 O.3   1379  2AM1379    -0.1145
      5  C5'       -5.8860    5.0930  -27.4130 C.3   1379  2AM1379     0.2143
      6  O5'       -4.9930    5.9440  -28.1090 O.3   1379  2AM1379    -0.2176
      7  C4'       -6.3480    5.7960  -26.1410 C.3   1379  2AM1379     0.1850
      8  O4'       -7.7430    5.6610  -25.9590 O.3   1379  2AM1379    -0.3135
      9  C3'       -5.6770    5.2340  -24.9080 C.3   1379  2AM1379     0.2158
     10  O3'       -4.7360    6.1740  -24.4490 O.3   1379  2AM1379    -0.2175
     11  C2'       -6.7990    4.9940  -23.9080 C.3   1379  2AM1379     0.2314
     12  O2'       -6.7520    5.9900  -22.9240 O.3   1379  2AM1379    -0.2630
     13  C1'       -8.1010    5.2020  -24.6610 C.3   1379  2AM1379     0.3158
     14  N9        -8.9950    4.0230  -24.8340 N.pl3 1379  2AM1379    -0.1439
     15  C8        -8.7950    2.9720  -25.7020 C.3   1379  2AM1379     0.3377
     16  N7        -9.8400    2.1080  -25.6200 N.2   1379  2AM1379    -0.2095
     17  C5       -10.7200    2.6000  -24.7210 C.2   1379  2AM1379     0.2526
     18  C6       -11.9470    2.1250  -24.2640 C.2   1379  2AM1379     0.4393
     19  N6       -12.4210    0.9720  -24.7340 N.pl3 1379  2AM1379     0.2180
     20  N1       -12.6580    2.8450  -23.3150 N.2   1379  2AM1379     0.0021
     21  C2       -12.1480    4.0390  -22.8260 C.3   1379  2AM1379     0.5254
     22  N3       -10.9300    4.5070  -23.2860 N.2   1379  2AM1379    -0.0055
     23  C4       -10.2160    3.8040  -24.2180 C.2   1379  2AM1379     0.3518
@<TRIPOS>BOND
     1     6     5    1
     2     5     7    1
     3     7     8    1
     4     7     9    1
     5     8    13    1
     6    15    16    1
     7    15    14    1
     8    16    17    2
     9     9    10    1
    10     9    11    1
    11    14    13    1
    12    14    23    1
    13    19    18    1
    14    17    18    1
    15    17    23    1
    16    13    11    1
    17    18    20    2
    18    23    22    2
    19    11    12    1
    20    20    21    1
    21    22    21    1
    22    12     1    1
    23     2     1    2
    24     1     3    1
    25     1     4    1
