@<TRIPOS>MOLECULE
2yde_S2G_A_1.pdb
 10 9 0 0 0
SMALL
GASTEIGER

@<TRIPOS>ATOM
      1  C1       -18.4450   20.8160   -8.4900 C.2   601  S2G601      0.3946
      2  C3       -18.1380   23.2860   -8.1850 C.3   601  S2G601      0.0565
      3  C4       -17.6500   24.3870   -7.2390 C.3   601  S2G601      0.1173
      4  C5       -17.9460   25.7880   -7.7820 C.2   601  S2G601      0.3650
      5  O2       -17.7410   19.7970   -8.6470 O.co2 601  S2G601     -0.2428
      6  O1       -19.5570   21.0280   -9.0180 O.co2 601  S2G601     -0.2428
      7  O3       -16.5050   21.6930   -7.3480 O.3   601  S2G601     -0.2109
      8  O5       -17.4060   26.7480   -7.1920 O.co2 601  S2G601     -0.2457
      9  C2       -17.9040   21.9090   -7.5650 C.3   601  S2G601      0.2545
     10  O4       -18.7100   25.8680   -8.7670 O.co2 601  S2G601     -0.2457
@<TRIPOS>BOND
     1     6     1   ar
     2    10     4   ar
     3     5     1   ar
     4     1     9    1
     5     2     9    1
     6     2     3    1
     7     4     3    1
     8     4     8   ar
     9     9     7    1
