@<TRIPOS>MOLECULE
2ydf_IO3_A_1.pdb
 17 17 0 0 0
SMALL
GASTEIGER

@<TRIPOS>ATOM
      1  I1         7.2560  -13.1420    7.2940 I     2001  IO32001    -0.0428
      2  I2         3.9020  -12.0250   12.0250 I     2001  IO32001    -0.0392
      3  I3         3.1480   -8.5590    7.2340 I     2001  IO32001    -0.0395
      4  O1         2.8260   -9.7470   10.0540 O.3   2001  IO32001    -0.2857
      5  O2         4.6850   -8.9210    3.1840 O.co2 2001  IO32001    -0.2457
      6  O3         6.2480  -10.4520    3.3010 O.co2 2001  IO32001    -0.2457
      7  C1         5.1420  -10.9020    7.4700 C.ar  2001  IO32001    -0.0078
      8  C2         5.7490  -11.9520    8.1530 C.ar  2001  IO32001     0.0271
      9  C3         5.3910  -12.2650    9.4430 C.ar  2001  IO32001     0.0145
     10  C4         4.4180  -11.5240   10.0610 C.ar  2001  IO32001     0.0698
     11  C5         3.8000  -10.4780    9.4150 C.ar  2001  IO32001     0.2059
     12  C6         4.1630  -10.1650    8.1250 C.ar  2001  IO32001     0.0658
     13  C7         5.5660  -10.5750    6.0730 C.3   2001  IO32001     0.0385
     14  C8         4.5430  -10.4550    4.9960 C.3   2001  IO32001     0.1078
     15  C9         5.1940   -9.9200    3.7620 C.2   2001  IO32001     0.3646
     16  C10        3.9240  -11.7820    4.7160 C.3   2001  IO32001     0.0116
     17  C11        4.7530  -12.8490    4.0840 C.3   2001  IO32001     0.0006
@<TRIPOS>BOND
     1     5    15   ar
     2     6    15   ar
     3    15    14    1
     4    17    16    1
     5    16    14    1
     6    14    13    1
     7    13     7    1
     8     3    12    1
     9     1     8    1
    10     7    12   ar
    11     7     8   ar
    12    12    11   ar
    13     8     9   ar
    14    11     4    1
    15    11    10   ar
    16     9    10   ar
    17    10     2    1
