@<TRIPOS>MOLECULE
2ydg_A5C_A_1.pdb
 12 12 0 0 0
SMALL
GASTEIGER

@<TRIPOS>ATOM
      1  C1       -13.3280  -10.0720   15.0330 C.3   1131  A5C1131     0.2174
      2  C2       -11.8690  -10.0880   15.3740 C.3   1131  A5C1131     0.2143
      3  C4        -9.9120  -11.4250   15.5510 C.3   1131  A5C1131     0.2169
      4  C5        -9.2030  -11.8640   14.3800 C.3   1131  A5C1131     0.2433
      5  O1       -14.1300  -11.0370   15.6090 O.3   1131  A5C1131    -0.2175
      6  O2       -11.1940   -9.1620   14.5970 O.3   1131  A5C1131    -0.2176
      7  O6        -9.8440  -12.5810   12.2700 O.3   1131  A5C1131    -0.1869
      8  O4        -9.7280  -12.2850   16.6430 O.3   1131  A5C1131    -0.2175
      9  C6       -10.2210  -12.5430   13.5780 C.3   1131  A5C1131     0.3024
     10  O5        -8.1310  -12.7170   14.6560 O.3   1131  A5C1131    -0.2148
     11  C40      -11.3120  -11.4270   15.1550 C.3   1131  A5C1131     0.1837
     12  O3       -11.3590  -11.7910   13.7760 O.3   1131  A5C1131    -0.3236
@<TRIPOS>BOND
     1     7     9    1
     2     9    12    1
     3     9     4    1
     4    12    11    1
     5     4    10    1
     6     4     3    1
     7     6     2    1
     8     1     2    1
     9     1     5    1
    10    11     2    1
    11    11     3    1
    12     3     8    1
