@<TRIPOS>MOLECULE
2ydi_YDI_A_1.pdb
 24 25 0 0 0
SMALL
GASTEIGER

@<TRIPOS>ATOM
      1  S01        2.7040   -3.2270   19.9480 S.2   1282  YDI1282    -0.0702
      2  C02        3.9910   -3.9740   19.0660 C.ar  1282  YDI1282     0.1088
      3  C03        3.5570   -5.1270   18.4340 C.ar  1282  YDI1282     0.0786
      4  C04        2.1780   -5.3590   18.6910 C.ar  1282  YDI1282     0.0130
      5  C05        1.5620   -4.4230   19.5050 C.ar  1282  YDI1282     0.0309
      6  N06        5.2890   -3.4650   19.0100 N.am  1282  YDI1282    -0.1529
      7  C07        5.6100   -2.2280   19.5250 C.2   1282  YDI1282     0.3637
      8  N08        6.8540   -1.7920   19.1610 N.am  1282  YDI1282    -0.0676
      9  O09        4.8580   -1.5750   20.2450 O.2   1282  YDI1282    -0.2470
     10  C10        4.4510   -5.9240   17.6230 C.2   1282  YDI1282     0.2860
     11  O11        5.6370   -5.6480   17.4900 O.2   1282  YDI1282    -0.2666
     12  N12        3.8280   -6.9810   16.9920 N.am  1282  YDI1282    -0.0836
     13  C14       -7.2820   -3.6610   20.3140 C.3   1282  YDI1282     0.0898
     14  N15       -6.0700   -2.8400   20.5130 N.3   1282  YDI1282    -0.2672
     15  C16       -5.5990   -2.8700   21.9200 C.3   1282  YDI1282     0.1201
     16  C17       -4.0970   -3.0410   21.8770 C.3   1282  YDI1282     0.2226
     17  C19        0.1870   -4.3280   19.9610 C.ar  1282  YDI1282     0.0062
     18  C20       -0.2480   -3.2880   20.7620 C.ar  1282  YDI1282     0.0036
     19  C21       -1.5700   -3.1930   21.1620 C.ar  1282  YDI1282     0.0369
     20  C22       -2.4600   -4.1660   20.7440 C.ar  1282  YDI1282     0.1386
     21  C2        -6.2480   -1.4570   20.0080 C.3   1282  YDI1282     0.0898
     22  C23       -2.0380   -5.2080   19.9460 C.ar  1282  YDI1282     0.0369
     23  C24       -0.7220   -5.2820   19.5530 C.ar  1282  YDI1282     0.0036
     24  O1        -3.8040   -4.1800   21.0820 O.3   1282  YDI1282    -0.4740
@<TRIPOS>BOND
     1    12    10   am
     2    11    10    2
     3    10     3    1
     4     3     4   ar
     5     3     2   ar
     6     4     5   ar
     7     6     2    1
     8     6     7   am
     9     2     1   ar
    10     8     7   am
    11     5     1   ar
    12     5    17    1
    13     7     9    2
    14    23    22   ar
    15    23    17   ar
    16    22    20   ar
    17    17    18   ar
    18    21    14    1
    19    13    14    1
    20    14    15    1
    21    20    24    1
    22    20    19   ar
    23    18    19   ar
    24    24    16    1
    25    16    15    1
