@<TRIPOS>MOLECULE
2ydj_YDJ_A_1.pdb
 25 27 0 0 0
SMALL
GASTEIGER

@<TRIPOS>ATOM
      1  C1         9.2180   -1.2330   46.6090 C.ar  1270  YDJ1270     0.0023
      2  C2         7.9690   -1.2940   46.0070 C.ar  1270  YDJ1270     0.0006
      3  C3         7.2630   -2.4770   45.9420 C.ar  1270  YDJ1270     0.0083
      4  C4         7.8150   -3.6100   46.5010 C.ar  1270  YDJ1270     0.0301
      5  C5         9.0580   -3.5510   47.0900 C.ar  1270  YDJ1270     0.1402
      6  C6         9.7740   -2.3710   47.1510 C.ar  1270  YDJ1270     0.0296
      7  F1         9.5570   -4.6800   47.6230 F     1270  YDJ1270    -0.2042
      8  C7         5.9730   -2.5440   45.2730 C.ar  1270  YDJ1270     0.0310
      9  C8         5.4240   -1.7070   44.3220 C.ar  1270  YDJ1270     0.0238
     10  C9         4.1240   -2.0850   43.9010 C.ar  1270  YDJ1270     0.0859
     11  C10        3.6650   -3.2280   44.5210 C.ar  1270  YDJ1270     0.0998
     12  S1         4.8540   -3.8030   45.6210 S.2   1270  YDJ1270    -0.0810
     13  C11        2.3830   -3.8490   44.2870 C.2   1270  YDJ1270     0.2721
     14  O1         1.5590   -3.3440   43.5240 O.2   1270  YDJ1270    -0.2678
     15  N1         2.1110   -5.0300   44.9490 N.am  1270  YDJ1270    -0.2015
     16  C12        0.7140   -5.4280   44.9620 C.3   1270  YDJ1270     0.1130
     17  C13        0.5650   -6.9220   44.7110 C.3   1270  YDJ1270     0.0246
     18  C14       -0.8490   -7.4230   44.9750 C.3   1270  YDJ1270     0.0206
     19  C15       -1.2520   -7.1160   46.4030 C.3   1270  YDJ1270     0.0888
     20  N2        -1.2310   -5.6220   46.4710 N.3   1270  YDJ1270    -0.2162
     21  C16        0.1070   -4.9850   46.2820 C.3   1270  YDJ1270     0.1103
     22  N3         3.3350   -1.4360   42.9570 N.am  1270  YDJ1270    -0.1589
     23  C17        3.5890   -0.1590   42.5230 C.2   1270  YDJ1270     0.3632
     24  O2         4.6340    0.4540   42.7080 O.2   1270  YDJ1270    -0.2471
     25  N4         2.5050    0.3420   41.8320 N.am  1270  YDJ1270    -0.0676
@<TRIPOS>BOND
     1    25    23   am
     2    23    24    2
     3    23    22   am
     4    22    10    1
     5    14    13    2
     6    10     9   ar
     7    10    11   ar
     8    13    11    1
     9    13    15   am
    10     9     8   ar
    11    11    12   ar
    12    17    16    1
    13    17    18    1
    14    15    16    1
    15    16    21    1
    16    18    19    1
    17     8    12   ar
    18     8     3    1
    19     3     2   ar
    20     3     4   ar
    21     2     1   ar
    22    21    20    1
    23    19    20    1
    24     4     5   ar
    25     1     6   ar
    26     5     6   ar
    27     5     7    1
