@<TRIPOS>MOLECULE
2ydk_YDK_A_1.pdb
 24 26 0 0 0
SMALL
GASTEIGER

@<TRIPOS>ATOM
      1  S01        1.2590   71.9410   10.0000 S.2   1277  YDK1277    -0.0702
      2  C02        2.7360   72.8250    9.7660 C.ar  1277  YDK1277     0.1088
      3  C03        2.9350   73.8130   10.7180 C.ar  1277  YDK1277     0.0770
      4  C04        1.8450   73.8320   11.6340 C.ar  1277  YDK1277     0.0129
      5  C05        0.8610   72.8960   11.3850 C.ar  1277  YDK1277     0.0309
      6  N06        3.5990   72.5150    8.7140 N.am  1277  YDK1277    -0.1529
      7  C07        3.3740   71.4330    7.9070 C.2   1277  YDK1277     0.3637
      8  N08        4.4360   71.0590    7.1280 N.am  1277  YDK1277    -0.0676
      9  O09        2.3180   70.8440    7.8680 O.2   1277  YDK1277    -0.2470
     10  C10        4.1220   74.6620   10.7220 C.2   1277  YDK1277     0.2666
     11  O11        5.0040   74.5430    9.8990 O.2   1277  YDK1277    -0.2683
     12  N12        4.2280   75.5830   11.7290 N.am  1277  YDK1277    -0.2019
     13  C13        5.5240   76.1430   12.0570 C.3   1277  YDK1277     0.1130
     14  C14        6.2170   75.2340   13.0390 C.3   1277  YDK1277     0.1103
     15  N15        7.5240   75.8190   13.4510 N.3   1277  YDK1277    -0.2162
     16  C16        7.4040   77.1600   14.0990 C.3   1277  YDK1277     0.0888
     17  C17        6.7580   78.0830   13.0800 C.3   1277  YDK1277     0.0206
     18  C18        5.4040   77.5620   12.6190 C.3   1277  YDK1277     0.0246
     19  C19       -0.3740   72.6280   12.1140 C.ar  1277  YDK1277     0.0060
     20  C20       -0.8100   73.4350   13.1440 C.ar  1277  YDK1277     0.0005
     21  C21       -1.9880   73.1630   13.8240 C.ar  1277  YDK1277     0.0000
     22  C22       -2.7240   72.0570   13.4540 C.ar  1277  YDK1277     0.0000
     23  C23       -2.3000   71.2370   12.4270 C.ar  1277  YDK1277     0.0000
     24  C24       -1.1290   71.5280   11.7660 C.ar  1277  YDK1277     0.0005
@<TRIPOS>BOND
     1     8     7   am
     2     9     7    2
     3     7     6   am
     4     6     2    1
     5     2     1   ar
     6     2     3   ar
     7    11    10    2
     8     1     5   ar
     9     3    10    1
    10     3     4   ar
    11    10    12   am
    12     5     4   ar
    13     5    19    1
    14    12    13    1
    15    24    19   ar
    16    24    23   ar
    17    13    18    1
    18    13    14    1
    19    19    20   ar
    20    23    22   ar
    21    18    17    1
    22    14    15    1
    23    17    16    1
    24    20    21   ar
    25    15    16    1
    26    22    21   ar
