@<TRIPOS>MOLECULE
2ydm_SLC_A_1.pdb
 14 14 0 0 0
SMALL
GASTEIGER

@<TRIPOS>ATOM
      1  C4        12.9620   -8.3170  -21.7140 C.2   1626  SLC1626     0.0000
      2  O1        11.8620   -8.6530  -21.3290 O.2   1626  SLC1626     0.0000
      3  C2        13.9790   -8.1970  -20.6680 C.2   1626  SLC1626     0.0000
      4  C3        15.2600   -8.2290  -20.9450 C.2   1626  SLC1626     0.0000
      5  C1        13.5610   -8.1020  -19.2200 C.3   1626  SLC1626     0.0000
      6 SE         13.7880   -6.2380  -18.6610 Se    1626  SLC1626     0.0000
      7  N         13.2500   -8.1130  -23.0170 N.am  1626  SLC1626     0.0000
      8  C8        12.3260   -8.2580  -23.9570 C.3   1626  SLC1626     0.0000
      9  C9        11.4960   -9.3140  -24.0970 C.2   1626  SLC1626     0.0000
     10  O3        10.6740   -9.3950  -25.0330 O.co2 1626  SLC1626     0.0000
     11  C7        12.5120   -7.1560  -24.9390 C.3   1626  SLC1626     0.0000
     12  C6        14.0340   -7.0490  -24.9080 C.3   1626  SLC1626     0.0000
     13  C5        14.5170   -7.6820  -23.5970 C.3   1626  SLC1626     0.0000
     14  O2        11.4890  -10.2190  -23.2480 O.co2 1626  SLC1626     0.0000
@<TRIPOS>BOND
     1    10     9   ar
     2    11    12    1
     3    11     8    1
     4    12    13    1
     5     9     8    1
     6     9    14   ar
     7     8     7    1
     8    13     7    1
     9     7     1   am
    10     1     2    2
    11     1     3    1
    12     4     3    2
    13     3     5    1
    14     5     6    1
