@<TRIPOS>MOLECULE
2ydo_ADN_A_1.pdb
 19 21 0 0 0
SMALL
GASTEIGER

@<TRIPOS>ATOM
      1  O5'      -29.2330   10.5700  -26.0220 O.3   400  ADN400     -0.2176
      2  C5'      -29.4640   11.8130  -25.3530 C.3   400  ADN400      0.2143
      3  C4'      -29.7040   11.5740  -23.8670 C.3   400  ADN400      0.1851
      4  O4'      -30.6650   10.5270  -23.6910 O.3   400  ADN400     -0.3134
      5  C3'      -28.4670   11.1510  -23.0840 C.3   400  ADN400      0.2186
      6  O3'      -27.7250   12.2450  -22.5260 O.3   400  ADN400     -0.2174
      7  C2'      -29.0500   10.2980  -21.9850 C.3   400  ADN400      0.2570
      8  O2'      -29.3760   11.1150  -20.8570 O.3   400  ADN400     -0.2130
      9  C1'      -30.3120    9.7000  -22.5840 C.3   400  ADN400      0.3186
     10  N9       -30.0220    8.3070  -23.0090 N.pl3 400  ADN400     -0.1439
     11  C8       -29.6630    7.8860  -24.2420 C.3   400  ADN400      0.3377
     12  N7       -29.4630    6.5420  -24.2560 N.2   400  ADN400     -0.2095
     13  C5       -29.6840    6.0870  -23.0110 C.2   400  ADN400      0.2526
     14  C6       -29.6570    4.7730  -22.3340 C.2   400  ADN400      0.4393
     15  N6       -29.3340    3.6420  -23.0080 N.pl3 400  ADN400      0.2180
     16  N1       -29.9680    4.7450  -21.0190 N.2   400  ADN400      0.0021
     17  C2       -30.2950    5.8540  -20.3270 C.3   400  ADN400      0.5254
     18  N3       -30.3410    7.0790  -20.8840 N.2   400  ADN400     -0.0055
     19  C4       -30.0530    7.2540  -22.1940 C.2   400  ADN400      0.3518
@<TRIPOS>BOND
     1     1     2    1
     2     2     3    1
     3    12    11    1
     4    12    13    2
     5    11    10    1
     6     3     4    1
     7     3     5    1
     8     4     9    1
     9     5     6    1
    10     5     7    1
    11    13    14    1
    12    13    19    1
    13    10     9    1
    14    10    19    1
    15    15    14    1
    16     9     7    1
    17    14    16    2
    18    19    18    2
    19     7     8    1
    20    16    17    1
    21    18    17    1
