@<TRIPOS>MOLECULE
2ydq_III_T_1.pdb
 37 37 0 0 0
SMALL
GASTEIGER

@<TRIPOS>ATOM
      1  N         29.9880  -39.9580  -14.1930 N.3   402  VAL402     -0.1231
      2  CA        31.0390  -40.5540  -15.0920 C.3   402  VAL402      0.1692
      3  C         32.3040  -39.6680  -15.2230 C.2   402  VAL402      0.2592
      4  O         33.4330  -40.1800  -15.0390 O.2   402  VAL402     -0.2718
      5  CB        30.4350  -41.0430  -16.4670 C.3   402  VAL402      0.0266
      6  CG1       31.4180  -40.9150  -17.6590 C.3   402  VAL402      0.0020
      7  CG2       29.9420  -42.4850  -16.3220 C.3   402  VAL402      0.0020
      8  N         32.1210  -38.3670  -15.5000 N.am  403  ALA403     -0.1966
      9  CA        33.2530  -37.4410  -15.7010 C.3   403  ALA403      0.1728
     10  C         33.4420  -36.4510  -14.5500 C.2   403  ALA403      0.2616
     11  O         34.5280  -35.8720  -14.4100 O.2   403  ALA403     -0.2715
     12  CB        33.1480  -36.6950  -17.0590 C.3   403  ALA403      0.0334
     13  N         32.3850  -36.2860  -13.7410 N.am  404  HIS404     -0.1959
     14  CA        32.3080  -35.3460  -12.6060 C.3   404  HIS404      0.1784
     15  C         31.0020  -35.5700  -11.8150 C.2   404  HIS404      0.2621
     16  O         30.1230  -36.2960  -12.2810 O.2   404  HIS404     -0.2715
     17  CB        32.3990  -33.8950  -13.0830 C.3   404  HIS404      0.0745
     18  CG        31.3570  -33.5160  -14.0950 C.2   404  HIS404      0.0653
     19  ND1       30.0680  -33.1690  -13.7460 N.2   404  HIS404     -0.2310
     20  CD2       31.4190  -33.4210  -15.4450 C.3   404  HIS404      0.1683
     21  CE1       29.3810  -32.8820  -14.8360 C.2   404  HIS404      0.1939
     22  NE2       30.1780  -33.0250  -15.8810 N.2   404  HIS404     -0.2440
     23  N         30.8810  -34.9690  -10.6270 N.am  405  SER405     -0.1936
     24  CA        29.6470  -35.0530   -9.8280 C.3   405  SER405      0.2055
     25  C         28.5730  -34.0890  -10.3250 C.2   405  SER405      0.2644
     26  O         28.7650  -33.3560  -11.2950 O.2   405  SER405     -0.2714
     27  CB        29.9150  -34.7040   -8.3620 C.3   405  SER405      0.2130
     28  OG        30.7390  -35.6550   -7.7460 O.3   405  SER405     -0.2179
     29  N         27.4450  -34.0820   -9.6190 N.am  406  GLY406     -0.1939
     30  CA        26.3850  -33.1020   -9.8250 C.3   406  GLY406      0.2014
     31  C         25.7340  -33.2380  -11.1870 C.2   406  GLY406      0.2638
     32  O         25.8430  -34.2920  -11.8400 O.2   406  GLY406     -0.2714
     33  N         25.0800  -32.1560  -11.6240 N.am  407  ALA407     -0.1977
     34  CA        24.2950  -32.1610  -12.8690 C.3   407  ALA407      0.1597
     35  C         25.0400  -31.7320  -14.1690 C.2   407  ALA407      0.2287
     36  O         26.2260  -32.0440  -14.3930 O.2   407  ALA407     -0.2864
     37  CB        22.9800  -31.3440  -12.6710 C.3   407  ALA407      0.0319
@<TRIPOS>BOND
     1     6     5    1
     2    12     9    1
     3     5     7    1
     4     5     2    1
     5    22    20    1
     6    22    21    2
     7     9     8    1
     8     9    10    1
     9     8     3   am
    10    20    18    1
    11     3     2    1
    12     3     4    2
    13     2     1    1
    14    21    19    1
    15    10    11    2
    16    10    13   am
    17    36    35    2
    18    35    34    1
    19    18    19    2
    20    18    17    1
    21    13    14    1
    22    17    14    1
    23    34    37    1
    24    34    33    1
    25    14    15    1
    26    16    15    2
    27    32    31    2
    28    15    23   am
    29    33    31   am
    30    26    25    2
    31    31    30    1
    32    23    24    1
    33    25    24    1
    34    25    29   am
    35    24    27    1
    36    30    29    1
    37    27    28    1
