@<TRIPOS>MOLECULE
2ydq_NAG_T_1.pdb
 14 14 0 0 0
SMALL
GASTEIGER

@<TRIPOS>ATOM
      1  C1        31.3270  -35.0810   -6.5660 C.3   500  NAG500      0.1665
      2  C2        32.1500  -36.2910   -6.1060 C.3   500  NAG500      0.1576
      3  C3        33.6500  -36.1710   -6.3730 C.3   500  NAG500      0.2069
      4  C4        33.9180  -35.1980   -7.5060 C.3   500  NAG500      0.2134
      5  C5        33.4000  -33.8240   -7.0950 C.3   500  NAG500      0.1809
      6  C6        33.5410  -32.7990   -8.2030 C.3   500  NAG500      0.2141
      7  C7        31.8470  -35.8460   -3.6600 C.2   500  NAG500      0.2420
      8  C8        31.6120  -36.5100   -2.3270 C.3   500  NAG500      0.0964
      9  N2        31.9120  -36.6550   -4.7140 N.am  500  NAG500     -0.2019
     10  O3        34.2170  -37.4400   -6.6460 O.3   500  NAG500     -0.2184
     11  O4        35.2990  -35.1480   -7.7770 O.3   500  NAG500     -0.2176
     12  O5        32.0360  -33.8520   -6.7330 O.3   500  NAG500     -0.3489
     13  O6        33.0500  -33.3160   -9.4280 O.3   500  NAG500     -0.2176
     14  O7        31.9670  -34.6210   -3.7190 O.2   500  NAG500     -0.2733
@<TRIPOS>BOND
     1    13     6    1
     2     6     5    1
     3    11     4    1
     4     4     5    1
     5     4     3    1
     6     5    12    1
     7    12     1    1
     8    10     3    1
     9     1     2    1
    10     3     2    1
    11     2     9    1
    12     9     7   am
    13    14     7    2
    14     7     8    1
