@<TRIPOS>MOLECULE
2ydr_NAG_P_1.pdb
 14 14 0 0 0
SMALL
GASTEIGER

@<TRIPOS>ATOM
      1  C1        31.3250  -35.0560   -6.5010 C.3   1153  NAG1153     0.1665
      2  C2        32.1320  -36.2750   -6.0380 C.3   1153  NAG1153     0.1576
      3  C3        33.6340  -36.0770   -6.2370 C.3   1153  NAG1153     0.2069
      4  C4        33.9110  -35.1500   -7.4060 C.3   1153  NAG1153     0.2134
      5  C5        33.3840  -33.7680   -7.0320 C.3   1153  NAG1153     0.1809
      6  C6        33.4870  -32.7340   -8.1580 C.3   1153  NAG1153     0.2141
      7  C7        31.8010  -35.8920   -3.5770 C.2   1153  NAG1153     0.2420
      8  C8        31.4290  -36.5490   -2.2810 C.3   1153  NAG1153     0.0964
      9  N2        31.8020  -36.6790   -4.6690 N.am  1153  NAG1153    -0.2019
     10  O3        34.2190  -37.3260   -6.4870 O.3   1153  NAG1153    -0.2184
     11  O4        35.2900  -35.0770   -7.6970 O.3   1153  NAG1153    -0.2176
     12  O5        32.0490  -33.8300   -6.5440 O.3   1153  NAG1153    -0.3489
     13  O6        33.1530  -33.3000   -9.4090 O.3   1153  NAG1153    -0.2176
     14  O7        32.0740  -34.6870   -3.5590 O.2   1153  NAG1153    -0.2733
@<TRIPOS>BOND
     1    13     6    1
     2     6     5    1
     3    11     4    1
     4     4     5    1
     5     4     3    1
     6     5    12    1
     7    12     1    1
     8     1     2    1
     9    10     3    1
    10     3     2    1
    11     2     9    1
    12     9     7   am
    13     7    14    2
    14     7     8    1
