@<TRIPOS>MOLECULE
2yds_III_T_1.pdb
 38 39 0 0 0
SMALL
GASTEIGER

@<TRIPOS>ATOM
      1  N         28.3300  -40.0260  -16.2620 N.3   392  VAL392     -0.1231
      2  CA        28.8460  -38.6250  -16.1460 C.3   392  VAL392      0.1678
      3  C         30.0760  -38.5350  -15.2110 C.2   392  VAL392      0.2434
      4  O         29.9660  -38.8230  -14.0140 O.2   392  VAL392     -0.2733
      5  CB        27.7170  -37.6290  -15.7140 C.3   392  VAL392      0.0265
      6  CG1       28.2700  -36.2320  -15.4950 C.3   392  VAL392      0.0020
      7  CG2       26.6010  -37.5920  -16.7600 C.3   392  VAL392      0.0020
      8  N         31.2470  -38.1300  -15.7650 N.am  393  PRO393     -0.2718
      9  CA        32.5050  -38.0010  -15.0250 C.3   393  PRO393      0.1535
     10  C         32.6080  -36.7300  -14.1560 C.2   393  PRO393      0.2599
     11  O         33.5930  -35.9880  -14.2570 O.2   393  PRO393     -0.2715
     12  CB        33.5510  -37.9730  -16.1450 C.3   393  PRO393      0.0310
     13  CG        32.8610  -37.3120  -17.2690 C.3   393  PRO393      0.0237
     14  CD        31.4370  -37.8100  -17.1970 C.3   393  PRO393      0.0939
     15  N         31.5850  -36.4910  -13.3330 N.am  394  TYR394     -0.1960
     16  CA        31.5730  -35.4560  -12.2770 C.3   394  TYR394      0.1771
     17  C         30.3020  -35.6120  -11.4130 C.2   394  TYR394      0.2620
     18  O         29.5290  -36.5590  -11.6140 O.2   394  TYR394     -0.2715
     19  CB        31.7580  -34.0240  -12.8280 C.3   394  TYR394      0.0574
     20  CG        30.9620  -33.6770  -14.0780 C.ar  394  TYR394     -0.0198
     21  CD1       31.4870  -33.9050  -15.3550 C.ar  394  TYR394     -0.0009
     22  CD2       29.6980  -33.0920  -13.9850 C.ar  394  TYR394     -0.0009
     23  CE1       30.7690  -33.5850  -16.5030 C.ar  394  TYR394      0.0417
     24  CE2       28.9710  -32.7640  -15.1240 C.ar  394  TYR394      0.0417
     25  CZ        29.5100  -33.0160  -16.3790 C.ar  394  TYR394      0.1957
     26  OH        28.7920  -32.6970  -17.5070 O.3   394  TYR394     -0.2866
     27  N         30.0780  -34.7100  -10.4590 N.am  395  SER395     -0.1936
     28  CA        28.9440  -34.8630   -9.5380 C.3   395  SER395      0.2055
     29  C         27.7120  -33.9970   -9.8660 C.2   395  SER395      0.2643
     30  O         27.4210  -33.0070   -9.1870 O.2   395  SER395     -0.2714
     31  CB        29.4080  -34.6690   -8.0940 C.3   395  SER395      0.2130
     32  OG        30.5040  -35.5190   -7.8300 O.3   395  SER395     -0.2179
     33  N         26.9950  -34.3840  -10.9210 N.am  396  SER396     -0.1949
     34  CA        25.7100  -33.7680  -11.2660 C.3   396  SER396      0.1924
     35  C         24.6350  -34.8330  -11.4640 C.2   396  SER396      0.2314
     36  O         23.6620  -34.8950  -10.7090 O.2   396  SER396     -0.2863
     37  CB        25.8330  -32.9170  -12.5290 C.3   396  SER396      0.2116
     38  OG        24.7570  -32.0020  -12.6220 O.3   396  SER396     -0.2180
@<TRIPOS>BOND
     1    26    25    1
     2    13    14    1
     3    13    12    1
     4    14     8    1
     5     7     5    1
     6    23    25   ar
     7    23    21   ar
     8    25    24   ar
     9     1     2    1
    10     2     5    1
    11     2     3    1
    12    12     9    1
    13     8     3   am
    14     8     9    1
    15     5     6    1
    16    21    20   ar
    17     3     4    2
    18    24    22   ar
    19     9    10    1
    20    11    10    2
    21    10    15   am
    22    20    22   ar
    23    20    19    1
    24    15    16    1
    25    19    16    1
    26    38    37    1
    27    37    34    1
    28    16    17    1
    29    18    17    2
    30    35    34    1
    31    35    36    2
    32    17    27   am
    33    34    33    1
    34    33    29   am
    35    27    28    1
    36    29    28    1
    37    29    30    2
    38    28    31    1
    39    31    32    1
