@<TRIPOS>MOLECULE
2yds_NAG_A_1.pdb
 14 14 0 0 0
SMALL
GASTEIGER

@<TRIPOS>ATOM
      1  C1        31.2090  -35.1800   -6.6200 C.3   1618  NAG1618     0.1665
      2  C2        32.0420  -36.3430   -6.0450 C.3   1618  NAG1618     0.1576
      3  C3        33.5480  -36.1800   -6.2510 C.3   1618  NAG1618     0.2069
      4  C4        33.8470  -35.2440   -7.4050 C.3   1618  NAG1618     0.2134
      5  C5        33.2610  -33.8680   -7.0980 C.3   1618  NAG1618     0.1809
      6  C6        33.4110  -32.8430   -8.2310 C.3   1618  NAG1618     0.2141
      7  C7        31.8150  -35.8060   -3.6250 C.2   1618  NAG1618     0.2420
      8  C8        31.4790  -36.3800   -2.2850 C.3   1618  NAG1618     0.0964
      9  N2        31.7470  -36.6610   -4.6490 N.am  1618  NAG1618    -0.2019
     10  O3        34.0780  -37.4500   -6.5240 O.3   1618  NAG1618    -0.2184
     11  O4        35.2310  -35.1410   -7.5920 O.3   1618  NAG1618    -0.2176
     12  O5        31.9030  -33.9430   -6.6690 O.3   1618  NAG1618    -0.3489
     13  O6        33.0320  -33.3560   -9.4930 O.3   1618  NAG1618    -0.2176
     14  O7        32.1260  -34.6160   -3.7280 O.2   1618  NAG1618    -0.2733
@<TRIPOS>BOND
     1    13     6    1
     2     6     5    1
     3    11     4    1
     4     4     5    1
     5     4     3    1
     6     5    12    1
     7    12     1    1
     8     1     2    1
     9    10     3    1
    10     3     2    1
    11     2     9    1
    12     9     7   am
    13    14     7    2
    14     7     8    1
