@<TRIPOS>MOLECULE
2ydu_79W_A_1.pdb
 16 17 0 0 0
SMALL
GASTEIGER

@<TRIPOS>ATOM
      1  OAH        0.4940   14.4080   24.2240 O.2   1469  79W1469    -0.2831
      2  CAG        1.6150   13.9070   24.4040 C.2   1469  79W1469     0.2341
      3  CAE        1.8220   12.3930   24.2640 C.ar  1469  79W1469     0.0419
      4  CAD        2.8920   11.7040   24.8740 C.ar  1469  79W1469     0.0007
      5  CAF        0.8670   11.7250   23.5180 C.ar  1469  79W1469     0.0033
      6  CAA        0.9470   10.3520   23.3410 C.ar  1469  79W1469    -0.0002
      7  CAB        2.0190    9.6740   23.9100 C.ar  1469  79W1469    -0.0026
      8  CAC        3.0090   10.3280   24.6700 C.ar  1469  79W1469    -0.0002
      9  CAI        4.0850    9.3090   25.2520 C.3   1469  79W1469     0.1591
     10  CAJ        4.4860    9.3300   26.7200 C.3   1469  79W1469     0.0944
     11  CAK        5.4240    8.0380   26.8020 C.2   1469  79W1469     0.1764
     12  OAP        5.5740    7.3800   27.8180 O.2   1469  79W1469    -0.2941
     13  CAL        6.2720    7.7610   25.5410 C.3   1469  79W1469     0.2151
     14  SAM        5.6960    9.0480   24.4310 S.O2  1469  79W1469    -0.0002
     15  OAO        5.2350    8.5020   23.1130 O.2   1469  79W1469    -0.1723
     16  OAN        6.7360   10.1640   24.3530 O.2   1469  79W1469    -0.1723
@<TRIPOS>BOND
     1    15    14    2
     2     6     5   ar
     3     6     7   ar
     4     5     3   ar
     5     7     8   ar
     6     1     2    2
     7     3     2    1
     8     3     4   ar
     9    16    14    2
    10    14     9    1
    11    14    13    1
    12     8     4   ar
    13     8     9    1
    14     9    10    1
    15    13    11    1
    16    10    11    1
    17    11    12    2
