@<TRIPOS>MOLECULE
2ydv_NEC_A_1.pdb
 22 24 0 0 0
SMALL
GASTEIGER

@<TRIPOS>ATOM
      1  C5'       31.7450   11.0290  -14.0960 C.2   400  NEC400      0.2714
      2  O5'       31.2020   10.0370  -13.6370 O.2   400  NEC400     -0.2706
      3  N5'       32.1080   12.0770  -13.3530 N.am  400  NEC400     -0.2033
      4  C51       31.6200   12.2940  -12.0020 C.3   400  NEC400      0.1153
      5  C52       32.4570   13.3050  -11.2390 C.3   400  NEC400      0.0253
      6  C4'       32.0610   11.1150  -15.5640 C.3   400  NEC400      0.2293
      7  O4'       33.1210   10.2000  -15.8720 O.3   400  NEC400     -0.3067
      8  C3'       30.8790   10.7170  -16.4470 C.3   400  NEC400      0.2249
      9  O3'       30.1380   11.8500  -16.9170 O.3   400  NEC400     -0.2170
     10  C2'       31.5250    9.9700  -17.5960 C.3   400  NEC400      0.2574
     11  O2'       31.8890   10.8770  -18.6460 O.3   400  NEC400     -0.2130
     12  C1'       32.7870    9.3710  -16.9910 C.3   400  NEC400      0.3190
     13  N9        32.4700    7.9670  -16.5920 N.pl3 400  NEC400     -0.1438
     14  C8        32.0340    7.5420  -15.3840 C.3   400  NEC400      0.3377
     15  N7        31.8240    6.1980  -15.3840 N.2   400  NEC400     -0.2095
     16  C5        32.1120    5.7400  -16.6100 C.2   400  NEC400      0.2526
     17  C6        32.1150    4.4230  -17.2890 C.2   400  NEC400      0.4393
     18  N6        31.7530    3.2890  -16.6420 N.pl3 400  NEC400      0.2180
     19  N1        32.5010    4.3890  -18.5880 N.2   400  NEC400      0.0021
     20  C2        32.8730    5.4990  -19.2510 C.3   400  NEC400      0.5254
     21  N3        32.9020    6.7230  -18.6910 N.2   400  NEC400     -0.0055
     22  C4        32.5370    6.9070  -17.4030 C.2   400  NEC400      0.3518
@<TRIPOS>BOND
     1    20    21    1
     2    20    19    1
     3    21    22    2
     4    11    10    1
     5    19    17    2
     6    10    12    1
     7    10     8    1
     8    22    16    1
     9    22    13    1
    10    17    18    1
    11    17    16    1
    12    12    13    1
    13    12     7    1
    14     9     8    1
    15    16    15    2
    16    13    14    1
    17     8     6    1
    18     7     6    1
    19     6     1    1
    20    14    15    1
    21     1     2    2
    22     1     3   am
    23     3     4    1
    24     4     5    1
