@<TRIPOS>MOLECULE
2ydw_WSH_A_1.pdb
 32 36 0 0 0
SMALL
GASTEIGER

@<TRIPOS>ATOM
      1  C17       20.2330   15.6440  -10.8810 C.ar  1183  WSH1183     0.0000
      2  C10       27.9360    7.6660  -16.9260 C.ar  1183  WSH1183    -0.0000
      3  C18       20.9410   15.0100  -11.8740 C.ar  1183  WSH1183     0.0000
      4  C16       19.5590   14.8960   -9.9440 C.ar  1183  WSH1183     0.0000
      5  C22       16.6930   10.5280  -11.0130 C.ar  1183  WSH1183     0.0001
      6  C11       27.2440    8.6970  -17.5210 C.ar  1183  WSH1183    -0.0002
      7  C9        27.6390    7.3120  -15.6310 C.ar  1183  WSH1183    -0.0002
      8  C23       16.6640    9.3650  -10.2800 C.ar  1183  WSH1183     0.0015
      9  C19       20.9690   13.6300  -11.9220 C.ar  1183  WSH1183     0.0015
     10  C15       19.5880   13.5220   -9.9950 C.ar  1183  WSH1183     0.0015
     11  C21       17.8870   11.1690  -11.2510 C.ar  1183  WSH1183     0.0029
     12  C12       26.2600    9.3670  -16.8250 C.ar  1183  WSH1183    -0.0007
     13  C8        26.6570    7.9830  -14.9380 C.ar  1183  WSH1183    -0.0007
     14  C24       17.8370    8.8470   -9.7800 C.ar  1183  WSH1183     0.0176
     15  C14       20.2960   12.8770  -10.9840 C.ar  1183  WSH1183     0.0174
     16  C20       19.0710   10.6590  -10.7540 C.ar  1183  WSH1183     0.0335
     17  C7        25.9550    9.0170  -15.5260 C.ar  1183  WSH1183     0.0213
     18  C25       19.0380    9.4890  -10.0100 C.ar  1183  WSH1183     0.0677
     19  C3        21.4410    8.7690  -10.1140 C.ar  1183  WSH1183     0.1906
     20  C2        20.4100    8.2350   -8.2630 C.ar  1183  WSH1183     0.1473
     21  C13       20.3260   11.3850  -11.0370 C.2   1183  WSH1183     0.0797
     22  C5        23.0800    9.3320  -13.3700 C.2   1183  WSH1183     0.4235
     23  C4        21.5590    9.4040  -11.4830 C.3   1183  WSH1183     0.2594
     24  C1        19.3800    8.1000   -7.2180 C.3   1183  WSH1183     0.0742
     25  C6        24.8780    9.7660  -14.7930 C.3   1183  WSH1183     0.2368
     26  N2        22.2810    8.1000   -9.3640 N.ar  1183  WSH1183    -0.1294
     27  N1        21.6300    7.7640   -8.1970 N.ar  1183  WSH1183    -0.1332
     28  N4        21.4460   10.8590  -11.3580 N.2   1183  WSH1183    -0.2432
     29  N5        20.2220    8.8830   -9.4600 N.ar  1183  WSH1183    -0.2777
     30  N3        22.8450    9.1170  -12.0600 N.am  1183  WSH1183    -0.1383
     31  O1        22.2470    9.7550  -14.1650 O.2   1183  WSH1183    -0.2245
     32  O2        24.3580    9.0050  -13.6980 O.3   1183  WSH1183    -0.4285
@<TRIPOS>BOND
     1     6     2   ar
     2     6    12   ar
     3     2     7   ar
     4    12    17   ar
     5     7    13   ar
     6    17    13   ar
     7    17    25    1
     8    25    32    1
     9    31    22    2
    10    32    22    1
    11    22    30   am
    12    30    23    1
    13     9     3   ar
    14     9    15   ar
    15     3     1   ar
    16    23    28    1
    17    23    19    1
    18    28    21    2
    19    11     5   ar
    20    11    16   ar
    21    21    15    1
    22    21    16    1
    23     5     8   ar
    24    15    10   ar
    25     1     4   ar
    26    16    18   ar
    27     8    14   ar
    28    19    29   ar
    29    19    26   ar
    30    18    14   ar
    31    18    29    1
    32    10     4   ar
    33    29    20   ar
    34    26    27   ar
    35    20    27   ar
    36    20    24    1
