@<TRIPOS>MOLECULE
2ydx_STL_A_1.pdb
 17 18 0 0 0
SMALL
GASTEIGER

@<TRIPOS>ATOM
      1  C1        -8.5850  -68.2050   24.9870 C.ar  501  STL501      0.1989
      2  C2        -8.1310  -69.1150   26.0910 C.ar  501  STL501      0.0840
      3  C3        -8.4020  -68.7460   27.4880 C.ar  501  STL501      0.1989
      4  C4        -9.1020  -67.5670   27.8690 C.ar  501  STL501      0.0422
      5  C5        -9.5700  -66.6630   26.7970 C.ar  501  STL501      0.0064
      6  C6        -9.3190  -66.9710   25.3500 C.ar  501  STL501      0.0422
      7  C7       -10.2780  -65.4630   27.1730 C.2   501  STL501      0.0002
      8  C8       -11.4980  -65.4970   27.6920 C.2   501  STL501      0.0000
      9  C9       -12.2480  -64.2780   28.1370 C.ar  501  STL501      0.0002
     10  C10      -12.3770  -63.1150   27.3700 C.ar  501  STL501      0.0033
     11  C11      -13.0770  -61.9520   27.7560 C.ar  501  STL501      0.0420
     12  C12      -13.7100  -61.8900   29.0920 C.ar  501  STL501      0.1957
     13  C13      -13.6220  -63.0500   29.9760 C.ar  501  STL501      0.0420
     14  C14      -12.8660  -64.2810   29.4720 C.ar  501  STL501      0.0033
     15  O1       -14.3350  -60.6860   29.3580 O.3   501  STL501     -0.2866
     16  O2        -7.9660  -69.5450   28.4560 O.3   501  STL501     -0.2865
     17  O3        -8.3370  -68.5240   23.5140 O.3   501  STL501     -0.2865
@<TRIPOS>BOND
     1    17     1    1
     2     1     6   ar
     3     1     2   ar
     4     6     5   ar
     5     2     3   ar
     6     5     7    1
     7     5     4   ar
     8     7     8    2
     9    10    11   ar
    10    10     9   ar
    11     3     4   ar
    12     3    16    1
    13     8     9    1
    14    11    12   ar
    15     9    14   ar
    16    12    15    1
    17    12    13   ar
    18    14    13   ar
