@<TRIPOS>MOLECULE
2ydx_TXP_E_1.pdb
 48 52 0 0 0
SMALL
GASTEIGER

@<TRIPOS>ATOM
      1  O2N       -8.4740  -59.4720  -64.4910 O.3   1339  TXP1339    -0.4371
      2  PN        -7.4610  -59.8020  -65.4460 P.3   1339  TXP1339     0.2189
      3  O1N       -7.1930  -61.2140  -65.4200 O.2   1339  TXP1339    -0.5170
      4 O5'A       -7.9800  -59.3160  -66.8190 O.3   1339  TXP1339    -0.3112
      5 C5'A       -8.8370  -59.8470  -67.7630 C.3   1339  TXP1339     0.1813
      6 C4'A       -9.5890  -58.9160  -68.6080 C.3   1339  TXP1339     0.1796
      7 C3'A       -8.9840  -57.5570  -68.7420 C.3   1339  TXP1339     0.2155
      8 O3'A       -9.1230  -56.9870  -69.9830 O.3   1339  TXP1339    -0.2176
      9 C2'A       -9.7490  -56.8370  -67.7890 C.3   1339  TXP1339     0.2271
     10 O2'A       -9.5590  -55.5140  -67.8050 O.3   1339  TXP1339    -0.2161
     11 C1'A      -11.1040  -57.3330  -67.8570 C.3   1339  TXP1339     0.2096
     12  N1N      -11.7000  -57.1730  -66.6000 N.3   1339  TXP1339    -0.2482
     13  C6N      -13.0620  -57.2430  -66.9550 C.3   1339  TXP1339     0.0743
     14  C5N      -14.0760  -57.1160  -65.8710 C.3   1339  TXP1339     0.0179
     15  C4N      -13.6910  -57.3010  -64.4400 C.3   1339  TXP1339     0.0120
     16  C3N      -12.2470  -57.6000  -64.2180 C.3   1339  TXP1339     0.0959
     17  C7N      -11.6020  -57.9710  -62.8620 C.2   1339  TXP1339     0.2616
     18  O7N      -12.2680  -58.0350  -61.8430 O.2   1339  TXP1339    -0.2716
     19  N7N      -10.1850  -58.2470  -62.7780 N.am  1339  TXP1339    -0.0878
     20  C2N      -11.3640  -56.9900  -65.2370 C.3   1339  TXP1339     0.0834
     21 O4'A      -10.7650  -58.7370  -67.9160 O.3   1339  TXP1339    -0.3354
     22  O3        -6.1440  -58.9950  -65.3340 O.3   1339  TXP1339    -0.2703
     23  PA        -4.7240  -59.4260  -64.8700 P.3   1339  TXP1339     0.2189
     24  O1A       -4.0260  -58.2470  -64.3650 O.2   1339  TXP1339    -0.5170
     25  O2A       -4.9490  -60.4440  -63.8210 O.3   1339  TXP1339    -0.4371
     26  O5'       -3.7300  -59.9620  -65.8800 O.3   1339  TXP1339    -0.3112
     27  C5'       -3.2460  -59.3120  -66.9840 C.3   1339  TXP1339     0.1813
     28  C4'       -2.5160  -60.0800  -67.9770 C.3   1339  TXP1339     0.1820
     29  C3'       -1.3810  -60.7860  -67.4150 C.3   1339  TXP1339     0.2157
     30  O3'       -1.3300  -61.9970  -67.9680 O.3   1339  TXP1339    -0.2175
     31  O4'       -1.9640  -59.1450  -68.8270 O.3   1339  TXP1339    -0.3136
     32  C1'       -0.6720  -59.5140  -69.0510 C.3   1339  TXP1339     0.3158
     33  C2'       -0.1770  -60.1040  -67.7930 C.3   1339  TXP1339     0.2314
     34  O2'        0.9150  -60.9420  -67.9840 O.3   1339  TXP1339    -0.2630
     35  P2         2.1820  -61.1130  -67.1130 P.3   1339  TXP1339     0.5328
     36  OP3        1.6770  -61.1130  -65.7670 O.3   1339  TXP1339    -0.1145
     37  OP2        2.9300  -62.3170  -67.3510 O.2   1339  TXP1339    -0.2224
     38  OP1        3.0980  -60.0190  -67.1720 O.3   1339  TXP1339    -0.1145
     39  N9A        0.1010  -58.4120  -69.6050 N.pl3 1339  TXP1339    -0.1439
     40  C4A        0.7920  -58.5050  -70.7490 C.2   1339  TXP1339     0.3518
     41  N3A        0.9730  -59.4810  -71.6400 N.2   1339  TXP1339    -0.0055
     42  C2A        1.7150  -59.2940  -72.7240 C.3   1339  TXP1339     0.5254
     43  N1A        2.3370  -58.1430  -72.9680 N.2   1339  TXP1339     0.0021
     44  C6A        2.1800  -57.1330  -72.0900 C.2   1339  TXP1339     0.4393
     45  N6A        2.8030  -55.8900  -72.3060 N.pl3 1339  TXP1339     0.2180
     46  C5A        1.4030  -57.2950  -70.9570 C.2   1339  TXP1339     0.2526
     47  N7A        1.0580  -56.5400  -69.9300 N.2   1339  TXP1339    -0.2095
     48  C8A        0.2560  -57.2060  -69.1070 C.3   1339  TXP1339     0.3377
@<TRIPOS>BOND
     1    43    42    1
     2    43    44    2
     3    42    41    1
     4    45    44    1
     5    44    46    1
     6    41    40    2
     7    46    40    1
     8    46    47    2
     9    40    39    1
    10     8     7    1
    11    47    48    1
    12    39    48    1
    13    39    32    1
    14    32    31    1
    15    32    33    1
    16    31    28    1
    17     7     6    1
    18     7     9    1
    19     6    21    1
    20     6     5    1
    21    34    33    1
    22    34    35    1
    23    28    29    1
    24    28    27    1
    25    30    29    1
    26    21    11    1
    27    11     9    1
    28    11    12    1
    29    10     9    1
    30    33    29    1
    31     5     4    1
    32    37    35    2
    33    38    35    1
    34    35    36    1
    35    27    26    1
    36    13    12    1
    37    13    14    1
    38     4     2    1
    39    12    20    1
    40    26    23    1
    41    14    15    1
    42     2     3    2
    43     2    22    1
    44     2     1    1
    45    22    23    1
    46    20    16    1
    47    23    24    2
    48    23    25    1
    49    15    16    1
    50    16    17    1
    51    17    19   am
    52    17    18    2
