@<TRIPOS>MOLECULE
2ydx_NAP_A_1.pdb
 48 52 0 0 0
SMALL
GASTEIGER

@<TRIPOS>ATOM
      1  PA       -18.9710  -69.2700   -1.5260 P.3   1339  NAP1339     0.2189
      2  O1A      -19.2480  -67.9000   -1.1120 O.2   1339  NAP1339    -0.5170
      3  O2A      -18.3070  -70.0600   -0.4750 O.3   1339  NAP1339    -0.4371
      4  O5B      -18.1680  -69.2590   -2.7760 O.3   1339  NAP1339    -0.3112
      5  C5B      -17.8090  -68.1090   -3.4120 C.3   1339  NAP1339     0.1813
      6  C4B      -16.9950  -68.2440   -4.6160 C.3   1339  NAP1339     0.1820
      7  O4B      -17.2920  -67.1400   -5.4800 O.3   1339  NAP1339    -0.3136
      8  C3B      -15.5800  -68.1420   -4.2730 C.3   1339  NAP1339     0.2157
      9  O3B      -14.8090  -69.0890   -4.8720 O.3   1339  NAP1339    -0.2175
     10  C2B      -15.2050  -66.8260   -4.7290 C.3   1339  NAP1339     0.2314
     11  O2B      -13.8240  -66.5670   -4.8000 O.3   1339  NAP1339    -0.2630
     12  C1B      -16.0980  -66.6350   -5.9230 C.3   1339  NAP1339     0.3158
     13  N9A      -16.3150  -65.2180   -6.3280 N.pl3 1339  NAP1339    -0.1439
     14  C8A      -16.9010  -64.1640   -5.7360 C.3   1339  NAP1339     0.3377
     15  N7A      -16.8210  -63.0320   -6.4740 N.2   1339  NAP1339    -0.2095
     16  C5A      -16.1780  -63.3890   -7.5900 C.2   1339  NAP1339     0.2526
     17  C6A      -15.7940  -62.7480   -8.7470 C.2   1339  NAP1339     0.4393
     18  N6A      -16.0610  -61.4120   -8.9920 N.pl3 1339  NAP1339     0.2180
     19  N1A      -15.1750  -63.4240   -9.6820 N.2   1339  NAP1339     0.0021
     20  C2A      -14.8970  -64.7660   -9.5210 C.3   1339  NAP1339     0.5254
     21  N3A      -15.2160  -65.4510   -8.4400 N.2   1339  NAP1339    -0.0055
     22  C4A      -15.8640  -64.7800   -7.4830 C.2   1339  NAP1339     0.3518
     23  O3       -20.2860  -70.0320   -1.8210 O.3   1339  NAP1339    -0.2703
     24  PN       -20.5410  -71.5180   -2.0750 P.3   1339  NAP1339     0.2189
     25  O1N      -21.1760  -72.0530   -0.9420 O.3   1339  NAP1339    -0.4371
     26  O2N      -19.4060  -72.2910   -2.3050 O.2   1339  NAP1339    -0.5170
     27  O5D      -21.4560  -71.5250   -3.3100 O.3   1339  NAP1339    -0.3112
     28  C5D      -21.5100  -72.4220   -4.3680 C.3   1339  NAP1339     0.1813
     29  C4D      -22.6140  -72.3020   -5.3430 C.3   1339  NAP1339     0.1799
     30  O4D      -23.5790  -73.1320   -4.8900 O.3   1339  NAP1339    -0.3327
     31  C3D      -23.2830  -70.9680   -5.4280 C.3   1339  NAP1339     0.2158
     32  O3D      -23.8590  -70.7720   -6.6790 O.3   1339  NAP1339    -0.2175
     33  C2D      -24.3480  -71.0480   -4.4790 C.3   1339  NAP1339     0.2309
     34  O2D      -25.3240  -70.0970   -4.6440 O.3   1339  NAP1339    -0.2158
     35  C1D      -24.7960  -72.4080   -4.5540 C.3   1339  NAP1339     0.2263
     36  N1N      -25.1840  -72.7690   -3.2630 N.pl3 1339  NAP1339    -0.2787
     37  C2N      -24.8740  -72.5250   -1.9470 C.3   1339  NAP1339     0.1244
     38  C3N      -25.5090  -73.2820   -0.8940 C.2   1339  NAP1339     0.0544
     39  C7N      -24.7970  -73.2060    0.4030 C.2   1339  NAP1339     0.2818
     40  O7N      -25.2360  -73.8760    1.2340 O.2   1339  NAP1339    -0.2670
     41  N7N      -23.6570  -72.3760    0.6720 N.am  1339  NAP1339    -0.0839
     42  C4N      -26.7080  -74.1350   -1.1490 C.2   1339  NAP1339     0.0033
     43  C5N      -27.0470  -74.3070   -2.5540 C.2   1339  NAP1339     0.0157
     44  C6N      -26.2470  -73.6380   -3.5700 C.2   1339  NAP1339     0.0633
     45  P2B      -12.9790  -65.7000   -3.8180 P.3   1339  NAP1339     0.5328
     46  O1X      -11.6750  -66.2540   -4.0330 O.3   1339  NAP1339    -0.1145
     47  O2X      -13.1050  -64.3010   -4.0670 O.2   1339  NAP1339    -0.2224
     48  O3X      -13.3770  -65.8330   -2.4110 O.3   1339  NAP1339    -0.1145
@<TRIPOS>BOND
     1    19    20    1
     2    19    17    2
     3    20    21    1
     4    18    17    1
     5    17    16    1
     6    21    22    2
     7    16    22    1
     8    16    15    2
     9    22    13    1
    10    32    31    1
    11    15    14    1
    12    13    12    1
    13    13    14    1
    14    12     7    1
    15    12    10    1
    16     7     6    1
    17    31    29    1
    18    31    33    1
    19    29    30    1
    20    29    28    1
    21    30    35    1
    22     9     8    1
    23    11    10    1
    24    11    45    1
    25    10     8    1
    26    34    33    1
    27     6     8    1
    28     6     5    1
    29    35    33    1
    30    35    36    1
    31    28    27    1
    32    47    45    2
    33    46    45    1
    34    45    48    1
    35    44    36    1
    36    44    43    2
    37     5     4    1
    38    27    24    1
    39    36    37    1
    40     4     1    1
    41    43    42    1
    42    26    24    2
    43    24    23    1
    44    24    25    1
    45    37    38    1
    46    23     1    1
    47     1     2    2
    48     1     3    1
    49    42    38    2
    50    38    39    1
    51    39    41   am
    52    39    40    2
