@<TRIPOS>MOLECULE
2ye2_XQI_A_1.pdb
 13 13 0 0 0
SMALL
GASTEIGER

@<TRIPOS>ATOM
      1  CG        65.1100   33.5710   26.2400 C.ar  1225  XQI1225    -0.0047
      2  CD1       63.9260   33.9490   25.5960 C.ar  1225  XQI1225     0.0385
      3  CD2       65.0360   32.9000   27.4650 C.ar  1225  XQI1225     0.0385
      4  CE1       62.6870   33.6610   26.1700 C.ar  1225  XQI1225     0.1986
      5  CE2       63.7970   32.6130   28.0370 C.ar  1225  XQI1225     0.1986
      6  CZ        62.6250   32.9920   27.3900 C.ar  1225  XQI1225     0.0840
      7  OH1       61.5530   34.0360   25.5290 O.3   1225  XQI1225    -0.2865
      8  OH2       63.7240   31.9620   29.2260 O.3   1225  XQI1225    -0.2865
      9  C         67.2460   34.8780   26.4370 C.2   1225  XQI1225     0.3216
     10  O         68.1320   34.5980   27.2330 O.2   1225  XQI1225    -0.2497
     11  C9        66.4590   33.8850   25.6150 C.3   1225  XQI1225     0.1361
     12  OXT       66.8130   36.1400   26.1520 O.3   1225  XQI1225    -0.4442
     13  CH3       67.3150   37.1480   27.0330 C.3   1225  XQI1225     0.2556
@<TRIPOS>BOND
     1     7     4    1
     2     2     4   ar
     3     2     1   ar
     4    11     1    1
     5    11     9    1
     6    12     9    1
     7    12    13    1
     8     4     6   ar
     9     1     3   ar
    10     9    10    2
    11     6     5   ar
    12     3     5   ar
    13     5     8    1
