@<TRIPOS>MOLECULE
2ye3_VXX_A_1.pdb
 13 13 0 0 0
SMALL
GASTEIGER

@<TRIPOS>ATOM
      1  C1        64.0510   34.1520   24.8080 C.ar  1224  VXX1224     0.0789
      2  CO1       62.8960   33.7420   25.4640 C.ar  1224  VXX1224     0.0099
      3  CO2       65.2980   33.8180   25.3240 C.ar  1224  VXX1224     0.0467
      4  CM1       62.9880   32.9990   26.6350 C.ar  1224  VXX1224     0.0454
      5  CM2       65.3900   33.0750   26.4950 C.ar  1224  VXX1224     0.1776
      6  OM        66.6100   32.7490   26.9990 O.3   1224  VXX1224    -0.4682
      7  CZ        64.2350   32.6660   27.1510 C.ar  1224  VXX1224     0.2293
      8  CC        63.9500   34.9690   23.5190 C.2   1224  VXX1224     0.3414
      9  CV        67.6140   33.5600   26.3840 C.3   1224  VXX1224     0.2526
     10  O1        62.7750   35.0190   22.8360 O.2   1224  VXX1224    -0.2449
     11  O2        65.0350   35.6470   23.0570 O.3   1224  VXX1224    -0.4413
     12  O3        64.3250   31.9390   28.2970 O.3   1224  VXX1224    -0.2833
     13  C9        64.6110   36.6540   22.1350 C.3   1224  VXX1224     0.2560
@<TRIPOS>BOND
     1    13    11    1
     2    10     8    2
     3    11     8    1
     4     8     1    1
     5     1     3   ar
     6     1     2   ar
     7     3     5   ar
     8     2     4   ar
     9     9     6    1
    10     5     6    1
    11     5     7   ar
    12     4     7   ar
    13     7    12    1
