@<TRIPOS>MOLECULE
2ye4_2FY_A_1.pdb
 12 12 0 0 0
SMALL
GASTEIGER

@<TRIPOS>ATOM
      1  C5        29.5140   10.8620   24.4080 C.ar  1224  2FY1224     0.2016
      2  C4        29.7310   11.4990   23.1920 C.ar  1224  2FY1224     0.0841
      3  C3        31.0290   11.7360   22.7530 C.ar  1224  2FY1224     0.1989
      4  C2        32.1090   11.3360   23.5310 C.ar  1224  2FY1224     0.0423
      5  C1        31.8920   10.6990   24.7470 C.ar  1224  2FY1224     0.0093
      6  C6        30.3550    9.7610   26.5240 C.2   1224  2FY1224     0.1761
      7  C7        32.0790    8.3510   27.7080 C.3   1224  2FY1224     0.0086
      8  O1        29.7330   10.3270   27.4220 O.2   1224  2FY1224    -0.2912
      9  O2        31.2410   12.3590   21.5630 O.3   1224  2FY1224    -0.2865
     10  C9        30.9000    8.3460   26.7330 C.3   1224  2FY1224     0.0693
     11  C10       30.5940   10.4620   25.1860 C.ar  1224  2FY1224     0.0738
     12  O8        28.2450   10.6310   24.8370 O.3   1224  2FY1224    -0.2864
@<TRIPOS>BOND
     1     9     3    1
     2     3     2   ar
     3     3     4   ar
     4     2     1   ar
     5     4     5   ar
     6     1    12    1
     7     1    11   ar
     8     5    11   ar
     9    11     6    1
    10     6    10    1
    11     6     8    2
    12    10     7    1
