@<TRIPOS>MOLECULE
2ye5_2A7_A_1.pdb
 10 10 0 0 0
SMALL
GASTEIGER

@<TRIPOS>ATOM
      1  C7        68.3570   34.6600   26.8630 C.3   1224  2A71224     0.2525
      2  O3        67.7290   33.7290   25.9780 O.3   1224  2A71224    -0.4712
      3  C6        66.3350   33.4410   26.1140 C.ar  1224  2A71224     0.1451
      4  C5        65.8740   32.7490   27.2270 C.ar  1224  2A71224     0.0791
      5  C3        64.5180   32.4690   27.3600 C.ar  1224  2A71224     0.2020
      6  O1        64.0440   31.7570   28.5050 O.3   1224  2A71224    -0.2864
      7  C1        63.6250   32.8820   26.3780 C.ar  1224  2A71224     0.0842
      8  C2        64.0860   33.5740   25.2650 C.ar  1224  2A71224     0.2020
      9  C4        65.4410   33.8540   25.1330 C.ar  1224  2A71224     0.0791
     10  O8        63.1670   33.9990   24.2550 O.3   1224  2A71224    -0.2864
@<TRIPOS>BOND
     1    10     8    1
     2     9     8   ar
     3     9     3   ar
     4     8     7   ar
     5     2     3    1
     6     2     1    1
     7     3     4   ar
     8     7     5   ar
     9     4     5   ar
    10     5     6    1
