@<TRIPOS>MOLECULE
2ye6_2AE_A_1.pdb
 10 10 0 0 0
SMALL
GASTEIGER

@<TRIPOS>ATOM
      1  C1        63.9890   32.8990   25.7780 C.ar  1224  2AE1224     0.0734
      2  C6        65.0030   33.8170   25.4210 C.ar  1224  2AE1224     0.0935
      3  C5        66.3330   33.5090   25.7330 C.ar  1224  2AE1224     0.0182
      4  C4        66.6610   32.3190   26.3850 C.ar  1224  2AE1224     0.0014
      5  C3        65.6600   31.4190   26.7340 C.ar  1224  2AE1224     0.0002
      6  C2        64.3280   31.7050   26.4340 C.ar  1224  2AE1224     0.0060
      7  C         62.5640   33.2160   25.4510 C.2   1224  2AE1224     0.2855
      8  O1        62.2360   33.6370   24.3450 O.2   1224  2AE1224    -0.2666
      9  N         61.6230   33.0220   26.4290 N.am  1224  2AE1224    -0.0837
     10  N2        64.7190   35.0120   24.7720 N.pl3 1224  2AE1224    -0.1279
@<TRIPOS>BOND
     1     8     7    2
     2    10     2    1
     3     2     3   ar
     4     2     1   ar
     5     7     1    1
     6     7     9   am
     7     3     4   ar
     8     1     6   ar
     9     4     5   ar
    10     6     5   ar
