@<TRIPOS>MOLECULE
2ye7_2GA_A_1.pdb
 15 16 0 0 0
SMALL
GASTEIGER

@<TRIPOS>ATOM
      1  C14       31.6830   12.4740   22.2590 C.3   1224  2GA1224     0.0505
      2  C10       31.9380   11.8240   23.6200 C.2   1224  2GA1224     0.0741
      3  N4        31.0680   11.7470   24.6310 N.2   1224  2GA1224    -0.1561
      4  N8        31.5820   11.1580   25.5970 N.2   1224  2GA1224    -0.1561
      5  C9        32.8340   10.7960   25.3050 C.2   1224  2GA1224     0.0741
      6  C13       33.7970   10.0500   26.2320 C.3   1224  2GA1224     0.0505
      7  C1        33.1040   11.2130   24.0210 C.3   1224  2GA1224     0.1289
      8  S11       34.5850   11.0140   23.1110 S.3   1224  2GA1224    -0.0759
      9  C2        35.5960   12.1970   23.9120 C.ar  1224  2GA1224     0.1605
     10  S3        35.0820   13.6740   24.5070 S.2   1224  2GA1224    -0.0330
     11  N5        36.9100   12.0690   24.1490 N.ar  1224  2GA1224    -0.1339
     12  N7        37.4450   13.0320   24.7350 N.ar  1224  2GA1224    -0.1339
     13  C6        36.6240   14.0480   25.0380 C.ar  1224  2GA1224     0.1599
     14  S12       37.0890   15.5240   25.8560 S.3   1224  2GA1224    -0.0857
     15  C15       38.8650   15.5160   25.9740 C.3   1224  2GA1224     0.0762
@<TRIPOS>BOND
     1     1     2    1
     2     8     9    1
     3     8     7    1
     4     2     7    1
     5     2     3    2
     6     9    11   ar
     7     9    10   ar
     8     7     5    1
     9    11    12   ar
    10    10    13   ar
    11     3     4    1
    12    12    13   ar
    13    13    14    1
    14     5     4    2
    15     5     6    1
    16    14    15    1
