@<TRIPOS>MOLECULE
2ye8_2D3_A_1.pdb
 15 16 0 0 0
SMALL
GASTEIGER

@<TRIPOS>ATOM
      1  CAA        1.9460   14.2970   24.7980 C.3   1225  2D31225     0.2556
      2  OAI        3.2140   14.5800   24.4210 O.3   1225  2D31225    -0.4439
      3  CAK        3.9900   13.5280   24.3520 C.2   1225  2D31225     0.3279
      4  OAC        3.5200   12.4900   23.9660 O.2   1225  2D31225    -0.2493
      5  CAO        5.4210   13.6720   24.7730 C.3   1225  2D31225     0.1813
      6  CAL        5.9300   14.6720   25.5270 C.2   1225  2D31225     0.0748
      7  CAB        5.2380   15.8510   26.1210 C.3   1225  2D31225     0.0501
      8  NAG        7.1840   14.4510   25.6680 N.2   1225  2D31225    -0.1560
      9  NAH        7.5030   13.4530   25.0880 N.2   1225  2D31225    -0.1489
     10  CAN        6.5010   12.8830   24.5000 C.2   1225  2D31225     0.1331
     11  CAM        6.5520   11.7200   23.7510 C.ar  1225  2D31225     0.1930
     12  CAE        5.6000   10.9610   23.3090 C.ar  1225  2D31225     0.0655
     13  CAD        6.2010   10.0090   22.6750 C.ar  1225  2D31225     0.1439
     14  NAF        7.4700   10.2460   22.7960 N.ar  1225  2D31225    -0.0753
     15  OAJ        7.6100   11.2570   23.4220 O.2   1225  2D31225    -0.3520
@<TRIPOS>BOND
     1    13    14   ar
     2    13    12   ar
     3    14    15   ar
     4    12    11   ar
     5    15    11   ar
     6    11    10    1
     7     4     3    2
     8     3     2    1
     9     3     5    1
    10     2     1    1
    11    10     5    1
    12    10     9    2
    13     5     6    1
    14     9     8    1
    15     6     8    2
    16     6     7    1
