@<TRIPOS>MOLECULE
2ye9_2D4_A_1.pdb
 27 30 0 0 0
SMALL
GASTEIGER

@<TRIPOS>ATOM
      1  C8        35.4570    7.2770   24.0510 C.ar  1224  2D41224     0.0274
      2  C11       35.7800    7.6710   22.7990 C.ar  1224  2D41224     0.0089
      3  C10       35.2060    6.9810   21.7990 C.ar  1224  2D41224     0.0368
      4  S2        34.2340    5.8030   22.5230 S.2   1224  2D41224    -0.0664
      5  C1        34.6060    6.2480   24.0920 C.ar  1224  2D41224     0.1565
      6  S1        33.9820    5.4880   25.5530 S.O2  1224  2D41224     0.0985
      7  O2        34.1600    3.9960   25.4620 O.2   1224  2D41224    -0.1478
      8  O1        34.7160    6.0230   26.7540 O.2   1224  2D41224    -0.1478
      9  N         32.4060    5.9030   25.5800 N.pl3 1224  2D41224    -0.0961
     10  C9        32.0440    7.1150   25.9910 C.ar  1224  2D41224     0.0912
     11  C6        32.0790    8.1870   25.1070 C.ar  1224  2D41224     0.0213
     12  C16       31.6320    7.3100   27.3040 C.ar  1224  2D41224     0.0213
     13  C15       31.2540    8.5770   27.7330 C.ar  1224  2D41224     0.0434
     14  C5        31.2880    9.6490   26.8480 C.ar  1224  2D41224     0.1958
     15  O3        30.9180   10.8890   27.2680 O.3   1224  2D41224    -0.2866
     16  C2        31.7010    9.4540   25.5360 C.ar  1224  2D41224     0.0434
     17  C3        31.7350   10.5260   24.6510 C.ar  1224  2D41224     0.0421
     18  C4        32.9550   11.0060   24.1880 C.ar  1224  2D41224     0.0032
     19  C17       34.1400   10.4140   24.6090 C.ar  1224  2D41224     0.0001
     20  C19       35.3590   10.8930   24.1450 C.ar  1224  2D41224     0.0000
     21  C20       35.3940   11.9650   23.2610 C.ar  1224  2D41224     0.0000
     22  C18       34.2090   12.5580   22.8410 C.ar  1224  2D41224     0.0000
     23  C12       32.9890   12.0780   23.3040 C.ar  1224  2D41224     0.0002
     24  C14       31.8040   12.6700   22.8830 C.ar  1224  2D41224     0.0033
     25  C13       30.5850   12.1900   23.3460 C.ar  1224  2D41224     0.0420
     26  C7        30.5500   11.1180   24.2310 C.ar  1224  2D41224     0.1957
     27  O4        29.3570   10.6490   24.6840 O.3   1224  2D41224    -0.2866
@<TRIPOS>BOND
     1     3     4   ar
     2     3     2   ar
     3     4     5   ar
     4     2     1   ar
     5    22    21   ar
     6    22    23   ar
     7    24    23   ar
     8    24    25   ar
     9    21    20   ar
    10    23    18   ar
    11    25    26   ar
    12     1     5   ar
    13     5     6    1
    14    20    19   ar
    15    18    19   ar
    16    18    17   ar
    17    26    17   ar
    18    26    27    1
    19    17    16    1
    20    11    16   ar
    21    11    10   ar
    22     7     6    2
    23    16    14   ar
    24     6     9    1
    25     6     8    2
    26     9    10    1
    27    10    12   ar
    28    14    15    1
    29    14    13   ar
    30    12    13   ar
