@<TRIPOS>MOLECULE
2yea_2A9_A_1.pdb
 11 11 0 0 0
SMALL
GASTEIGER

@<TRIPOS>ATOM
      1  O7        64.6450   32.1020   28.5700 O.3   1224  2A91224    -0.2155
      2  C11       65.3240   32.2880   27.3360 C.3   1224  2A91224     0.2048
      3  C6        64.7360   33.0550   26.3230 C.2   1224  2A91224    -0.0039
      4  C1        63.3540   33.1880   26.2640 C.2   1224  2A91224     0.0395
      5  C2        62.7710   33.9490   25.2580 C.2   1224  2A91224     0.2284
      6  C3        63.5700   34.5770   24.3100 C.2   1224  2A91224     0.1734
      7  O8        61.5280   34.0680   25.2050 O.2   1224  2A91224    -0.2834
      8  C5        65.5360   33.6830   25.3750 C.3   1224  2A91224     0.0539
      9  C4        64.9530   34.4450   24.3690 C.2   1224  2A91224     0.0185
     10  O6        63.0130   35.3060   23.3480 O.2   1224  2A91224    -0.4685
     11  C10       63.7680   36.3150   22.6930 C.3   1224  2A91224     0.2526
@<TRIPOS>BOND
     1    11    10    1
     2    10     6    1
     3     6     9    2
     4     6     5    1
     5     9     8    1
     6     7     5    2
     7     5     4    1
     8     8     3    1
     9     4     3    2
    10     3     2    1
    11     2     1    1
