@<TRIPOS>MOLECULE
2yeb_2K4_A_1.pdb
 10 11 0 0 0
SMALL
GASTEIGER

@<TRIPOS>ATOM
      1  C5        30.8780   11.8400   22.8680 C.3   1224  2K41224     0.1167
      2  C2        30.7840   11.3820   24.1770 C.2   1224  2K41224     0.0898
      3  N6        29.7570   11.0390   24.9510 N.2   1224  2K41224    -0.1518
      4  N7        30.1740   10.6880   26.0600 N.2   1224  2K41224    -0.1467
      5  C3        31.5050   10.7680   26.1140 C.2   1224  2K41224     0.1233
      6  C1        31.9240   11.2060   24.9350 C.2   1224  2K41224     0.0368
      7  C4        33.1770   11.4820   24.4020 C.2   1224  2K41224     0.0058
      8  C8        33.2770   11.9410   23.0930 C.2   1224  2K41224     0.0379
      9  C9        32.1290   12.1190   22.3270 C.2   1224  2K41224     0.1792
     10  O10       32.2300   12.5680   21.0480 O.2   1224  2K41224    -0.2909
@<TRIPOS>BOND
     1    10     9    1
     2     9     1    1
     3     9     8    2
     4     1     2    1
     5     8     7    1
     6     2     6    1
     7     2     3    2
     8     7     6    2
     9     6     5    1
    10     3     4    1
    11     4     5    2
