@<TRIPOS>MOLECULE
2yec_XQ0_A_1.pdb
 11 12 0 0 0
SMALL
GASTEIGER

@<TRIPOS>ATOM
      1  O3        28.5210   10.7910   25.2690 O.2   1226  XQ01226    -0.2909
      2  C3        29.7820   10.9400   24.7770 C.2   1226  XQ01226     0.1792
      3  C2        30.8700   10.4490   25.5000 C.2   1226  XQ01226     0.0379
      4  C4        29.9760   11.5810   23.5550 C.3   1226  XQ01226     0.1166
      5  C5        31.2730   11.7170   23.0810 C.2   1226  XQ01226     0.0894
      6  C6        32.3410   11.2320   23.7960 C.2   1226  XQ01226     0.0311
      7  C1        32.1670   10.5920   25.0140 C.2   1226  XQ01226     0.0054
      8  N2        31.7490   12.2820   21.9510 N.2   1226  XQ01226    -0.1522
      9  N1        33.0580   12.1650   21.9440 N.2   1226  XQ01226    -0.1526
     10  C7        33.4780   11.5230   23.0620 C.2   1226  XQ01226     0.0821
     11  C8        34.8990   11.1920   23.4320 C.3   1226  XQ01226     0.0540
@<TRIPOS>BOND
     1     9     8    1
     2     9    10    2
     3     8     5    2
     4    10    11    1
     5    10     6    1
     6     5     4    1
     7     5     6    1
     8     4     2    1
     9     6     7    2
    10     2     1    1
    11     2     3    2
    12     7     3    1
