@<TRIPOS>MOLECULE
2yed_ADE_A_1.pdb
 10 11 0 0 0
SMALL
GASTEIGER

@<TRIPOS>ATOM
      1  N9        33.7820   10.6770   24.8840 N.2   1225  ADE1225    -0.1914
      2  C8        33.5900   11.3220   23.7270 C.3   1225  ADE1225     0.2618
      3  N7        32.2800   11.4190   23.4740 N.2   1225  ADE1225    -0.2267
      4  C5        31.6440   10.8300   24.4790 C.2   1225  ADE1225     0.2303
      5  C6        30.3020   10.6350   24.7400 C.2   1225  ADE1225     0.4393
      6  N6        29.2700   11.1220   23.8130 N.pl3 1225  ADE1225     0.2185
      7  N1        29.9720    9.9920   25.8600 N.2   1225  ADE1225    -0.0265
      8  C2        30.9130    9.5500   26.7030 C.3   1225  ADE1225     0.4008
      9  N3        32.2150    9.7300   26.4660 N.2   1225  ADE1225    -0.1640
     10  C4        32.5830   10.3660   25.3600 C.1   1225  ADE1225     0.0579
@<TRIPOS>BOND
     1     3     2    1
     2     3     4    2
     3     2     1    1
     4     6     5    1
     5     4     5    1
     6     4    10    1
     7     5     7    2
     8     1    10    2
     9    10     9    2
    10     7     8    1
    11     9     8    1
