@<TRIPOS>MOLECULE
2yee_2EC_A_1.pdb
 12 13 0 0 0
SMALL
GASTEIGER

@<TRIPOS>ATOM
      1  N6        -1.6280   12.0190   24.3870 N.pl3 1227  2EC1227     0.2180
      2  C6        -0.7500   11.1350   25.1660 C.2   1227  2EC1227     0.4393
      3  C5         0.4920   10.7720   24.6760 C.2   1227  2EC1227     0.2525
      4  N7         1.1540   11.0600   23.5520 N.2   1227  2EC1227    -0.2096
      5  C4         1.2950    9.9400   25.4300 C.2   1227  2EC1227     0.3501
      6  N9         2.4240    9.7440   24.7430 N.pl3 1227  2EC1227    -0.1676
      7  C8         2.3360   10.4300   23.5950 C.3   1227  2EC1227     0.3359
      8  C9M        3.5640    8.9210   25.1710 C.3   1227  2EC1227     0.2043
      9  N3         0.8610    9.5000   26.6160 N.2   1227  2EC1227    -0.0055
     10  C50        3.8050    7.8250   24.1580 C.3   1227  2EC1227     0.0551
     11  C2        -0.3450    9.8640   27.0710 C.3   1227  2EC1227     0.5254
     12  N1        -1.1430   10.6710   26.3580 N.2   1227  2EC1227     0.0021
@<TRIPOS>BOND
     1     4     7    1
     2     4     3    2
     3     7     6    1
     4    10     8    1
     5     1     2    1
     6     3     2    1
     7     3     5    1
     8     6     8    1
     9     6     5    1
    10     2    12    2
    11     5     9    2
    12    12    11    1
    13     9    11    1
