@<TRIPOS>MOLECULE
2yef_ANP_A_1.pdb
 31 33 0 0 0
SMALL
GASTEIGER

@<TRIPOS>ATOM
      1  PG        -1.2390   -0.2090    5.7750 P.3   1228  ANP1228     0.4884
      2  O1G       -0.8150   -0.1960    7.2440 O.3   1228  ANP1228    -0.1240
      3  O2G       -1.9640    1.1300    5.5850 O.3   1228  ANP1228    -0.1240
      4  O3G       -2.2290   -1.3630    5.4790 O.2   1228  ANP1228    -0.2331
      5  PB         1.5750   -0.4640    5.2260 P.3   1228  ANP1228     0.4669
      6  O1B        1.6280   -1.5410    6.3260 O.3   1228  ANP1228    -0.1253
      7  O2B        2.5150   -0.6610    4.0690 O.2   1228  ANP1228    -0.2351
      8  N3B        0.0400   -0.3740    4.7150 N.3   1228  ANP1228    -0.0163
      9  PA         2.4260    1.2570    7.4320 P.3   1228  ANP1228     0.2220
     10  O1A        2.3870    2.7320    7.5830 O.2   1228  ANP1228    -0.5170
     11  O2A        1.5940    0.3610    8.3920 O.3   1228  ANP1228    -0.4370
     12  O3A        1.8830    0.9550    5.9460 O.3   1228  ANP1228    -0.2360
     13  O5'        3.9420    0.7770    7.3590 O.3   1228  ANP1228    -0.3111
     14  C5'        4.9080    1.4470    6.5310 C.3   1228  ANP1228     0.1813
     15  C4'        6.0120    0.4450    6.1310 C.3   1228  ANP1228     0.1821
     16  O4'        6.8570    0.2980    7.3080 O.3   1228  ANP1228    -0.3135
     17  C3'        5.5810   -0.9430    5.7980 C.3   1228  ANP1228     0.2184
     18  O3'        5.1120   -1.1240    4.4130 O.3   1228  ANP1228    -0.2174
     19  C2'        6.8550   -1.7600    6.0450 C.3   1228  ANP1228     0.2570
     20  O2'        7.7830   -1.6680    4.9380 O.3   1228  ANP1228    -0.2130
     21  C1'        7.4220   -1.0120    7.2020 C.3   1228  ANP1228     0.3186
     22  N9         7.1710   -1.6290    8.5130 N.pl3 1228  ANP1228    -0.1439
     23  C8         6.3290   -1.1550    9.5200 C.3   1228  ANP1228     0.3377
     24  N7         6.3000   -1.9890   10.5570 N.2   1228  ANP1228    -0.2095
     25  C5         7.1880   -3.0130   10.2350 C.2   1228  ANP1228     0.2526
     26  C6         7.6240   -4.1970   10.9310 C.2   1228  ANP1228     0.4393
     27  N6         7.0980   -4.5190   12.1540 N.pl3 1228  ANP1228     0.2180
     28  N1         8.5090   -5.0200   10.3010 N.2   1228  ANP1228     0.0021
     29  C2         8.9380   -4.6540    9.0890 C.3   1228  ANP1228     0.5254
     30  N3         8.5980   -3.5440    8.3310 N.2   1228  ANP1228    -0.0055
     31  C4         7.7340   -2.8030    8.9890 C.2   1228  ANP1228     0.3518
@<TRIPOS>BOND
     1     7     5    2
     2    18    17    1
     3     8     5    1
     4     8     1    1
     5    20    19    1
     6     5    12    1
     7     5     6    1
     8     4     1    2
     9     3     1    1
    10     1     2    1
    11    17    19    1
    12    17    15    1
    13    12     9    1
    14    19    21    1
    15    15    14    1
    16    15    16    1
    17    14    13    1
    18    21    16    1
    19    21    22    1
    20    13     9    1
    21     9    10    2
    22     9    11    1
    23    30    31    2
    24    30    29    1
    25    22    31    1
    26    22    23    1
    27    31    25    1
    28    29    28    1
    29    23    24    1
    30    25    24    2
    31    25    26    1
    32    28    26    2
    33    26    27    1
