@<TRIPOS>MOLECULE
2yeg_XQG_B_1.pdb
 11 12 0 0 0
SMALL
GASTEIGER

@<TRIPOS>ATOM
      1  C6        29.6330   55.0140   99.5420 C.2   1224  XQG1224     0.1304
      2  C5        28.4780   55.3740   98.8640 C.2   1224  XQG1224     0.1625
      3  C4        27.2580   55.1890   99.4860 C.1   1224  XQG1224     0.0501
      4  C2        28.3410   54.3380  101.3420 C.3   1224  XQG1224     0.2615
      5  C8        26.9230   56.0340   97.5320 C.3   1224  XQG1224     0.2617
      6  C11       32.4090   54.5810   99.9390 C.3   1224  XQG1224     0.0757
      7  N1        29.5260   54.5010  100.7760 N.2   1224  XQG1224    -0.2351
      8  N3        27.2200   54.6710  100.7200 N.2   1224  XQG1224    -0.1916
      9  N9        26.3200   55.6050   98.6410 N.2   1224  XQG1224    -0.1916
     10  N7        28.2420   55.8940   97.6650 N.2   1224  XQG1224    -0.2314
     11  S1        31.2030   55.2270   98.8000 S.3   1224  XQG1224    -0.0922
@<TRIPOS>BOND
     1     5    10    1
     2     5     9    1
     3    10     2    2
     4     9     3    2
     5    11     1    1
     6    11     6    1
     7     2     3    1
     8     2     1    1
     9     3     8    2
    10     1     7    2
    11     8     4    1
    12     7     4    1
