@<TRIPOS>MOLECULE
2yeh_2KU_A_1.pdb
 15 16 0 0 0
SMALL
GASTEIGER

@<TRIPOS>ATOM
      1  C15       34.0040    7.5130   23.4170 C.3   1225  2KU1225     0.1741
      2  C13       34.8560    9.6920   23.4110 C.3   1225  2KU1225     0.1467
      3  C12       34.3590   11.1280   23.5920 C.3   1225  2KU1225     0.0874
      4  C11       32.8550   11.1550   23.8740 C.3   1225  2KU1225     0.2539
      5  N1        31.2050    9.6980   26.7210 N.2   1225  2KU1225    -0.0304
      6  C2        30.0200    9.7030   27.3190 C.3   1225  2KU1225     0.4006
      7  N3        28.9290   10.1250   26.6920 N.2   1225  2KU1225    -0.1640
      8  C4        28.9980   10.5590   25.4270 C.1   1225  2KU1225     0.0578
      9  C5        30.2110   10.5670   24.7790 C.2   1225  2KU1225     0.2255
     10  C6        31.3330   10.1220   25.4550 C.2   1225  2KU1225     0.3854
     11  N10       32.5210   10.1160   24.8580 N.pl3 1225  2KU1225    -0.0296
     12  N7        30.0110   11.0370   23.5540 N.2   1225  2KU1225    -0.2268
     13  C8        28.7110   11.3190   23.4300 C.3   1225  2KU1225     0.2618
     14  N9        28.0910   11.0260   24.5770 N.2   1225  2KU1225    -0.1914
     15  O12       33.7680    8.8570   22.9890 O.3   1225  2KU1225    -0.3510
@<TRIPOS>BOND
     1    15     2    1
     2    15     1    1
     3     2     3    1
     4    13    12    1
     5    13    14    1
     6    12     9    2
     7     3     4    1
     8     4    11    1
     9    14     8    2
    10     9     8    1
    11     9    10    1
    12    11    10    1
    13     8     7    2
    14    10     5    2
    15     7     6    1
    16     5     6    1
