@<TRIPOS>MOLECULE
2yei_XQK_A_1.pdb
 15 16 0 0 0
SMALL
GASTEIGER

@<TRIPOS>ATOM
      1  C1         6.2000    9.9760   21.9340 C.ar  1224  XQK1224     0.1439
      2  C4         6.8240   11.3290   23.4160 C.ar  1224  XQK1224     0.1930
      3  C5         5.8310   11.0750   22.5720 C.ar  1224  XQK1224     0.0655
      4  C6         6.9310   12.3780   24.3210 C.2   1224  XQK1224     0.1331
      5  C9         6.4170   14.0900   25.5660 C.2   1224  XQK1224     0.0748
      6  C10        5.8830   13.2090   24.6540 C.3   1224  XQK1224     0.1813
      7  C11        4.4470   13.1610   24.1290 C.2   1224  XQK1224     0.3279
      8  C13        2.3660   14.0470   24.4050 C.3   1224  XQK1224     0.2556
      9  C15        5.6730   15.2320   26.2600 C.3   1224  XQK1224     0.0501
     10  O14        3.9410   12.0690   23.7910 O.2   1224  XQK1224    -0.2493
     11  O12        3.7210   14.3070   24.0300 O.3   1224  XQK1224    -0.4439
     12  N8         7.7010   13.7690   25.7340 N.2   1224  XQK1224    -0.1560
     13  N7         7.9920   12.7930   25.0240 N.2   1224  XQK1224    -0.1489
     14  O3         7.7030   10.4720   23.3000 O.2   1224  XQK1224    -0.3520
     15  NAF        7.3860    9.6470   22.4380 N.ar  1224  XQK1224    -0.0753
@<TRIPOS>BOND
     1     1    15   ar
     2     1     3   ar
     3    15    14   ar
     4     3     2   ar
     5    14     2   ar
     6     2     4    1
     7    10     7    2
     8    11     7    1
     9    11     8    1
    10     7     6    1
    11     4     6    1
    12     4    13    2
    13     6     5    1
    14    13    12    1
    15     5    12    2
    16     5     9    1
