@<TRIPOS>MOLECULE
2yei_XQI_A_1.pdb
 13 13 0 0 0
SMALL
GASTEIGER

@<TRIPOS>ATOM
      1  CG         0.8410   10.4590   24.7060 C.ar  1225  XQI1225    -0.0047
      2  CD1       -0.4570   10.3960   25.1970 C.ar  1225  XQI1225     0.0385
      3  CD2        1.1020   11.1240   23.5140 C.ar  1225  XQI1225     0.0385
      4  CE1       -1.4950   10.9990   24.4960 C.ar  1225  XQI1225     0.1986
      5  CE2        0.0640   11.7270   22.8130 C.ar  1225  XQI1225     0.1986
      6  CZ        -1.2340   11.6640   23.3040 C.ar  1225  XQI1225     0.0840
      7  OH1       -2.7680   10.9370   24.9770 O.3   1225  XQI1225    -0.2865
      8  OH2        0.3200   12.3800   21.6450 O.3   1225  XQI1225    -0.2865
      9  C          2.8350    9.0180   24.5110 C.2   1225  XQI1225     0.3216
     10  O          3.2500    9.5300   23.4840 O.2   1225  XQI1225    -0.2497
     11  OXT        3.1840    7.6380   24.8060 O.3   1225  XQI1225    -0.4442
     12  CH3        3.1230    6.6520   23.7780 C.3   1225  XQI1225     0.2556
     13  C9         1.9700    9.8030   25.4680 C.3   1225  XQI1225     0.1361
@<TRIPOS>BOND
     1     8     5    1
     2     5     6   ar
     3     5     3   ar
     4     6     4   ar
     5    10     9    2
     6     3     1   ar
     7    12    11    1
     8     4     7    1
     9     4     2   ar
    10     9    11    1
    11     9    13    1
    12     1     2   ar
    13     1    13    1
