@<TRIPOS>MOLECULE
2yej_XQK_A_1.pdb
 15 16 0 0 0
SMALL
GASTEIGER

@<TRIPOS>ATOM
      1  C1         5.8090    9.8420   22.2370 C.ar  1225  XQK1225     0.1439
      2  C4         6.6740   11.3480   23.4200 C.ar  1225  XQK1225     0.1930
      3  C5         5.5040   10.8540   23.0330 C.ar  1225  XQK1225     0.0655
      4  C6         6.9110   12.4250   24.2660 C.2   1225  XQK1225     0.1331
      5  C9         6.5870   14.1960   25.4920 C.2   1225  XQK1225     0.0748
      6  C10        5.9300   13.3000   24.6810 C.3   1225  XQK1225     0.1813
      7  C11        4.4430   13.2790   24.3210 C.2   1225  XQK1225     0.3279
      8  C13        2.4850   14.3900   24.6690 C.3   1225  XQK1225     0.2556
      9  C15        5.9570   15.3850   26.2200 C.3   1225  XQK1225     0.0501
     10  O14        3.8330   12.1900   24.2490 O.2   1225  XQK1225    -0.2493
     11  O12        3.7860   14.4440   24.0780 O.3   1225  XQK1225    -0.4439
     12  N8         7.8720   13.8410   25.5290 N.2   1225  XQK1225    -0.1560
     13  N7         8.0540   12.8310   24.8300 N.2   1225  XQK1225    -0.1489
     14  NAF        7.1380    9.7990   22.2010 N.ar  1225  XQK1225    -0.0753
     15  O3         7.5920   10.7020   22.9100 O.2   1225  XQK1225    -0.3520
@<TRIPOS>BOND
     1    14     1   ar
     2    14    15   ar
     3     1     3   ar
     4    15     2   ar
     5     3     2   ar
     6     2     4    1
     7    11     7    1
     8    11     8    1
     9    10     7    2
    10     4     6    1
    11     4    13    2
    12     7     6    1
    13     6     5    1
    14    13    12    1
    15     5    12    2
    16     5     9    1
