@<TRIPOS>MOLECULE
2yej_ZZ3_A_1.pdb
 10 10 0 0 0
SMALL
GASTEIGER

@<TRIPOS>ATOM
      1  N5        -2.2140   11.7240   23.6230 N.pl3 1226  ZZ31226    -0.0220
      2  C2        -1.1180   11.0200   24.3050 C.1   1226  ZZ31226     0.2613
      3  N4        -1.2300   10.7110   25.4170 N.2   1226  ZZ31226    -0.2517
      4  N1        -0.1410   10.7750   23.7310 N.2   1226  ZZ31226    -0.2621
      5  C3         0.7240   10.2200   24.2680 C.1   1226  ZZ31226     0.1401
      6  C8         2.0220    9.8940   23.5060 C.3   1226  ZZ31226     0.1448
      7  N3         0.6120    9.9100   25.3810 N.2   1226  ZZ31226    -0.2717
      8  C4        -0.3650   10.1560   25.9550 C.1   1226  ZZ31226     0.1899
      9  S1        -0.5390    9.6750   27.6810 S.3   1226  ZZ31226    -0.0158
     10  C6         0.6750    8.4800   28.2610 C.3   1226  ZZ31226     0.0872
@<TRIPOS>BOND
     1     6     5    1
     2     1     2    1
     3     4     5    2
     4     4     2    2
     5     5     7    2
     6     2     3    2
     7     7     8    2
     8     3     8    2
     9     8     9    1
    10     9    10    1
