@<TRIPOS>MOLECULE
2yek_EAM_A_1.pdb
 30 33 0 0 0
SMALL
GASTEIGER

@<TRIPOS>ATOM
      1 CL         20.4090   17.3370  -11.3060 Cl    1188  EAM1188    -0.0822
      2  C10       20.3800   15.6030  -11.2500 C.ar  1188  EAM1188     0.0577
      3  C9        19.7700   15.0070  -10.1730 C.ar  1188  EAM1188     0.0114
      4  C8        19.7580   13.6420  -10.1240 C.ar  1188  EAM1188     0.0023
      5  C11       20.9640   14.9040  -12.2790 C.ar  1188  EAM1188     0.0114
      6  C12       20.9270   13.5370  -12.2040 C.ar  1188  EAM1188     0.0023
      7  C7        20.3390   12.9010  -11.1350 C.ar  1188  EAM1188     0.0173
      8  C6        20.3410   11.4140  -11.1200 C.2   1188  EAM1188     0.0779
      9  N2        21.4520   10.8490  -11.4260 N.2   1188  EAM1188    -0.2641
     10  C13       19.0710   10.7350  -10.7770 C.ar  1188  EAM1188     0.0364
     11  C19       19.0270    9.6320   -9.9320 C.ar  1188  EAM1188     0.0678
     12  C18       17.8110    9.0410   -9.6470 C.ar  1188  EAM1188     0.0208
     13  C17       16.6360    9.5360  -10.1750 C.ar  1188  EAM1188     0.0384
     14  C15       16.7020   10.6380  -11.0060 C.ar  1188  EAM1188     0.1389
     15  O2        15.5670   11.2030  -11.5800 O.3   1188  EAM1188    -0.4714
     16  C16       14.2920   10.7650  -11.1250 C.3   1188  EAM1188     0.2525
     17  C14       17.9020   11.2420  -11.3070 C.ar  1188  EAM1188     0.0398
     18  N3        20.2330    9.0820   -9.3680 N.ar  1188  EAM1188    -0.2791
     19  C22       21.3880    8.8710  -10.0890 C.ar  1188  EAM1188     0.1697
     20  N5        22.2500    8.2170   -9.3500 N.ar  1188  EAM1188    -0.1313
     21  N4        21.6820    7.9770   -8.1410 N.ar  1188  EAM1188    -0.1333
     22  C20       20.4730    8.4930   -8.1530 C.ar  1188  EAM1188     0.1473
     23  C21       19.5270    8.4520   -7.0320 C.3   1188  EAM1188     0.0742
     24  C5        21.5070    9.3850  -11.5080 C.3   1188  EAM1188     0.1707
     25  C4        22.8210    9.0050  -12.2170 C.3   1188  EAM1188     0.1188
     26  C3        22.7420    9.5950  -13.5980 C.2   1188  EAM1188     0.2438
     27  O1        21.6660    9.7380  -14.1600 O.2   1188  EAM1188    -0.2733
     28  N1        23.8990    9.9380  -14.1500 N.am  1188  EAM1188    -0.2054
     29  C2        24.0190   10.4590  -15.4910 C.3   1188  EAM1188     0.1152
     30  C1        25.3570   10.0170  -16.0250 C.3   1188  EAM1188     0.0252
@<TRIPOS>BOND
     1    30    29    1
     2    29    28    1
     3    27    26    2
     4    28    26   am
     5    26    25    1
     6     5     6   ar
     7     5     2   ar
     8    25    24    1
     9     6     7   ar
    10    15    16    1
    11    15    14    1
    12    24     9    1
    13    24    19    1
    14     9     8    2
    15    17    14   ar
    16    17    10   ar
    17     1     2    1
    18     2     3   ar
    19     7     8    1
    20     7     4   ar
    21     8    10    1
    22    14    13   ar
    23    10    11   ar
    24    13    12   ar
    25     3     4   ar
    26    19    18   ar
    27    19    20   ar
    28    11    12   ar
    29    11    18    1
    30    18    22   ar
    31    20    21   ar
    32    22    21   ar
    33    22    23    1
