@<TRIPOS>MOLECULE
2yel_WSH_A_1.pdb
 32 36 0 0 0
SMALL
GASTEIGER

@<TRIPOS>ATOM
      1  C17       -8.2370   -4.7200    5.7940 C.ar  1170  WSH1170     0.0000
      2  C10       -9.0160  -11.4920    3.7670 C.ar  1170  WSH1170    -0.0000
      3  C18       -7.9280   -4.4380    4.4830 C.ar  1170  WSH1170     0.0000
      4  C16       -9.3360   -5.4870    6.0820 C.ar  1170  WSH1170     0.0000
      5  C22       -8.2570   -7.1230   -0.0320 C.ar  1170  WSH1170     0.0001
      6  C11      -10.0570  -12.3890    3.7020 C.ar  1170  WSH1170    -0.0002
      7  C9        -9.2780  -10.1570    3.9810 C.ar  1170  WSH1170    -0.0002
      8  C23       -8.9100   -6.7120   -1.1740 C.ar  1170  WSH1170     0.0015
      9  C19       -8.7160   -4.9200    3.4640 C.ar  1170  WSH1170     0.0015
     10  C15      -10.1280   -5.9680    5.0620 C.ar  1170  WSH1170     0.0015
     11  C21       -8.8380   -6.9600    1.2010 C.ar  1170  WSH1170     0.0029
     12  C12      -11.3540  -11.9450    3.8480 C.ar  1170  WSH1170    -0.0007
     13  C8       -10.5700   -9.7180    4.1320 C.ar  1170  WSH1170    -0.0007
     14  C24      -10.1550   -6.1290   -1.0840 C.ar  1170  WSH1170     0.0176
     15  C14       -9.8250   -5.6880    3.7450 C.ar  1170  WSH1170     0.0174
     16  C20      -10.0870   -6.3740    1.2880 C.ar  1170  WSH1170     0.0335
     17  C7       -11.6140  -10.6120    4.0670 C.ar  1170  WSH1170     0.0213
     18  C25      -10.7510   -5.9560    0.1480 C.ar  1170  WSH1170     0.0677
     19  C3       -13.1070   -5.7760    0.9330 C.ar  1170  WSH1170     0.1906
     20  C2       -12.5660   -4.3120   -0.5840 C.ar  1170  WSH1170     0.1473
     21  C13      -10.6920   -6.1960    2.6380 C.2   1170  WSH1170     0.0797
     22  C5       -14.2580   -8.2630    3.3540 C.2   1170  WSH1170     0.4235
     23  C4       -12.8480   -6.8860    1.9300 C.3   1170  WSH1170     0.2594
     24  C1       -11.7760   -3.5100   -1.5520 C.3   1170  WSH1170     0.0742
     25  C6       -13.0080  -10.0990    4.2300 C.3   1170  WSH1170     0.2368
     26  N2       -14.1890   -5.1000    0.6260 N.ar  1170  WSH1170    -0.1294
     27  N1       -13.8480   -4.1790   -0.3390 N.ar  1170  WSH1170    -0.1332
     28  N4       -11.9230   -6.3800    2.9510 N.2   1170  WSH1170    -0.2432
     29  N5       -12.0460   -5.3230    0.1950 N.ar  1170  WSH1170    -0.2777
     30  N3       -14.0950   -7.1680    2.5910 N.am  1170  WSH1170    -0.1383
     31  O1       -15.2800   -8.5600    3.9600 O.2   1170  WSH1170    -0.2245
     32  O2       -13.1200   -8.9990    3.3430 O.3   1170  WSH1170    -0.4285
@<TRIPOS>BOND
     1    24    20    1
     2     8    14   ar
     3     8     5   ar
     4    14    18   ar
     5    20    27   ar
     6    20    29   ar
     7    27    26   ar
     8     5    11   ar
     9    18    29    1
    10    18    16   ar
    11    29    19   ar
    12    26    19   ar
    13    19    23    1
    14    11    16   ar
    15    16    21    1
    16    23    30    1
    17    23    28    1
    18    30    22   am
    19    21    28    2
    20    21    15    1
    21    32    22    1
    22    32    25    1
    23    22    31    2
    24     9    15   ar
    25     9     3   ar
    26     6     2   ar
    27     6    12   ar
    28    15    10   ar
    29     2     7   ar
    30    12    17   ar
    31     7    13   ar
    32    17    13   ar
    33    17    25    1
    34     3     1   ar
    35    10     4   ar
    36     1     4   ar
