@<TRIPOS>MOLECULE
2yem_WSH_A_1.pdb
 32 36 0 0 0
SMALL
GASTEIGER

@<TRIPOS>ATOM
      1  C17       -9.9170   -7.9800  -19.4890 C.ar  1459  WSH1459     0.0000
      2  C10       -7.1790  -11.0610  -15.3580 C.ar  1459  WSH1459    -0.0000
      3  C18       -8.8870   -8.8530  -19.2260 C.ar  1459  WSH1459     0.0000
      4  C16       -9.6850   -6.6200  -19.5140 C.ar  1459  WSH1459     0.0000
      5  C22       -6.5170   -3.9520  -16.0670 C.ar  1459  WSH1459     0.0001
      6  C11       -6.1380  -10.4700  -14.6800 C.ar  1459  WSH1459    -0.0002
      7  C9        -7.0110  -11.4760  -16.6580 C.ar  1459  WSH1459    -0.0002
      8  C23       -5.5590   -3.0150  -16.3680 C.ar  1459  WSH1459     0.0015
      9  C19       -7.6250   -8.3530  -18.9880 C.ar  1459  WSH1459     0.0015
     10  C15       -8.4230   -6.1250  -19.2780 C.ar  1459  WSH1459     0.0015
     11  C21       -6.6570   -5.0800  -16.8430 C.ar  1459  WSH1459     0.0029
     12  C12       -4.9290  -10.2910  -15.3090 C.ar  1459  WSH1459    -0.0007
     13  C8        -5.7950  -11.2970  -17.2740 C.ar  1459  WSH1459    -0.0007
     14  C24       -4.7410   -3.1790  -17.4590 C.ar  1459  WSH1459     0.0176
     15  C14       -7.3880   -6.9930  -19.0110 C.ar  1459  WSH1459     0.0174
     16  C20       -5.8290   -5.2700  -17.9470 C.ar  1459  WSH1459     0.0335
     17  C7        -4.7440  -10.7030  -16.6110 C.ar  1459  WSH1459     0.0213
     18  C25       -4.8640   -4.3040  -18.2640 C.ar  1459  WSH1459     0.0677
     19  C3        -3.3280   -5.5550  -19.7750 C.ar  1459  WSH1459     0.1906
     20  C2        -3.5370   -3.4300  -20.2610 C.ar  1459  WSH1459     0.1473
     21  C13       -6.0020   -6.5060  -18.7610 C.2   1459  WSH1459     0.0797
     22  C5        -2.7010   -9.0820  -19.0490 C.2   1459  WSH1459     0.4235
     23  C4        -3.6650   -6.8330  -19.0350 C.3   1459  WSH1459     0.2594
     24  C1        -4.0020   -2.0270  -20.2470 C.3   1459  WSH1459     0.0742
     25  C6        -3.4290  -10.5110  -17.2970 C.3   1459  WSH1459     0.2368
     26  N2        -2.4810   -5.2730  -20.7370 N.ar  1459  WSH1459    -0.1294
     27  N1        -2.6110   -3.9290  -21.0410 N.ar  1459  WSH1459    -0.1332
     28  N4        -5.0610   -7.2110  -19.2660 N.2   1459  WSH1459    -0.2432
     29  N5        -4.0240   -4.4050  -19.4250 N.ar  1459  WSH1459    -0.2777
     30  N3        -2.8350   -7.8670  -19.6180 N.am  1459  WSH1459    -0.1383
     31  O1        -2.0180   -9.9840  -19.5170 O.2   1459  WSH1459    -0.2245
     32  O2        -3.3980   -9.1890  -17.9050 O.3   1459  WSH1459    -0.4285
@<TRIPOS>BOND
     1    27    26   ar
     2    27    20   ar
     3    26    19   ar
     4    20    24    1
     5    20    29   ar
     6    19    29   ar
     7    19    23    1
     8    30    22   am
     9    30    23    1
    10    31    22    2
    11     4     1   ar
    12     4    10   ar
    13     1     3   ar
    14    29    18    1
    15    10    15   ar
    16    28    23    1
    17    28    21    2
    18     3     9   ar
    19    22    32    1
    20    15     9   ar
    21    15    21    1
    22    21    16    1
    23    18    16   ar
    24    18    14   ar
    25    16    11   ar
    26    32    25    1
    27    14     8   ar
    28    25    17    1
    29    13     7   ar
    30    13    17   ar
    31    11     5   ar
    32     7     2   ar
    33    17    12   ar
    34     8     5   ar
    35     2     6   ar
    36    12     6   ar
