@<TRIPOS>MOLECULE
2yeo_DR0_A_1.pdb
 33 32 0 0 0
SMALL
GASTEIGER

@<TRIPOS>ATOM
      1  CAJ       11.3780   55.4160    7.5870 C.3   1067  DR01067    -0.0653
      2  CAI       12.8560   55.8160    7.6720 C.3   1067  DR01067    -0.0559
      3  CAH       13.5940   55.4060    8.9410 C.3   1067  DR01067    -0.0534
      4  CAG       14.8510   56.1460    9.3710 C.3   1067  DR01067    -0.0547
      5  CAF       14.8980   56.5300   10.8450 C.3   1067  DR01067    -0.0675
      6  CAE       15.7070   55.5690   11.6790 C.3   1067  DR01067    -0.0856
      7  NAD       15.9210   55.7920   13.1120 N.4   1067  DR01067     0.3917
      8  CAC       16.9130   56.8720   13.2990 C.3   1067  DR01067    -0.0978
      9  CAK       14.7020   56.1240   13.8460 C.3   1067  DR01067    -0.0978
     10  CAB       16.4570   54.5280   13.6070 C.3   1067  DR01067     0.0137
     11  OAA       15.8630   54.0000   14.7420 O.3   1067  DR01067    -0.4124
     12 HAJ1       11.3090   54.4470    7.4510 H     1067  DR01067     0.0230
     13 HAJ2       10.9230   55.6630    8.4240 H     1067  DR01067     0.0230
     14 HAJ3       10.9580   55.8790    6.8400 H     1067  DR01067     0.0230
     15 HAI1       12.9130   56.7880    7.5880 H     1067  DR01067     0.0263
     16 HAI2       13.3160   55.4200    6.9180 H     1067  DR01067     0.0263
     17 HAH1       13.8460   54.4690    8.8230 H     1067  DR01067     0.0265
     18 HAH2       12.9650   55.4040    9.6720 H     1067  DR01067     0.0265
     19 HAG1       14.9700   56.9450    8.8280 H     1067  DR01067     0.0265
     20 HAG2       15.5960   55.5470    9.2040 H     1067  DR01067     0.0265
     21 HAF1       15.2140   57.4500   10.9470 H     1067  DR01067     0.0247
     22 HAF2       13.9920   56.4740   11.1820 H     1067  DR01067     0.0247
     23 HAE1       16.5800   55.4820   11.2530 H     1067  DR01067     0.0065
     24 HAE2       15.2780   54.6940   11.5780 H     1067  DR01067     0.0065
     25 HAK1       14.9350   56.4090   14.7610 H     1067  DR01067     0.0029
     26 HAK2       14.2370   56.8450   13.3910 H     1067  DR01067     0.0029
     27 HAK3       14.1250   55.3420   13.8870 H     1067  DR01067     0.0029
     28 HAC1       16.9480   57.1200   14.2360 H     1067  DR01067     0.0029
     29 HAC2       17.7930   56.5590   13.0120 H     1067  DR01067     0.0029
     30 HAC3       16.6510   57.6590   12.7590 H     1067  DR01067     0.0029
     31 HAB1       17.4010   54.6580   13.7970 H     1067  DR01067     0.0354
     32 HAB2       16.3780   53.8670   12.8890 H     1067  DR01067     0.0354
     33  HAA       16.2320   53.2200   14.9320 H     1067  DR01067     0.2068
@<TRIPOS>BOND
     1    14     1    1
     2    16     2    1
     3    12     1    1
     4     1     2    1
     5     1    13    1
     6    15     2    1
     7     2     3    1
     8    17     3    1
     9    19     4    1
    10     3     4    1
    11     3    18    1
    12    20     4    1
    13     4     5    1
    14     5    21    1
    15     5    22    1
    16     5     6    1
    17    23     6    1
    18    24     6    1
    19     6     7    1
    20    30     8    1
    21    32    10    1
    22    29     8    1
    23     7     8    1
    24     7    10    1
    25     7     9    1
    26     8    28    1
    27    26     9    1
    28    10    31    1
    29    10    11    1
    30     9    27    1
    31     9    25    1
    32    11    33    1
