@<TRIPOS>MOLECULE
2yeo_DR8_A_1.pdb
 23 22 0 0 0
SMALL
GASTEIGER

@<TRIPOS>ATOM
      1  CAJ       11.1410   53.7130   11.1410 C.3   1066  DR81066    -0.0016
      2  CAI       12.0000   52.8540   12.0000 C.1   1066  DR81066    -0.0918
      3  CAH       12.7090   52.1440   12.7090 C.1   1066  DR81066    -0.0142
      4  CAG       13.5690   51.2850   13.5680 C.1   1066  DR81066    -0.0009
      5  CAF       14.2590   50.5950   14.2580 C.1   1066  DR81066     0.0005
      6  CAE       15.1300   49.7250   15.1280 C.1   1066  DR81066     0.0052
      7  CAD       15.8160   49.0390   15.8140 C.1   1066  DR81066    -0.0039
      8  NAC       16.6350   48.2200   16.6320 N.pl3 1066  DR81066    -0.3545
      9  CAK       16.8200   46.9480   15.9810 C.3   1066  DR81066    -0.0080
     10  CAA       15.9790   48.0340   17.9100 C.3   1066  DR81066    -0.0080
     11  CAB       17.9050   48.8720   16.8170 C.3   1066  DR81066    -0.0080
     12 HAJ1       10.3250   53.2250   10.9020 H     1066  DR81066     0.0362
     13 HAJ2       10.8990   54.5390   11.6370 H     1066  DR81066     0.0362
     14 HAJ3       11.6190   53.9460   10.3450 H     1066  DR81066     0.0362
     15 HAB1       18.4900   48.2920   17.2830 H     1066  DR81066     0.0418
     16 HAB2       18.2890   49.0910   15.9460 H     1066  DR81066     0.0418
     17 HAB3       17.7770   49.7020   17.3390 H     1066  DR81066     0.0418
     18 HAA1       15.7540   48.9020   18.2890 H     1066  DR81066     0.0418
     19 HAA2       16.5690   47.5680   18.5060 H     1066  DR81066     0.0418
     20 HAA3       15.1670   47.5140   17.7850 H     1066  DR81066     0.0418
     21 HAK1       17.2810   46.3550   16.5700 H     1066  DR81066     0.0418
     22 HAK2       17.3330   47.0690   15.1840 H     1066  DR81066     0.0418
     23 HAK3       15.9730   46.5790   15.7600 H     1066  DR81066     0.0418
@<TRIPOS>BOND
     1    14     1    1
     2    12     1    1
     3     1    13    1
     4     1     2    1
     5     2     3    3
     6     3     4    1
     7     4     5    3
     8     5     6    1
     9     6     7    3
    10    22     9    1
    11    23     9    1
    12     7     8    1
    13    16    11    1
    14     9    21    1
    15     9     8    1
    16     8    11    1
    17     8    10    1
    18    11    15    1
    19    11    17    1
    20    20    10    1
    21    10    18    1
    22    10    19    1
