@<TRIPOS>MOLECULE
2yer_TQ1_A_1.pdb
 21 24 0 0 0
SMALL
GASTEIGER

@<TRIPOS>ATOM
      1  C1        -2.4760   35.5230   13.0930 C.2   1270  TQ11270     0.0015
      2  C7         1.2590   37.4840   12.5640 C.ar  1270  TQ11270     0.0017
      3  C8         2.4260   38.0550   12.2810 C.ar  1270  TQ11270     0.0032
      4  C2        -1.3590   36.3040   12.9980 C.2   1270  TQ11270     0.0161
      5  C19        1.2870   36.0710   10.5950 C.ar  1270  TQ11270     0.0430
      6  C5        -2.3990   34.5430   12.1340 C.3   1270  TQ11270     0.1516
      7  C6         0.6710   36.4820   11.7160 C.ar  1270  TQ11270     0.0207
      8  C9         3.1530   37.6920   11.1090 C.ar  1270  TQ11270     0.0369
      9  C18        2.5870   36.6630   10.2170 C.ar  1270  TQ11270     0.1553
     10  C3        -0.5560   35.8430   11.9870 C.2   1270  TQ11270     0.0762
     11  C11        5.0320   37.7850    9.5660 C.2   1270  TQ11270     0.0918
     12  C10        4.3390   38.2110   10.7470 C.2   1270  TQ11270     0.0214
     13  C12        4.4590   36.8460    8.8220 C.2   1270  TQ11270     0.3701
     14  C15        2.9430   35.2690    8.0920 C.1   1270  TQ11270     0.3527
     15  C20        5.0320   39.2280   11.5750 C.3   1270  TQ11270     0.2090
     16  N13        4.9320   36.3360    7.7640 N.2   1270  TQ11270     0.0952
     17  N4        -1.1860   34.7480   11.4390 N.2   1270  TQ11270    -0.2656
     18  N14        4.0470   35.4030    7.3000 N.2   1270  TQ11270     0.0795
     19  N17        3.2400   36.3150    9.1640 N.am  1270  TQ11270    -0.0684
     20  O16        1.9540   34.5590    8.0990 O.2   1270  TQ11270    -0.1767
     21  O21        5.5340   38.5430   12.7160 O.3   1270  TQ11270    -0.2152
@<TRIPOS>BOND
     1    18    16    1
     2    18    14    2
     3    16    13    2
     4    14    20    2
     5    14    19   am
     6    13    19    1
     7    13    11    1
     8    19     9    1
     9    11    12    2
    10     9     5   ar
    11     9     8   ar
    12     5     7   ar
    13    12     8    1
    14    12    15    1
    15     8     3   ar
    16    17    10    2
    17    17     6    1
    18    15    21    1
    19     7    10    1
    20     7     2   ar
    21    10     4    1
    22     6     1    1
    23     3     2   ar
    24     4     1    2
