@<TRIPOS>MOLECULE
2yev_HEC_B_1.pdb
 43 50 0 0 0
SMALL
GASTEIGER

@<TRIPOS>ATOM
      1 FE        -11.4560   -7.9100   54.5580 Fe    587  HEC587      0.0000
      2  CHA      -11.8930   -6.6650   57.6450 C.2   587  HEC587      0.0000
      3  CHB      -12.1420   -4.7650   53.2100 C.2   587  HEC587      0.0000
      4  CHC      -11.0480   -9.1230   51.3800 C.2   587  HEC587      0.0000
      5  CHD      -10.8160  -11.0590   55.8100 C.2   587  HEC587      0.0000
      6  NA       -11.9350   -6.0800   55.2620 N.ar  587  HEC587      0.0000
      7  C1A      -12.0550   -5.7870   56.6050 C.ar  587  HEC587      0.0000
      8  C2A      -12.3850   -4.3880   56.7490 C.ar  587  HEC587      0.0000
      9  C3A      -12.4620   -3.8620   55.5240 C.ar  587  HEC587      0.0000
     10  C4A      -12.1770   -4.9110   54.5710 C.ar  587  HEC587      0.0000
     11  CMA      -12.7820   -2.3980   55.1550 C.3   587  HEC587      0.0000
     12  CAA      -12.6230   -3.6660   58.0950 C.3   587  HEC587      0.0000
     13  CBA      -14.1090   -3.7840   58.4650 C.3   587  HEC587      0.0000
     14  CGA      -14.4640   -2.9660   59.7000 C.2   587  HEC587      0.0000
     15  O1A      -15.5800   -3.1370   60.2370 O.co2 587  HEC587      0.0000
     16  O2A      -13.6640   -2.1260   60.1790 O.co2 587  HEC587      0.0000
     17  NB       -11.5770   -7.1040   52.6900 N.2   587  HEC587      0.0000
     18  C1B      -11.8710   -5.7910   52.3460 C.2   587  HEC587      0.0000
     19  C2B      -11.8240   -5.6700   50.9090 C.2   587  HEC587      0.0000
     20  C3B      -11.5230   -6.8670   50.4120 C.2   587  HEC587      0.0000
     21  C4B      -11.3500   -7.7890   51.5070 C.2   587  HEC587      0.0000
     22  CMB      -12.0980   -4.3820   50.0960 C.3   587  HEC587      0.0000
     23  CAB      -11.3490   -7.2090   48.9200 C.3   587  HEC587      0.0000
     24  CBB      -10.1790   -6.3590   48.3800 C.3   587  HEC587      0.0000
     25  NC       -11.0140   -9.7220   53.7740 N.ar  587  HEC587      0.0000
     26  C1C      -10.8820  -10.0050   52.4230 C.ar  587  HEC587      0.0000
     27  C2C      -10.3320  -11.3340   52.2880 C.ar  587  HEC587      0.0000
     28  C3C      -10.4800  -11.9230   53.4750 C.ar  587  HEC587      0.0000
     29  C4C      -10.7960  -10.8990   54.4490 C.ar  587  HEC587      0.0000
     30  CMC      -10.3420  -12.0930   50.9440 C.3   587  HEC587      0.0000
     31  CAC      -10.2850  -13.4210   53.7630 C.3   587  HEC587      0.0000
     32  CBC       -8.8970  -14.0510   53.5990 C.3   587  HEC587      0.0000
     33  ND       -11.3580   -8.7470   56.4050 N.2   587  HEC587      0.0000
     34  C1D      -11.0770  -10.0660   56.7220 C.2   587  HEC587      0.0000
     35  C2D      -11.1070  -10.2310   58.1620 C.2   587  HEC587      0.0000
     36  C3D      -11.4460   -8.8560   58.7090 C.2   587  HEC587      0.0000
     37  C4D      -11.5790   -8.0000   57.5610 C.2   587  HEC587      0.0000
     38  CMD      -10.8670  -11.5080   58.9900 C.3   587  HEC587      0.0000
     39  CAD      -11.5600   -8.4400   60.1830 C.3   587  HEC587      0.0000
     40  CBD      -10.0770   -8.0570   60.4270 C.3   587  HEC587      0.0000
     41  CGD       -9.7580   -7.4620   61.7870 C.2   587  HEC587      0.0000
     42  O1D       -9.1800   -8.1910   62.6350 O.co2 587  HEC587      0.0000
     43  O2D      -10.0610   -6.2610   62.0340 O.co2 587  HEC587      0.0000
@<TRIPOS>BOND
     1    24    23    1
     2    23    20    1
     3    22    19    1
     4    20    19    2
     5    20    21    1
     6    19    18    1
     7    30    27    1
     8     4    21    2
     9     4    26    1
    10    21    17    1
    11    27    26   ar
    12    27    28   ar
    13    18    17    2
    14    18     3    1
    15    26    25   ar
    16    17     1    1
    17     3    10    2
    18    28    31    1
    19    28    29   ar
    20    32    31    1
    21    25    29   ar
    22    25     1    1
    23    29     5    1
    24     1     6    1
    25     1    33    1
    26    10     6   ar
    27    10     9   ar
    28    11     9    1
    29     6     7   ar
    30     9     8   ar
    31     5    34    2
    32    33    34    1
    33    33    37    2
    34     7     8   ar
    35     7     2    2
    36    34    35    1
    37     8    12    1
    38    37     2    1
    39    37    36    1
    40    12    13    1
    41    35    36    2
    42    35    38    1
    43    13    14    1
    44    36    39    1
    45    14    16   ar
    46    14    15   ar
    47    39    40    1
    48    40    41    1
    49    41    43   ar
    50    41    42   ar
