@<TRIPOS>MOLECULE
2yex_YEX_A_1.pdb
 20 23 0 0 0
SMALL
GASTEIGER

@<TRIPOS>ATOM
      1  C1        -2.4900   36.0680   13.2500 C.2   1278  YEX1278     0.0008
      2  C7         1.2570   38.3050   12.5270 C.ar  1278  YEX1278     0.0014
      3  C8         2.4230   38.9140   12.1120 C.ar  1278  YEX1278     0.0032
      4  C2        -1.4160   36.9890   13.2430 C.3   1278  YEX1278     0.0734
      5  C19        1.4080   36.7870   10.7240 C.ar  1278  YEX1278     0.0427
      6  C5        -2.2280   35.1240   12.3000 C.2   1278  YEX1278     0.0943
      7  C6         0.7320   37.2260   11.8460 C.ar  1278  YEX1278     0.0173
      8  C9         3.1080   38.4760   10.9860 C.ar  1278  YEX1278     0.0345
      9  C18        2.5760   37.3970   10.2890 C.ar  1278  YEX1278     0.1552
     10  C3        -0.5160   36.5900   12.2800 C.2   1278  YEX1278     0.0635
     11  C11        4.9480   38.6150    9.4710 C.2   1278  YEX1278     0.0893
     12  C10        4.2910   39.1030   10.5760 C.2   1278  YEX1278    -0.0110
     13  C12        4.3940   37.5220    8.8330 C.2   1278  YEX1278     0.3700
     14  C15        2.9610   35.8730    8.3440 C.1   1278  YEX1278     0.3527
     15  C20        4.8790   40.2920   11.2630 C.3   1278  YEX1278     0.0314
     16  N13        4.9330   36.9000    7.7660 N.2   1278  YEX1278     0.0952
     17  N4        -1.0360   35.4500   11.7240 N.2   1278  YEX1278    -0.2481
     18  N14        4.0120   35.8380    7.4850 N.2   1278  YEX1278     0.0795
     19  N17        3.2370   36.9520    9.2060 N.am  1278  YEX1278    -0.0684
     20  O16        1.9880   35.1330    8.3900 O.2   1278  YEX1278    -0.1767
@<TRIPOS>BOND
     1    18    16    1
     2    18    14    2
     3    16    13    2
     4    14    20    2
     5    14    19   am
     6    13    19    1
     7    13    11    1
     8    19     9    1
     9    11    12    2
    10     9     5   ar
    11     9     8   ar
    12    12     8    1
    13    12    15    1
    14     5     7   ar
    15     8     3   ar
    16    17    10    2
    17    17     6    1
    18     7    10    1
    19     7     2   ar
    20     3     2   ar
    21    10     4    1
    22     6     1    2
    23     4     1    1
