@<TRIPOS>MOLECULE
2yfc_UMP_A_1.pdb
 31 32 0 0 0
SMALL
GASTEIGER

@<TRIPOS>ATOM
      1  N1       -27.8690  -41.4430   -2.3680 N.ar  1145  UMP1145    -0.2740
      2  C2       -27.4620  -42.1710   -3.4170 C.ar  1145  UMP1145     0.3313
      3  N3       -27.0490  -41.5210   -4.5960 N.ar  1145  UMP1145    -0.2749
      4  C4       -27.0730  -40.1410   -4.6720 C.ar  1145  UMP1145     0.2539
      5  C5       -27.4820  -39.3620   -3.5820 C.ar  1145  UMP1145     0.0192
      6  C6       -27.8770  -39.9960   -2.4260 C.ar  1145  UMP1145     0.0170
      7  O2       -27.4330  -43.3870   -3.3650 O.2   1145  UMP1145    -0.2464
      8  O4       -26.6650  -39.5510   -5.8370 O.2   1145  UMP1145    -0.2677
      9  C1'      -28.2570  -42.0960   -1.1420 C.3   1145  UMP1145     0.1422
     10  C2'      -27.2960  -42.9140   -0.2200 C.3   1145  UMP1145     0.0214
     11  C3'      -27.8230  -42.6700    1.1480 C.3   1145  UMP1145     0.0877
     12  C4'      -28.2240  -41.2130    1.0180 C.3   1145  UMP1145     0.1108
     13  O3'      -28.7590  -43.5810    1.5790 O.3   1145  UMP1145    -0.3890
     14  O4'      -29.0220  -41.2160   -0.1940 O.3   1145  UMP1145    -0.3483
     15  C5'      -27.2160  -40.0980    1.1390 C.3   1145  UMP1145     0.0879
     16  O5'      -28.0570  -39.0010    1.0820 O.3   1145  UMP1145    -0.2809
     17  P        -27.5060  -37.7080    1.7750 P.3   1145  UMP1145     0.5320
     18  OP1      -26.0180  -37.6940    1.8950 O.3   1145  UMP1145    -0.1145
     19  OP2      -28.1140  -37.6670    3.1490 O.3   1145  UMP1145    -0.1145
     20  OP3      -27.8420  -36.5030    0.9460 O.2   1145  UMP1145    -0.2224
     21  HN3      -26.7380  -42.0590   -5.3800 H     1145  UMP1145     0.1734
     22  H5       -27.4870  -38.2640   -3.6490 H     1145  UMP1145     0.0686
     23  H6       -28.1960  -39.4080   -1.5530 H     1145  UMP1145     0.0813
     24  H1'      -28.8160  -42.8650   -1.6950 H     1145  UMP1145     0.0840
     25  H2'      -27.3090  -43.9850   -0.4720 H     1145  UMP1145     0.0335
     26 H2''      -26.2550  -42.5730   -0.3180 H     1145  UMP1145     0.0335
     27  H3'      -27.1170  -42.8300    1.9760 H     1145  UMP1145     0.0621
     28  H4'      -28.7490  -40.9070    1.9350 H     1145  UMP1145     0.0646
     29 HO3'      -29.0540  -43.3440    2.5050 H     1145  UMP1145     0.2099
     30  H5'      -26.6500  -40.1440    2.0810 H     1145  UMP1145     0.0592
     31 H5''      -26.4810  -40.1060    0.3210 H     1145  UMP1145     0.0592
@<TRIPOS>BOND
     1     8     4    2
     2    21     3    1
     3     4     3   ar
     4     4     5   ar
     5     3     2   ar
     6    22     5    1
     7     5     6   ar
     8     2     7    2
     9     2     1   ar
    10     6     1   ar
    11     6    23    1
    12     1     9    1
    13    24     9    1
    14     9    10    1
    15     9    14    1
    16    25    10    1
    17    26    10    1
    18    10    11    1
    19    14    12    1
    20    31    15    1
    21    20    17    2
    22    12    15    1
    23    12    11    1
    24    12    28    1
    25    16    15    1
    26    16    17    1
    27    15    30    1
    28    11    13    1
    29    11    27    1
    30    13    29    1
    31    17    18    1
    32    17    19    1
