@<TRIPOS>MOLECULE
2yfd_UMP_A_1.pdb
 31 32 0 0 0
SMALL
GASTEIGER

@<TRIPOS>ATOM
      1  N1        11.3090   33.6510   -2.2960 N.ar  1147  UMP1147    -0.2740
      2  C2        11.7410   32.9200   -3.3310 C.ar  1147  UMP1147     0.3313
      3  N3        12.0990   33.5630   -4.5280 N.ar  1147  UMP1147    -0.2749
      4  C4        12.0180   34.9440   -4.6260 C.ar  1147  UMP1147     0.2539
      5  C5        11.5760   35.7190   -3.5480 C.ar  1147  UMP1147     0.0192
      6  C6        11.2190   35.0900   -2.3800 C.ar  1147  UMP1147     0.0170
      7  O2        11.7970   31.7070   -3.2460 O.2   1147  UMP1147    -0.2464
      8  O4        12.3690   35.5460   -5.7990 O.2   1147  UMP1147    -0.2677
      9  C1'       10.9310   33.0020   -1.0800 C.3   1147  UMP1147     0.1422
     10  C2'       11.9000   32.2360   -0.1250 C.3   1147  UMP1147     0.0214
     11  C3'       11.2980   32.4270    1.2120 C.3   1147  UMP1147     0.0877
     12  C4'       10.8190   33.8500    1.1040 C.3   1147  UMP1147     0.1108
     13  O3'       10.4040   31.4670    1.6050 O.3   1147  UMP1147    -0.3890
     14  O4'       10.1740   33.9160   -0.1720 O.3   1147  UMP1147    -0.3483
     15  C5'       11.7560   34.9310    1.5080 C.3   1147  UMP1147     0.0879
     16  O5'       11.3920   36.2030    1.0700 O.3   1147  UMP1147    -0.2809
     17  P         11.7080   37.5160    1.8540 P.3   1147  UMP1147     0.5320
     18  OP1       11.2510   38.6770    1.0120 O.2   1147  UMP1147    -0.2224
     19  OP2       11.0170   37.5330    3.1910 O.3   1147  UMP1147    -0.1145
     20  OP3       13.1900   37.6760    1.9890 O.3   1147  UMP1147    -0.1145
     21  HN3       12.4120   33.0240   -5.3100 H     1147  UMP1147     0.1734
     22  H5        11.5150   36.8140   -3.6340 H     1147  UMP1147     0.0686
     23  H6        10.8680   35.6760   -1.5180 H     1147  UMP1147     0.0813
     24  H1'       10.3980   32.1920   -1.5990 H     1147  UMP1147     0.0840
     25  H2'       11.9690   31.1700   -0.3890 H     1147  UMP1147     0.0335
     26 H2''       12.9200   32.6450   -0.1710 H     1147  UMP1147     0.0335
     27  H3'       11.9890   32.2860    2.0560 H     1147  UMP1147     0.0621
     28  H4'       10.0980   34.0990    1.8970 H     1147  UMP1147     0.0646
     29 HO3'       10.0590   31.6850    2.5180 H     1147  UMP1147     0.2099
     30  H5'       11.8320   34.9420    2.6050 H     1147  UMP1147     0.0592
     31 H5''       12.7580   34.6950    1.1190 H     1147  UMP1147     0.0592
@<TRIPOS>BOND
     1     8     4    2
     2    21     3    1
     3     4     3   ar
     4     4     5   ar
     5     3     2   ar
     6    22     5    1
     7     5     6   ar
     8     2     7    2
     9     2     1   ar
    10     6     1   ar
    11     6    23    1
    12     1     9    1
    13    24     9    1
    14     9    14    1
    15     9    10    1
    16    25    10    1
    17    14    12    1
    18    26    10    1
    19    10    11    1
    20    18    17    2
    21    16    15    1
    22    16    17    1
    23    12    11    1
    24    12    15    1
    25    12    28    1
    26    31    15    1
    27    11    13    1
    28    11    27    1
    29    15    30    1
    30    13    29    1
    31    17    20    1
    32    17    19    1
