@<TRIPOS>MOLECULE
2yfe_YFE_A_1.pdb
 25 26 0 0 0
SMALL
GASTEIGER

@<TRIPOS>ATOM
      1  CAB       18.6640   17.5110   44.2480 C.3   999  YFE999      0.0260
      2  CAR       17.1790   17.8100   44.5240 C.2   999  YFE999     -0.0475
      3  CAC       16.2080   17.7330   43.3220 C.3   999  YFE999      0.0260
      4  CAG       16.6600   18.1180   45.8000 C.2   999  YFE999     -0.0297
      5  CAN       17.2270   18.2660   47.0780 C.3   999  YFE999      0.0580
      6  CAX       16.9040   19.6930   47.6090 C.ar  999  YFE999      0.0552
      7  CAW       15.5970   20.1680   47.7370 C.ar  999  YFE999      0.1378
      8  CAM       15.3210   21.4570   48.1940 C.ar  999  YFE999      0.0327
      9  OAQ       14.5520   19.3570   47.4130 O.3   999  YFE999     -0.4716
     10  CAA       13.4130   19.6300   48.2760 C.3   999  YFE999      0.2525
     11  CAU       17.9230   20.5690   47.9840 C.ar  999  YFE999      0.2009
     12  OAF       19.2160   20.1590   47.8900 O.3   999  YFE999     -0.2866
     13  CAY       17.6630   21.8630   48.4410 C.ar  999  YFE999      0.1145
     14  CAS       18.8620   22.7510   48.8280 C.2   999  YFE999      0.3905
     15  OAE       19.9900   22.2040   48.8470 O.co2 999  YFE999     -0.2404
     16  OAD       18.6550   23.9480   49.1340 O.co2 999  YFE999     -0.2404
     17  CAV       16.3410   22.3180   48.5690 C.ar  999  YFE999     -0.0094
     18  CAP       15.9040   23.7170   49.0390 C.3   999  YFE999      0.0314
     19  CAO       15.7120   23.8370   50.5400 C.3   999  YFE999      0.0310
     20  CAT       15.1980   25.2300   50.9540 C.ar  999  YFE999     -0.0218
     21  CAK       14.8020   26.1750   50.0090 C.ar  999  YFE999     -0.0043
     22  CAI       14.3350   27.4320   50.4130 C.ar  999  YFE999     -0.0003
     23  CAH       14.2700   27.7410   51.7710 C.ar  999  YFE999     -0.0000
     24  CAJ       14.6670   26.7950   52.7280 C.ar  999  YFE999     -0.0003
     25  CAL       15.1300   25.5470   52.3130 C.ar  999  YFE999     -0.0043
@<TRIPOS>BOND
     1     3     2    1
     2     1     2    1
     3     2     4    2
     4     4     5    1
     5     5     6    1
     6     9     7    1
     7     9    10    1
     8     6     7   ar
     9     6    11   ar
    10     7     8   ar
    11    12    11    1
    12    11    13   ar
    13     8    17   ar
    14    13    17   ar
    15    13    14    1
    16    17    18    1
    17    14    15   ar
    18    14    16   ar
    19    18    19    1
    20    21    22   ar
    21    21    20   ar
    22    22    23   ar
    23    19    20    1
    24    20    25   ar
    25    23    24   ar
    26    25    24   ar
