@<TRIPOS>MOLECULE
2yfj_1IT_A_1.pdb
 13 15 0 0 0
SMALL
GASTEIGER

@<TRIPOS>ATOM
      1  C13      -17.4440   -3.9400   36.0210 C.ar  1460  1IT1460     0.0031
      2  C1       -18.6340   -4.0310   35.3080 C.ar  1460  1IT1460     0.0375
      3  C12      -16.6010   -2.8690   35.7050 C.ar  1460  1IT1460     0.0002
      4  C11      -16.9570   -1.9350   34.7190 C.ar  1460  1IT1460     0.0031
      5  C10      -18.1630   -2.0450   34.0150 C.ar  1460  1IT1460     0.0375
      6  C9       -18.9900   -3.1160   34.3350 C.ar  1460  1IT1460     0.1453
      7  O8       -20.2670   -3.4570   33.7710 O.2   1460  1IT1460    -0.4535
      8  C7       -20.6830   -4.6470   34.4590 C.ar  1460  1IT1460     0.1453
      9  C2       -19.7310   -5.0230   35.3900 C.ar  1460  1IT1460     0.0375
     10  C6       -21.8520   -5.3820   34.2840 C.ar  1460  1IT1460     0.0375
     11  C5       -22.0210   -6.5150   35.0880 C.ar  1460  1IT1460     0.0031
     12  C4       -21.0480   -6.8910   36.0270 C.ar  1460  1IT1460     0.0002
     13  C3       -19.8770   -6.1440   36.1980 C.ar  1460  1IT1460     0.0031
@<TRIPOS>BOND
     1     7     6   ar
     2     7     8   ar
     3     5     6   ar
     4     5     4   ar
     5    10     8   ar
     6    10    11   ar
     7     6     2   ar
     8     8     9   ar
     9     4     3   ar
    10    11    12   ar
    11     2     9   ar
    12     2     1   ar
    13     9    13   ar
    14     3     1   ar
    15    12    13   ar
