@<TRIPOS>MOLECULE
2yfl_DC4_A_1.pdb
 14 16 0 0 0
SMALL
GASTEIGER

@<TRIPOS>ATOM
      1  CAH       24.4230    8.2220   -5.5090 C.ar  1460  DC41460     0.0145
      2  CAN       23.3770    7.2980   -5.5420 C.ar  1460  DC41460     0.0383
      3  CAM       23.1640    6.1400   -6.2820 C.ar  1460  DC41460     0.0375
      4  CAF       23.9180    5.4910   -7.2570 C.ar  1460  DC41460     0.0031
      5  CAC       23.4350    4.3180   -7.8370 C.ar  1460  DC41460     0.0002
      6  CAB       22.2060    3.7890   -7.4500 C.ar  1460  DC41460     0.0031
      7  CAE       21.4510    4.4370   -6.4780 C.ar  1460  DC41460     0.0375
      8  CAK       21.9320    5.6120   -5.8960 C.ar  1460  DC41460     0.1453
      9  OAI       21.4060    6.4330   -4.9410 O.2   1460  DC41460    -0.4535
     10  CAL       22.2720    7.4650   -4.7100 C.ar  1460  DC41460     0.1454
     11  CAG       22.2060    8.5530   -3.8430 C.ar  1460  DC41460     0.0384
     12  CAD       23.2490    9.4760   -3.8100 C.ar  1460  DC41460     0.0145
     13  CAJ       24.3570    9.3130   -4.6420 C.ar  1460  DC41460     0.0579
     14 CL1        25.6450   10.4710   -4.5830 Cl    1460  DC41460    -0.0822
@<TRIPOS>BOND
     1     5     6   ar
     2     5     4   ar
     3     6     7   ar
     4     4     3   ar
     5     7     8   ar
     6     3     8   ar
     7     3     2   ar
     8     8     9   ar
     9     2     1   ar
    10     2    10   ar
    11     1    13   ar
    12     9    10   ar
    13    10    11   ar
    14    13    14    1
    15    13    12   ar
    16    11    12   ar
