@<TRIPOS>MOLECULE
2yfo_GLA_A_1.pdb
 12 12 0 0 0
SMALL
GASTEIGER

@<TRIPOS>ATOM
      1  C1        22.4930    6.1140   52.1960 C.3   1755  GLA1755     0.3024
      2  C2        22.3830    7.3970   53.0170 C.3   1755  GLA1755     0.2434
      3  C3        21.1150    7.4410   53.8760 C.3   1755  GLA1755     0.2199
      4  C4        19.9090    7.3380   52.9290 C.3   1755  GLA1755     0.2144
      5  C5        20.0350    6.0920   52.0660 C.3   1755  GLA1755     0.1836
      6  C6        18.9640    6.1240   50.9680 C.3   1755  GLA1755     0.2142
      7  O1        22.4720    4.9930   53.0970 O.3   1755  GLA1755    -0.1869
      8  O2        23.5800    7.5860   53.7740 O.3   1755  GLA1755    -0.2148
      9  O3        21.0580    8.5690   54.7250 O.3   1755  GLA1755    -0.2174
     10  O4        19.9370    8.5660   52.1810 O.3   1755  GLA1755    -0.2176
     11  O5        21.3010    6.0100   51.3750 O.3   1755  GLA1755    -0.3236
     12  O6        18.9910    4.9510   50.1540 O.3   1755  GLA1755    -0.2176
@<TRIPOS>BOND
     1    12     6    1
     2     6     5    1
     3    11     5    1
     4    11     1    1
     5     5     4    1
     6    10     4    1
     7     1     2    1
     8     1     7    1
     9     4     3    1
    10     2     8    1
    11     2     3    1
    12     3     9    1
