@<TRIPOS>MOLECULE
2yfs_SUC_A_1.pdb
 23 24 0 0 0
SMALL
GASTEIGER

@<TRIPOS>ATOM
      1  C1        48.9910   65.5960   51.0720 C.3   1709  SUC1709     0.2713
      2  C2        48.9320   64.0900   51.4040 C.3   1709  SUC1709     0.2406
      3  C3        47.5360   63.7840   51.8950 C.3   1709  SUC1709     0.2198
      4  C4        47.3460   64.4900   53.2440 C.3   1709  SUC1709     0.2144
      5  C5        47.6040   66.0040   53.1020 C.3   1709  SUC1709     0.1835
      6  C6        47.7490   66.5290   54.5350 C.3   1709  SUC1709     0.2142
      7  O1        47.9450   66.1000   50.1990 O.3   1709  SUC1709    -0.3033
      8  O2        49.2830   63.1970   50.3200 O.3   1709  SUC1709    -0.2149
      9  O3        47.4100   62.3730   52.0270 O.3   1709  SUC1709    -0.2174
     10  O4        46.0250   64.2460   53.7360 O.3   1709  SUC1709    -0.2176
     11  O5        48.8140   66.3100   52.3140 O.3   1709  SUC1709    -0.3256
     12  O6        49.0670   67.0860   54.7390 O.3   1709  SUC1709    -0.2176
     13  C1'       48.6980   65.4170   47.9820 C.3   1709  SUC1709     0.2406
     14  C2'       48.3600   66.6180   48.8940 C.3   1709  SUC1709     0.2516
     15  C3'       47.3120   67.5230   48.2300 C.3   1709  SUC1709     0.2381
     16  C4'       47.3940   68.7750   49.1170 C.3   1709  SUC1709     0.2167
     17  C5'       48.9030   68.8630   49.3490 C.3   1709  SUC1709     0.1835
     18  C6'       49.3180   69.2800   50.7730 C.3   1709  SUC1709     0.2142
     19  O1'       49.5390   65.8160   46.9000 O.3   1709  SUC1709    -0.2149
     20  O2'       49.4560   67.5530   49.0550 O.3   1709  SUC1709    -0.3272
     21  O3'       45.9960   66.9320   48.2070 O.3   1709  SUC1709    -0.2150
     22  O4'       46.9870   69.9430   48.3830 O.3   1709  SUC1709    -0.2175
     23  O6'       50.7370   69.2070   50.8560 O.3   1709  SUC1709    -0.2176
@<TRIPOS>BOND
     1    19    13    1
     2    13    14    1
     3    21    15    1
     4    15    14    1
     5    15    16    1
     6    22    16    1
     7    14    20    1
     8    14     7    1
     9    20    17    1
    10    16    17    1
    11    17    18    1
    12     7     1    1
    13     8     2    1
    14    18    23    1
    15     1     2    1
    16     1    11    1
    17     2     3    1
    18     3     9    1
    19     3     4    1
    20    11     5    1
    21     5     4    1
    22     5     6    1
    23     4    10    1
    24     6    12    1
