@<TRIPOS>MOLECULE
2yft_DQR_A_1.pdb
 34 36 0 0 0
SMALL
GASTEIGER

@<TRIPOS>ATOM
      1  C1        50.6700   63.9160   51.7710 C.3   1695  DQR1695     0.2713
      2  C10       48.3460   64.8050   49.9470 C.3   1695  DQR1695     0.2034
      3  C11       48.4580   65.0570   47.3360 C.3   1695  DQR1695     0.2406
      4  C2        51.4450   62.7420   51.1170 C.3   1695  DQR1695     0.2406
      5  C20       48.3330   64.7200   51.4430 C.3   1695  DQR1695     0.2483
      6  C21       48.0450   66.2570   48.2130 C.3   1695  DQR1695     0.2499
      7  C3        51.3730   61.4580   51.9940 C.3   1695  DQR1695     0.2198
      8  C30       46.9030   64.4030   51.9060 C.3   1695  DQR1695     0.2380
      9  C31       47.1130   67.2220   47.4720 C.3   1695  DQR1695     0.2381
     10  C4        51.6450   61.7300   53.4950 C.3   1695  DQR1695     0.2144
     11  C40       46.8530   65.0820   53.2680 C.3   1695  DQR1695     0.2167
     12  C41       47.2660   68.4650   48.3550 C.3   1695  DQR1695     0.2167
     13  C5        50.9620   63.0170   54.0060 C.3   1695  DQR1695     0.1835
     14  C50       47.6450   66.3600   52.9950 C.3   1695  DQR1695     0.1835
     15  C51       48.7690   68.4450   48.6690 C.3   1695  DQR1695     0.1835
     16  C6        51.4560   63.3560   55.4260 C.3   1695  DQR1695     0.2142
     17  C60       48.2940   66.7930   54.3050 C.3   1695  DQR1695     0.2142
     18  C61       49.0710   68.9440   50.0930 C.3   1695  DQR1695     0.2142
     19  O1        49.2370   63.6560   51.8590 O.3   1695  DQR1695    -0.3034
     20  O10       47.4360   65.7710   49.4150 O.3   1695  DQR1695    -0.3249
     21  O11       49.4260   65.4530   46.3680 O.3   1695  DQR1695    -0.2149
     22  O2        50.9990   62.4980   49.7530 O.3   1695  DQR1695    -0.2149
     23  O20       48.6660   66.0150   52.0060 O.3   1695  DQR1695    -0.3273
     24  O21       49.2010   67.0550   48.5740 O.3   1695  DQR1695    -0.3273
     25  O3        52.3110   60.4790   51.5290 O.3   1695  DQR1695    -0.2174
     26  O30       46.7470   62.9840   52.0270 O.3   1695  DQR1695    -0.2150
     27  O31       45.7560   66.7190   47.4780 O.3   1695  DQR1695    -0.2150
     28  O4        51.2060   60.6110   54.2810 O.3   1695  DQR1695    -0.2176
     29  O40       45.5110   65.4310   53.6150 O.3   1695  DQR1695    -0.2175
     30  O41       46.9740   69.6470   47.6240 O.3   1695  DQR1695    -0.2175
     31  O5        51.1960   64.1580   53.1110 O.3   1695  DQR1695    -0.3256
     32  O60       49.4050   65.9460   54.6150 O.3   1695  DQR1695    -0.2176
     33  O61       50.4770   68.7610   50.3680 O.3   1695  DQR1695    -0.2176
     34  O6        50.3410   63.3380   56.3280 O.3   1695  DQR1695    -0.2176
@<TRIPOS>BOND
     1    21     3    1
     2     3     6    1
     3     9    27    1
     4     9     6    1
     5     9    12    1
     6    30    12    1
     7     6    24    1
     8     6    20    1
     9    12    15    1
    10    24    15    1
    11    15    18    1
    12    20     2    1
    13    22     4    1
    14     2     5    1
    15    18    33    1
    16     4     1    1
    17     4     7    1
    18     5    19    1
    19     5     8    1
    20     5    23    1
    21    25     7    1
    22     1    19    1
    23     1    31    1
    24     8    26    1
    25     8    11    1
    26     7    10    1
    27    23    14    1
    28    14    11    1
    29    14    17    1
    30    31    13    1
    31    11    29    1
    32    10    13    1
    33    10    28    1
    34    13    16    1
    35    17    32    1
    36    16    34    1
