@<TRIPOS>MOLECULE
2yfx_VGH_A_1.pdb
 30 33 0 0 0
SMALL
GASTEIGER

@<TRIPOS>ATOM
      1 CL         33.2070   46.1070    6.4440 Cl    9000  VGH9000    -0.0824
      2  C13       33.6970   45.8390    8.0910 C.ar  9000  VGH9000     0.0580
      3  C3        34.5300   46.8340    8.6780 C.ar  9000  VGH9000     0.0135
      4  C2        34.9870   46.7120   10.0140 C.ar  9000  VGH9000     0.0314
      5  C12       34.6210   45.5890   10.8030 C.ar  9000  VGH9000     0.1505
      6  F         35.0760   45.5080   12.0650 F     9000  VGH9000    -0.2033
      7  C17       33.2980   44.6720    8.8630 C.ar  9000  VGH9000     0.0405
      8  C18       33.7800   44.5630   10.2490 C.ar  9000  VGH9000     0.0852
      9 CL2        33.3790   43.2190   11.2970 Cl    9000  VGH9000    -0.0801
     10  C21       32.3850   43.5800    8.2020 C.3   9000  VGH9000     0.1901
     11  C1        33.1000   42.2190    8.1980 C.3   9000  VGH9000     0.0524
     12  O27       31.0970   43.3550    8.8780 O.3   9000  VGH9000    -0.4718
     13  C15       30.0750   44.2980    9.0310 C.ar  9000  VGH9000     0.1734
     14  C4        29.9670   45.5330    8.3040 C.ar  9000  VGH9000     0.0416
     15  C19       29.0210   44.0250    9.9640 C.ar  9000  VGH9000     0.2039
     16  N22       29.0600   42.8270   10.7070 N.pl3 9000  VGH9000    -0.1039
     17  N23       27.9640   44.8480   10.1840 N.ar  9000  VGH9000    -0.2234
     18  C5        27.8920   46.0120    9.4790 C.ar  9000  VGH9000     0.1007
     19  C14       28.8710   46.4160    8.5180 C.ar  9000  VGH9000     0.0253
     20  C16       28.7630   47.7180    7.7450 C.ar  9000  VGH9000     0.0412
     21  C6        29.8280   48.4300    7.0310 C.ar  9000  VGH9000     0.1217
     22  C7        27.6270   48.4950    7.5570 C.ar  9000  VGH9000     0.0966
     23  N26       28.0760   49.5740    6.7720 N.ar  9000  VGH9000    -0.2512
     24  N24       29.3340   49.4940    6.4990 N.ar  9000  VGH9000    -0.1677
     25  C20       27.2350   50.6960    6.2910 C.3   9000  VGH9000     0.1081
     26  C8        26.8940   51.6490    7.4550 C.3   9000  VGH9000     0.0432
     27  C10       26.0170   52.8090    6.9290 C.3   9000  VGH9000     0.0907
     28  N25       24.7880   52.3200    6.2390 N.3   9000  VGH9000    -0.2179
     29  C11       25.0880   51.3610    5.1380 C.3   9000  VGH9000     0.0907
     30  C9        25.9410   50.1670    5.6240 C.3   9000  VGH9000     0.0432
@<TRIPOS>BOND
     1    29    30    1
     2    29    28    1
     3    30    25    1
     4    28    27    1
     5    25    23    1
     6    25    26    1
     7     1     2    1
     8    24    23   ar
     9    24    21   ar
    10    23    22   ar
    11    27    26    1
    12    21    20   ar
    13    22    20   ar
    14    20    19    1
    15     2     3   ar
    16     2     7   ar
    17    11    10    1
    18    10     7    1
    19    10    12    1
    20    14    19   ar
    21    14    13   ar
    22    19    18   ar
    23     3     4   ar
    24     7     8   ar
    25    12    13    1
    26    13    15   ar
    27    18    17   ar
    28    15    17   ar
    29    15    16    1
    30     4     5   ar
    31     8     5   ar
    32     8     9    1
    33     5     6    1
