@<TRIPOS>MOLECULE
2yfy_9TN_A_1.pdb
 41 43 0 0 0
SMALL
GASTEIGER

@<TRIPOS>ATOM
      1  CAA       -2.6390   13.3280   77.9310 C.3   1995  9TN1995     0.0006
      2  CAB       -2.6660    4.6940   74.1000 C.3   1995  9TN1995     0.0000
      3  CAC       -8.8980   12.1540   82.2600 C.3   1995  9TN1995     0.1212
      4  CAD       -1.3380   10.9240   79.0830 C.3   1995  9TN1995     0.0116
      5  CAE       -1.2090   11.0920   84.2240 C.3   1995  9TN1995     0.0296
      6  CAF       -5.0040   11.4910   89.7250 C.3   1995  9TN1995     0.0474
      7  CAG       -5.5270   12.8290   83.6610 C.3   1995  9TN1995     0.0442
      8  CAO       -2.4370   13.1470   79.3780 C.3   1995  9TN1995     0.0111
      9  CAP       -2.9510    6.0700   74.7220 C.3   1995  9TN1995     0.0000
     10  CAQ       -4.2640    6.0280   75.4950 C.3   1995  9TN1995     0.0000
     11  CAR       -4.3460    7.2700   76.3700 C.3   1995  9TN1995     0.0000
     12  CAS       -4.9150    6.8410   77.7140 C.3   1995  9TN1995     0.0006
     13  CAT       -5.0140    8.0780   78.5680 C.3   1995  9TN1995     0.0116
     14  CAU       -5.3000    7.6670   80.0400 C.3   1995  9TN1995     0.1096
     15  OAV       -2.4290   10.6880   87.0700 O.3   1995  9TN1995    -0.4435
     16  CAW       -6.7540   11.6780   85.4830 C.3   1995  9TN1995     0.0762
     17  OAH       -8.8110   10.7960   84.2610 O.2   1995  9TN1995    -0.2501
     18  OAI       -5.7960   10.0770   80.2350 O.2   1995  9TN1995    -0.2501
     19  OAJ       -2.8090   12.5530   82.0260 O.2   1995  9TN1995    -0.2501
     20  OAK       -1.9650   11.0860   89.3900 O.2   1995  9TN1995    -0.2473
     21  OAL       -5.4940   13.5210   86.2510 O.3   1995  9TN1995    -0.2201
     22  OAM       -3.9710   13.2320   88.3950 O.3   1995  9TN1995    -0.2114
     23  OAN       -5.2530   10.0780   87.2780 O.3   1995  9TN1995    -0.2158
     24  OAX       -5.1670    8.9360   82.1310 O.3   1995  9TN1995    -0.4477
     25  OAY       -6.9200   10.9880   83.1660 O.3   1995  9TN1995    -0.4552
     26  OAZ       -2.3320   10.3870   81.6070 O.3   1995  9TN1995    -0.4442
     27  CBA       -8.2790   11.1980   83.2250 C.2   1995  9TN1995     0.3173
     28  CBB       -1.9280   12.0100   79.9100 C.3   1995  9TN1995     0.0991
     29  CBC       -5.4610    9.0230   80.7640 C.2   1995  9TN1995     0.3170
     30  CBD       -2.3130   11.7070   81.2690 C.2   1995  9TN1995     0.3167
     31  CBE       -2.5990   10.5860   84.0480 C.2   1995  9TN1995    -0.0052
     32  CBF       -2.7270   11.1300   88.4550 C.2   1995  9TN1995     0.3476
     33  CBG       -3.6600   10.8030   84.8410 C.2   1995  9TN1995     0.0000
     34  CBI       -4.5560   10.1020   82.7080 C.3   1995  9TN1995     0.2194
     35  CBJ       -5.9440   12.2530   86.6550 C.3   1995  9TN1995     0.1899
     36  CBK       -4.1410   11.8220   88.4970 C.3   1995  9TN1995     0.2460
     37  CBL       -3.0050    9.9360   82.7440 C.3   1995  9TN1995     0.2268
     38  CBM       -6.0460   11.4840   84.1890 C.3   1995  9TN1995     0.1455
     39  CBN       -4.9630   10.3800   84.2140 C.3   1995  9TN1995     0.1021
     40  CBH       -3.5100   11.3970   86.1870 C.3   1995  9TN1995     0.2200
     41  CBO       -4.7410   11.3640   87.1290 C.3   1995  9TN1995     0.2295
@<TRIPOS>BOND
     1     2     9    1
     2     9    10    1
     3    10    11    1
     4    11    12    1
     5    12    13    1
     6     1     8    1
     7    13    14    1
     8     4    28    1
     9     8    28    1
    10    28    30    1
    11    14    29    1
    12    18    29    2
    13    29    24    1
    14    30    26    1
    15    30    19    2
    16    26    37    1
    17    24    34    1
    18     3    27    1
    19    34    37    1
    20    34    39    1
    21    37    31    1
    22    25    27    1
    23    25    38    1
    24    27    17    2
    25     7    38    1
    26    31     5    1
    27    31    33    2
    28    38    39    1
    29    38    16    1
    30    39    33    1
    31    33    40    1
    32    16    35    1
    33    40    15    1
    34    40    41    1
    35    21    35    1
    36    35    41    1
    37    15    32    1
    38    41    23    1
    39    41    36    1
    40    22    36    1
    41    32    36    1
    42    32    20    2
    43    36     6    1
