@<TRIPOS>MOLECULE
2yfz_GAL_A_1.pdb
 11 11 0 0 0
SMALL
GASTEIGER

@<TRIPOS>ATOM
      1  C1        54.4110   14.5300   62.8330 C.3   1146  GAL1146     0.1777
      2  C2        53.6860   13.5340   61.9410 C.3   1146  GAL1146     0.2141
      3  C3        53.4640   14.2220   60.5910 C.3   1146  GAL1146     0.2173
      4  C4        52.7190   15.5640   60.7540 C.3   1146  GAL1146     0.2142
      5  C5        53.4930   16.4400   61.7440 C.3   1146  GAL1146     0.1810
      6  C6        52.8070   17.7720   62.0170 C.3   1146  GAL1146     0.2141
      7  O2        54.4780   12.3470   61.7850 O.3   1146  GAL1146    -0.2176
      8  O3        52.7630   13.3090   59.7510 O.3   1146  GAL1146    -0.2175
      9  O4        51.3700   15.3410   61.2540 O.3   1146  GAL1146    -0.2176
     10  O5        53.6200   15.7160   62.9810 O.3   1146  GAL1146    -0.3481
     11  O6        53.6990   18.5950   62.7820 O.3   1146  GAL1146    -0.2176
@<TRIPOS>BOND
     1     8     3    1
     2     3     4    1
     3     3     2    1
     4     4     9    1
     5     4     5    1
     6     5     6    1
     7     5    10    1
     8     7     2    1
     9     2     1    1
    10     6    11    1
    11     1    10    1
