@<TRIPOS>MOLECULE
2yfz_BGC_A_1.pdb
 12 12 0 0 0
SMALL
GASTEIGER

@<TRIPOS>ATOM
      1  C2        56.8660    9.2510   65.7130 C.3   1143  BGC1143     0.2434
      2  C3        56.2170    9.6170   67.0500 C.3   1143  BGC1143     0.2199
      3  C4        54.8200    8.9880   67.1110 C.3   1143  BGC1143     0.2144
      4  C5        54.9880    7.4740   66.9610 C.3   1143  BGC1143     0.1836
      5  C6        53.6700    6.7220   67.1420 C.3   1143  BGC1143     0.2142
      6  C1        56.8780    7.7290   65.5270 C.3   1143  BGC1143     0.3024
      7  O1        57.3930    7.3900   64.2520 O.3   1143  BGC1143    -0.1869
      8  O2        58.1710    9.7750   65.6430 O.3   1143  BGC1143    -0.2148
      9  O3        56.1630   11.0190   67.2150 O.3   1143  BGC1143    -0.2174
     10  O4        54.1250    9.3450   68.2890 O.3   1143  BGC1143    -0.2176
     11  O5        55.5620    7.2070   65.6840 O.3   1143  BGC1143    -0.3236
     12  O6        53.7880    5.3810   66.7060 O.3   1143  BGC1143    -0.2176
@<TRIPOS>BOND
     1     7     6    1
     2     6    11    1
     3     6     1    1
     4     8     1    1
     5    11     4    1
     6     1     2    1
     7    12     5    1
     8     4     3    1
     9     4     5    1
    10     2     3    1
    11     2     9    1
    12     3    10    1
