@<TRIPOS>MOLECULE
2yg0_GLA_A_1.pdb
 11 11 0 0 0
SMALL
GASTEIGER

@<TRIPOS>ATOM
      1  C1        54.2590   14.3240   62.8580 C.3   1141  GLA1141     0.1777
      2  C2        53.6180   13.3870   61.8600 C.3   1141  GLA1141     0.2141
      3  C3        53.4440   14.1500   60.5370 C.3   1141  GLA1141     0.2173
      4  C4        52.6190   15.4200   60.7270 C.3   1141  GLA1141     0.2142
      5  C5        53.3780   16.2630   61.7490 C.3   1141  GLA1141     0.1810
      6  C6        52.6180   17.5520   62.0490 C.3   1141  GLA1141     0.2141
      7  O2        54.4300   12.2090   61.6270 O.3   1141  GLA1141    -0.2176
      8  O3        52.7670   13.2860   59.6430 O.3   1141  GLA1141    -0.2175
      9  O4        51.2610   15.1680   61.2210 O.3   1141  GLA1141    -0.2176
     10  O5        53.5190   15.5250   62.9840 O.3   1141  GLA1141    -0.3481
     11  O6        53.4650   18.2660   62.9240 O.3   1141  GLA1141    -0.2176
@<TRIPOS>BOND
     1     8     3    1
     2     3     4    1
     3     3     2    1
     4     4     9    1
     5     4     5    1
     6     7     2    1
     7     5     6    1
     8     5    10    1
     9     2     1    1
    10     6    11    1
    11     1    10    1
