@<TRIPOS>MOLECULE
2yg2_S1P_A_1.pdb
 25 24 0 0 0
SMALL
GASTEIGER

@<TRIPOS>ATOM
      1  C1       -36.1040   -0.2720   30.7040 C.3   301  S1P301      0.1756
      2  O1       -34.7640    0.0330   30.3110 O.3   301  S1P301     -0.2686
      3  C2       -36.1870   -1.8020   30.8770 C.3   301  S1P301      0.1563
      4  N2       -35.0710   -2.2570   31.7220 N.3   301  S1P301     -0.1272
      5  C3       -36.1110   -2.5070   29.5200 C.3   301  S1P301      0.1936
      6  O3       -37.2530   -2.1280   28.7170 O.3   301  S1P301     -0.2167
      7  C4       -36.1750   -4.0050   29.7580 C.2   301  S1P301      0.0031
      8  C5       -35.3220   -4.8370   29.1750 C.2   301  S1P301     -0.0282
      9  C6       -35.4050   -6.3310   29.4040 C.3   301  S1P301      0.0258
     10  C7       -35.7600   -7.0640   28.0850 C.3   301  S1P301      0.0047
     11  C8       -35.7410   -8.5820   28.2410 C.3   301  S1P301      0.0003
     12  C9       -36.2090   -9.2400   26.9270 C.3   301  S1P301      0.0000
     13  C10      -36.3560  -10.7480   27.1280 C.3   301  S1P301      0.0000
     14  C11      -35.0230  -11.4700   27.1060 C.3   301  S1P301      0.0000
     15  C12      -35.2520  -12.8730   27.6640 C.3   301  S1P301      0.0000
     16  C13      -34.0300  -13.7690   27.5340 C.3   301  S1P301      0.0000
     17  C14      -32.7800  -13.2540   28.2340 C.3   301  S1P301      0.0000
     18  C15      -32.9990  -12.9160   29.7010 C.3   301  S1P301      0.0000
     19  C16      -31.7650  -12.2330   30.2720 C.3   301  S1P301      0.0000
     20  C17      -31.8710  -10.7210   30.1010 C.3   301  S1P301      0.0000
     21  C18      -30.5150  -10.1520   29.7760 C.3   301  S1P301      0.0000
     22  P22      -34.3730    1.5240   29.8760 P.3   301  S1P301      0.5326
     23  O23      -32.9390    1.5950   29.7260 O.3   301  S1P301     -0.1145
     24  O24      -34.8820    2.4830   31.0590 O.3   301  S1P301     -0.1145
     25  O25      -35.1940    1.9710   28.5700 O.2   301  S1P301     -0.2224
@<TRIPOS>BOND
     1    12    13    1
     2    12    11    1
     3    14    13    1
     4    14    15    1
     5    16    15    1
     6    16    17    1
     7    10    11    1
     8    10     9    1
     9    17    18    1
    10    25    22    2
    11     6     5    1
    12     8     9    1
    13     8     7    2
    14     5     7    1
    15     5     3    1
    16    18    19    1
    17    23    22    1
    18    21    20    1
    19    22     2    1
    20    22    24    1
    21    20    19    1
    22     2     1    1
    23     1     3    1
    24     3     4    1
