@<TRIPOS>MOLECULE
2yg2_FLC_A_1.pdb
 13 12 0 0 0
SMALL
GASTEIGER

@<TRIPOS>ATOM
      1  CAC      -34.9690    5.0410   35.4470 C.2   401  FLC401      0.3680
      2  CA       -34.4400    3.7060   35.9560 C.3   401  FLC401      0.1560
      3  CB       -33.0890    3.2910   35.3510 C.3   401  FLC401      0.2402
      4  CBC      -33.2540    3.2380   33.8520 C.2   401  FLC401      0.3927
      5  CG       -32.5890    1.9320   35.8370 C.3   401  FLC401      0.1560
      6  CGC      -32.2490    1.9150   37.3240 C.2   401  FLC401      0.3680
      7  OA1      -36.1130    5.0020   34.8970 O.co2 401  FLC401     -0.2455
      8  OA2      -34.3270    6.1040   35.6400 O.co2 401  FLC401     -0.2455
      9  OB1      -33.9680    2.3390   33.4120 O.co2 401  FLC401     -0.2429
     10  OB2      -32.7200    4.1310   33.1580 O.co2 401  FLC401     -0.2429
     11  OG1      -31.0560    1.9810   37.6370 O.co2 401  FLC401     -0.2455
     12  OG2      -33.1750    1.8580   38.1500 O.co2 401  FLC401     -0.2455
     13  OHB      -32.1320    4.2790   35.6470 O.3   401  FLC401     -0.2129
@<TRIPOS>BOND
     1    10     4   ar
     2     9     4   ar
     3     4     3    1
     4     7     1   ar
     5     3    13    1
     6     3     5    1
     7     3     2    1
     8     1     8   ar
     9     1     2    1
    10     5     6    1
    11     6    11   ar
    12     6    12   ar
