@<TRIPOS>MOLECULE
2ygm_FUC_A_1.pdb
 10 10 0 0 0
SMALL
GASTEIGER

@<TRIPOS>ATOM
      1  C1       -16.8840    2.0300   50.6490 C.3   1416  FUC1416     0.1776
      2  C2       -17.2370    1.3260   49.3400 C.3   1416  FUC1416     0.2141
      3  C3       -18.4470    0.4160   49.5400 C.3   1416  FUC1416     0.2172
      4  C4       -19.6160    1.2120   50.1140 C.3   1416  FUC1416     0.2116
      5  C5       -19.1660    1.8960   51.4070 C.3   1416  FUC1416     0.1483
      6  C6       -20.2800    2.7180   52.0530 C.3   1416  FUC1416     0.0349
      7  O2       -16.1430    0.5570   48.9060 O.3   1416  FUC1416    -0.2176
      8  O3       -18.8050   -0.1900   48.3210 O.3   1416  FUC1416    -0.2175
      9  O4       -20.0520    2.1750   49.1750 O.3   1416  FUC1416    -0.2177
     10  O5       -18.0230    2.7100   51.1690 O.3   1416  FUC1416    -0.3508
@<TRIPOS>BOND
     1     8     3    1
     2     7     2    1
     3     9     4    1
     4     2     3    1
     5     2     1    1
     6     3     4    1
     7     4     5    1
     8     1    10    1
     9    10     5    1
    10     5     6    1
