@<TRIPOS>MOLECULE
2ygm_GAL_A_1.pdb
 11 11 0 0 0
SMALL
GASTEIGER

@<TRIPOS>ATOM
      1  C1       -15.9550    0.8610   53.8630 C.3   1415  GAL1415     0.1777
      2  C2       -15.5710    1.6390   52.6080 C.3   1415  GAL1415     0.2141
      3  C3       -14.0600    1.6020   52.3360 C.3   1415  GAL1415     0.2173
      4  C4       -13.2150    1.6970   53.6160 C.3   1415  GAL1415     0.2142
      5  C5       -13.8200    0.8850   54.7700 C.3   1415  GAL1415     0.1810
      6  C6       -13.0540    1.0310   56.0800 C.3   1415  GAL1415     0.2141
      7  O2       -16.2850    1.0580   51.5360 O.3   1415  GAL1415    -0.2176
      8  O3       -13.7920    2.6770   51.4560 O.3   1415  GAL1415    -0.2175
      9  O4       -13.0490    3.0490   53.9890 O.3   1415  GAL1415    -0.2176
     10  O5       -15.1660    1.2630   54.9620 O.3   1415  GAL1415    -0.3481
     11  O6       -13.5500    0.0960   57.0080 O.3   1415  GAL1415    -0.2176
@<TRIPOS>BOND
     1     8     3    1
     2     7     2    1
     3     3     2    1
     4     3     4    1
     5     2     1    1
     6     4     9    1
     7     4     5    1
     8     1    10    1
     9     5    10    1
    10     5     6    1
    11     6    11    1
