@<TRIPOS>MOLECULE
2ygm_GLA_A_1.pdb
 11 11 0 0 0
SMALL
GASTEIGER

@<TRIPOS>ATOM
      1  C1       -12.5740    2.6090   50.6660 C.3   1414  GLA1414     0.1777
      2  C2       -12.6100    3.7620   49.6570 C.3   1414  GLA1414     0.2141
      3  C3       -13.5210    3.4070   48.4870 C.3   1414  GLA1414     0.2173
      4  C4       -13.0460    2.1190   47.8270 C.3   1414  GLA1414     0.2142
      5  C5       -12.9900    0.9960   48.8640 C.3   1414  GLA1414     0.1810
      6  C6       -12.4010   -0.2720   48.2490 C.3   1414  GLA1414     0.2141
      7  O2       -13.0810    4.9380   50.2730 O.3   1414  GLA1414    -0.2176
      8  O3       -13.5300    4.4580   47.5540 O.3   1414  GLA1414    -0.2175
      9  O4       -11.7730    2.3160   47.2490 O.3   1414  GLA1414    -0.2176
     10  O5       -12.2530    1.3710   50.0250 O.3   1414  GLA1414    -0.3481
     11  O6       -12.1610   -1.2350   49.2500 O.3   1414  GLA1414    -0.2176
@<TRIPOS>BOND
     1     9     4    1
     2     8     3    1
     3     4     3    1
     4     4     5    1
     5     6     5    1
     6     6    11    1
     7     3     2    1
     8     5    10    1
     9     2     7    1
    10     2     1    1
    11    10     1    1
