@<TRIPOS>MOLECULE
2ygq_FUC_A_1.pdb
 10 10 0 0 0
SMALL
GASTEIGER

@<TRIPOS>ATOM
      1  C1        27.2590  -13.4740    8.1720 C.3   1278  FUC1278     0.1776
      2  C2        28.4690  -14.3950    8.3580 C.3   1278  FUC1278     0.2141
      3  C3        28.1410  -15.7430    7.7250 C.3   1278  FUC1278     0.2172
      4  C4        27.8310  -15.5040    6.2450 C.3   1278  FUC1278     0.2116
      5  C5        26.6420  -14.5330    6.1540 C.3   1278  FUC1278     0.1483
      6  C6        26.3180  -14.2870    4.6780 C.3   1278  FUC1278     0.0349
      7  O2        28.7510  -14.5710    9.7470 O.3   1278  FUC1278    -0.2176
      8  O3        29.2480  -16.6360    7.8630 O.3   1278  FUC1278    -0.2175
      9  O4        28.9730  -14.9370    5.5980 O.3   1278  FUC1278    -0.2177
     10  O5        26.9690  -13.2800    6.7770 O.3   1278  FUC1278    -0.3508
@<TRIPOS>BOND
     1     6     5    1
     2     9     4    1
     3     5     4    1
     4     5    10    1
     5     4     3    1
     6    10     1    1
     7     3     8    1
     8     3     2    1
     9     1     2    1
    10     2     7    1
