@<TRIPOS>MOLECULE
2ygv_III_F_2.pdb
 22 22 0 0 0
SMALL
GASTEIGER

@<TRIPOS>ATOM
      1  N         14.6340   13.5580  -27.6550 N.3   178  GLN178     -0.1231
      2  CA        13.4530   13.6970  -28.5200 C.3   178  GLN178      0.1694
      3  C         12.7760   15.0880  -28.3300 C.2   178  GLN178      0.2592
      4  O         11.5700   15.2450  -28.5640 O.2   178  GLN178     -0.2718
      5  CB        12.4640   12.5350  -28.2710 C.3   178  GLN178      0.0304
      6  N         13.5860   16.1130  -27.9600 N.am  179  PHE179     -0.1962
      7  CA        13.0760   17.4410  -27.6280 C.3   179  PHE179      0.1771
      8  C         13.7760   18.5270  -28.4190 C.2   179  PHE179      0.2620
      9  O         15.0140   18.5970  -28.4000 O.2   179  PHE179     -0.2715
     10  CB        13.1940   17.6940  -26.0980 C.3   179  PHE179      0.0574
     11  CG        12.2800   16.8510  -25.2270 C.ar  179  PHE179     -0.0200
     12  CD1       12.6340   15.5510  -24.8660 C.ar  179  PHE179     -0.0042
     13  CD2       11.0620   17.3490  -24.7830 C.ar  179  PHE179     -0.0042
     14  CE1       11.7700   14.7530  -24.1050 C.ar  179  PHE179     -0.0003
     15  CE2       10.2000   16.5500  -24.0160 C.ar  179  PHE179     -0.0003
     16  CZ        10.5660   15.2610  -23.6760 C.ar  179  PHE179     -0.0000
     17  N         12.9790   19.3570  -29.1350 N.am  180  SER180     -0.1950
     18  CA        13.4310   20.4920  -29.9470 C.3   180  SER180      0.1924
     19  C         12.2570   21.4350  -30.2010 C.2   180  SER180      0.2314
     20  O         12.4150   22.5260  -30.7520 O.2   180  SER180     -0.2863
     21  CB        14.0480   20.0200  -31.2620 C.3   180  SER180      0.2116
     22  OG        13.1320   19.2640  -32.0350 O.3   180  SER180     -0.2180
@<TRIPOS>BOND
     1    22    21    1
     2    21    18    1
     3    20    19    2
     4    19    18    1
     5    18    17    1
     6    17     8   am
     7     4     3    2
     8     2     3    1
     9     2     5    1
    10     2     1    1
    11     8     9    2
    12     8     7    1
    13     3     6   am
    14     6     7    1
    15     7    10    1
    16    10    11    1
    17    11    12   ar
    18    11    13   ar
    19    12    14   ar
    20    13    15   ar
    21    14    16   ar
    22    15    16   ar
