@<TRIPOS>MOLECULE
2ygx_HEM_A_1.pdb
 43 50 0 0 0
SMALL
GASTEIGER

@<TRIPOS>ATOM
      1  CHA        1.2190   21.6050   -4.1500 C.2   450  HEM450      0.0000
      2  CHB       -2.5220   21.6520   -1.1290 C.2   450  HEM450      0.0000
      3  CHC       -1.2570   26.1220    0.2700 C.2   450  HEM450      0.0000
      4  CHD        2.3590   26.1940   -2.9210 C.2   450  HEM450      0.0000
      5  C1A        0.1460   21.2020   -3.3870 C.2   450  HEM450      0.0000
      6  C2A       -0.4280   19.8590   -3.3610 C.2   450  HEM450      0.0000
      7  C3A       -1.4570   19.8890   -2.5240 C.2   450  HEM450      0.0000
      8  C4A       -1.5590   21.2280   -1.9990 C.2   450  HEM450      0.0000
      9  CMA       -2.4140   18.7460   -2.1540 C.3   450  HEM450      0.0000
     10  CAA        0.0620   18.6490   -4.1930 C.3   450  HEM450      0.0000
     11  CBA       -0.9310   18.4310   -5.3630 C.3   450  HEM450      0.0000
     12  CGA       -0.4490   17.3400   -6.3190 C.2   450  HEM450      0.0000
     13  O1A        0.6320   16.7190   -6.0740 O.co2 450  HEM450      0.0000
     14  O2A       -1.1390   17.0730   -7.3540 O.co2 450  HEM450      0.0000
     15  C1B       -2.5680   22.8970   -0.5740 C.ar  450  HEM450      0.0000
     16  C2B       -3.5900   23.3670    0.3240 C.ar  450  HEM450      0.0000
     17  C3B       -3.2360   24.5910    0.6860 C.ar  450  HEM450      0.0000
     18  C4B       -1.9580   24.9350    0.0760 C.ar  450  HEM450      0.0000
     19  CMB       -4.8640   22.6030    0.7550 C.3   450  HEM450      0.0000
     20  CAB       -3.9650   25.5490    1.6200 C.2   450  HEM450      0.0000
     21  CBB       -4.7800   25.1970    2.6010 C.2   450  HEM450      0.0000
     22  C1C       -0.1440   26.5380   -0.4350 C.2   450  HEM450      0.0000
     23  C2C        0.5550   27.7880   -0.2830 C.2   450  HEM450      0.0000
     24  C3C        1.5470   27.8020   -1.2030 C.2   450  HEM450      0.0000
     25  C4C        1.5060   26.5660   -1.9160 C.2   450  HEM450      0.0000
     26  CMC        0.1500   28.8650    0.7630 C.3   450  HEM450      0.0000
     27  CAC        2.6190   28.8780   -1.5200 C.2   450  HEM450      0.0000
     28  CBC        3.1660   29.6540   -0.5720 C.2   450  HEM450      0.0000
     29  C1D        2.3410   24.9880   -3.5930 C.ar  450  HEM450      0.0000
     30  C2D        3.1650   24.6790   -4.7240 C.ar  450  HEM450      0.0000
     31  C3D        2.8090   23.2510   -5.1200 C.ar  450  HEM450      0.0000
     32  C4D        1.7970   22.8520   -4.1760 C.ar  450  HEM450      0.0000
     33  CMD        4.2120   25.5920   -5.3980 C.3   450  HEM450      0.0000
     34  CAD        3.4340   22.4240   -6.2570 C.3   450  HEM450      0.0000
     35  CBD        4.7030   21.7950   -5.6930 C.3   450  HEM450      0.0000
     36  CGD        5.4080   20.8370   -6.6550 C.2   450  HEM450      0.0000
     37  O1D        4.7930   20.4710   -7.6820 O.co2 450  HEM450      0.0000
     38  O2D        6.6150   20.4350   -6.4320 O.co2 450  HEM450      0.0000
     39  NA        -0.5580   21.9990   -2.5230 N.2   450  HEM450      0.0000
     40  NB        -1.5760   23.8660   -0.7160 N.ar  450  HEM450      0.0000
     41  NC         0.4550   25.8280   -1.4450 N.2   450  HEM450      0.0000
     42  ND         1.5490   23.8990   -3.2820 N.ar  450  HEM450      0.0000
     43 FE         -0.0250   23.8750   -1.9480 Fe    450  HEM450      0.0000
@<TRIPOS>BOND
     1    37    36   ar
     2    14    12   ar
     3    36    38   ar
     4    36    35    1
     5    12    13   ar
     6    12    11    1
     7    34    35    1
     8    34    31    1
     9    33    30    1
    10    11    10    1
    11    31    30   ar
    12    31    32   ar
    13    30    29   ar
    14    10     6    1
    15    32     1    2
    16    32    42   ar
    17     1     5    1
    18    29    42   ar
    19    29     4    2
    20     5     6    1
    21     5    39    2
    22     6     7    2
    23    42    43    1
    24     4    25    1
    25     7     9    1
    26     7     8    1
    27    39     8    1
    28    39    43    1
    29     8     2    2
    30    43    41    1
    31    43    40    1
    32    25    41    2
    33    25    24    1
    34    27    24    1
    35    27    28    2
    36    41    22    1
    37    24    23    2
    38     2    15    1
    39    40    15   ar
    40    40    18   ar
    41    15    16   ar
    42    22    23    1
    43    22     3    2
    44    23    26    1
    45    18     3    1
    46    18    17   ar
    47    16    17   ar
    48    16    19    1
    49    17    20    1
    50    20    21    2
