@<TRIPOS>MOLECULE
2yhd_AV6_A_1.pdb
 21 24 0 0 0
SMALL
GASTEIGER

@<TRIPOS>ATOM
      1  C1        36.2180    7.8790   18.3740 C.3   1921  AV61921     0.1250
      2  C2        36.7990    9.0900   18.9480 C.2   1921  AV61921     0.1315
      3  C3        37.8270    9.7420   18.3180 C.2   1921  AV61921     0.0292
      4  C4        38.3090    9.2370   17.1260 C.2   1921  AV61921     0.0017
      5  C5        37.8020    8.0890   16.5360 C.2   1921  AV61921    -0.0073
      6  C6        36.7570    7.3820   17.0950 C.2   1921  AV61921    -0.0269
      7  C7        36.2160    6.2530   16.5130 C.3   1921  AV61921     0.0489
      8  C8        35.1810    5.6340   17.1940 C.2   1921  AV61921    -0.0194
      9  C9        34.6390    6.0660   18.4070 C.2   1921  AV61921     0.0250
     10  C10       35.1240    7.1750   19.0490 C.2   1921  AV61921     0.1312
     11  N11       34.6580    7.6400   20.2060 N.2   1921  AV61921    -0.3436
     12  C12       35.2290    8.8680   20.7600 C.1   1921  AV61921     0.1373
     13  N13       36.3210    9.5460   20.0800 N.2   1921  AV61921    -0.3436
     14  C15       35.1250    9.2720   22.1570 C.ar  1921  AV61921     0.0890
     15  C16       36.0870   10.1510   22.6860 C.ar  1921  AV61921     0.0574
     16  C17       36.0150   10.5610   24.0110 C.ar  1921  AV61921     0.2350
     17  C18       34.8950   10.0450   24.8040 C.ar  1921  AV61921     0.2343
     18  C19       33.9740    9.2000   24.2240 C.ar  1921  AV61921     0.0461
     19  C20       34.0800    8.8340   22.9060 C.ar  1921  AV61921     0.0155
     20  O21       34.7290   10.3930   26.0940 O.3   1921  AV61921    -0.2831
     21  O22       36.9390   11.3910   24.5560 O.3   1921  AV61921    -0.2831
@<TRIPOS>BOND
     1     7     6    1
     2     7     8    1
     3     5     6    2
     4     5     4    1
     5     6     1    1
     6     4     3    2
     7     8     9    2
     8     3     2    1
     9     1     2    1
    10     1    10    1
    11     9    10    1
    12     2    13    2
    13    10    11    2
    14    13    12    2
    15    11    12    2
    16    12    14    1
    17    14    15   ar
    18    14    19   ar
    19    15    16   ar
    20    19    18   ar
    21    16    21    1
    22    16    17   ar
    23    18    17   ar
    24    17    20    1
