@<TRIPOS>MOLECULE
2yhd_TES_A_1.pdb
 21 24 0 0 0
SMALL
GASTEIGER

@<TRIPOS>ATOM
      1  C1        27.7980    4.7710    5.1810 C.3   1920  TES1920     0.0118
      2  C2        27.0970    6.0710    5.5830 C.3   1920  TES1920     0.0694
      3  C3        25.6790    5.9600    5.1340 C.2   1920  TES1920     0.1725
      4  O3        25.0560    6.9660    4.7530 O.2   1920  TES1920    -0.2914
      5  C4        25.0520    4.6110    5.1590 C.2   1920  TES1920     0.0289
      6  C5        25.7140    3.4480    5.4010 C.2   1920  TES1920    -0.0420
      7  C6        24.9290    2.1300    5.2400 C.3   1920  TES1920     0.0221
      8  C7        25.7690    0.9500    4.6910 C.3   1920  TES1920     0.0044
      9  C8        27.1750    0.8940    5.2340 C.3   1920  TES1920     0.0007
     10  C9        27.8900    2.2610    5.1190 C.3   1920  TES1920     0.0035
     11  C10       27.1760    3.4800    5.7710 C.3   1920  TES1920     0.0157
     12  C11       29.3770    2.2230    5.5130 C.3   1920  TES1920     0.0004
     13  C12       30.1740    1.0180    4.9290 C.3   1920  TES1920     0.0025
     14  C13       29.3690   -0.2880    5.0280 C.3   1920  TES1920     0.0282
     15  C14       28.0110   -0.1130    4.4240 C.3   1920  TES1920     0.0025
     16  C15       27.4870   -1.5520    4.1720 C.3   1920  TES1920     0.0027
     17  C16       28.7380   -2.4000    3.9330 C.3   1920  TES1920     0.0329
     18  C17       29.8590   -1.3990    4.1120 C.3   1920  TES1920     0.1519
     19  O17       31.0500   -1.9860    4.5760 O.3   1920  TES1920    -0.2232
     20  C18       29.2160   -0.6590    6.5200 C.3   1920  TES1920     0.0025
     21  C19       27.4060    3.5110    7.3030 C.3   1920  TES1920     0.0041
@<TRIPOS>BOND
     1    17    18    1
     2    17    16    1
     3    18    19    1
     4    18    14    1
     5    16    15    1
     6    15    14    1
     7    15     9    1
     8     8     9    1
     9     8     7    1
    10     4     3    2
    11    13    14    1
    12    13    12    1
    13    14    20    1
    14    10     9    1
    15    10    12    1
    16    10    11    1
    17     3     5    1
    18     3     2    1
    19     5     6    2
    20     1     2    1
    21     1    11    1
    22     7     6    1
    23     6    11    1
    24    11    21    1
