@<TRIPOS>MOLECULE
2yhh_MAN_A_1.pdb
 23 23 0 0 0
SMALL
GASTEIGER

@<TRIPOS>ATOM
      1  C1       -45.5290   12.1270  206.9690 C.3   1109  MAN1109     0.1887
      2  C2       -44.2780   12.7230  207.6630 C.3   1109  MAN1109     0.1721
      3  C3       -42.9890   12.2880  206.9170 C.3   1109  MAN1109     0.1174
      4  C4       -42.8740   10.7510  206.7470 C.3   1109  MAN1109     0.1120
      5  C5       -44.1430   10.1860  206.0700 C.3   1109  MAN1109     0.1130
      6  C6       -44.2350    8.6620  206.1110 C.3   1109  MAN1109     0.0730
      7  O1       -45.7930   12.8160  205.7480 O.3   1109  MAN1109    -0.3648
      8  O2       -44.1840   12.2790  209.0510 O.3   1109  MAN1109    -0.2231
      9  O3       -41.8450   12.7740  207.6440 O.3   1109  MAN1109    -0.3863
     10  O4       -41.7250   10.4370  205.9420 O.3   1109  MAN1109    -0.3865
     11  O5       -45.3320   10.7080  206.7230 O.3   1109  MAN1109    -0.3406
     12  O6       -43.0650    8.0550  205.5630 O.3   1109  MAN1109    -0.3924
     13  H1       -46.3900   12.2410  207.6120 H     1109  MAN1109     0.0937
     14  H2       -44.3420   13.8040  207.6530 H     1109  MAN1109     0.0706
     15  H3       -42.9830   12.7500  205.9370 H     1109  MAN1109     0.0649
     16  H4       -42.7440   10.2950  207.7220 H     1109  MAN1109     0.0647
     17  H5       -44.1670   10.5130  205.0410 H     1109  MAN1109     0.0647
     18  H61      -45.1070    8.3520  205.5540 H     1109  MAN1109     0.0584
     19  H62      -44.3670    8.3490  207.1360 H     1109  MAN1109     0.0584
     20  HO1      -46.5660   12.2950  205.2020 H     1109  MAN1109     0.2126
     21  HO3      -41.0740   12.8110  207.0660 H     1109  MAN1109     0.2100
     22  HO4      -40.9210   10.5180  206.4660 H     1109  MAN1109     0.2100
     23  HO6      -43.1310    7.1020  205.6530 H     1109  MAN1109     0.2095
@<TRIPOS>BOND
     1    17     5    1
     2    20     7    1
     3    18     6    1
     4    12    23    1
     5    12     6    1
     6     7     1    1
     7    15     3    1
     8    10    22    1
     9    10     4    1
    10     5     6    1
    11     5    11    1
    12     5     4    1
    13     6    19    1
    14    11     1    1
    15     4     3    1
    16     4    16    1
    17     3     9    1
    18     3     2    1
    19     1    13    1
    20     1     2    1
    21    21     9    1
    22    14     2    1
    23     2     8    1
