@<TRIPOS>MOLECULE
2yhi_NAP_A_1.pdb
 48 52 0 0 0
SMALL
GASTEIGER

@<TRIPOS>ATOM
      1  PA        24.4780   10.7520   10.5690 P.3   1269  NAP1269     0.2189
      2  O1A       23.9710   11.6310    9.4940 O.2   1269  NAP1269    -0.5170
      3  O2A       24.9520   11.3480   11.8380 O.3   1269  NAP1269    -0.4371
      4  O5B       23.4010    9.6230   10.9020 O.3   1269  NAP1269    -0.3112
      5  C5B       22.8580    8.8050    9.8630 C.3   1269  NAP1269     0.1813
      6  C4B       21.4350    8.3830   10.2090 C.3   1269  NAP1269     0.1820
      7  O4B       21.4050    7.7710   11.4930 O.3   1269  NAP1269    -0.3136
      8  C3B       20.5370    9.5940   10.4470 C.3   1269  NAP1269     0.2157
      9  O3B       20.1590   10.1630    9.1930 O.3   1269  NAP1269    -0.2175
     10  C2B       19.3630    8.9310   11.1850 C.3   1269  NAP1269     0.2314
     11  O2B       18.2790    8.6060   10.3030 O.3   1269  NAP1269    -0.2630
     12  C1B       20.0120    7.6240   11.7400 C.3   1269  NAP1269     0.3158
     13  N9A       19.6120    7.5810   13.1530 N.pl3 1269  NAP1269    -0.1439
     14  C8A       19.9580    8.4320   14.1200 C.3   1269  NAP1269     0.3377
     15  N7A       19.3470    8.0770   15.2510 N.2   1269  NAP1269    -0.2095
     16  C5A       18.6010    7.0030   14.9970 C.2   1269  NAP1269     0.2526
     17  C6A       17.7610    6.2030   15.7630 C.2   1269  NAP1269     0.4393
     18  N6A       17.5580    6.4530   17.0650 N.pl3 1269  NAP1269     0.2180
     19  N1A       17.1560    5.1600   15.1710 N.2   1269  NAP1269     0.0021
     20  C2A       17.3390    4.8830   13.8840 C.3   1269  NAP1269     0.5254
     21  N3A       18.1360    5.6280   13.1290 N.2   1269  NAP1269    -0.0055
     22  C4A       18.7740    6.6870   13.6630 C.2   1269  NAP1269     0.3518
     23  O3        25.6240    9.7910    9.9700 O.3   1269  NAP1269    -0.2703
     24  PN        26.7160   10.2330    8.8670 P.3   1269  NAP1269     0.2189
     25  O1N       26.0840   10.1300    7.5310 O.2   1269  NAP1269    -0.5170
     26  O2N       27.3210   11.5050    9.3050 O.3   1269  NAP1269    -0.4371
     27  O5D       27.8000    9.0470    9.0390 O.3   1269  NAP1269    -0.3112
     28  C5D       27.4430    7.7040    8.7000 C.3   1269  NAP1269     0.1813
     29  C4D       28.2110    6.7160    9.5820 C.3   1269  NAP1269     0.1799
     30  O4D       29.6170    7.0720    9.5410 O.3   1269  NAP1269    -0.3327
     31  C3D       27.7780    6.8230   11.0490 C.3   1269  NAP1269     0.2158
     32  O3D       27.7770    5.5070   11.6100 O.3   1269  NAP1269    -0.2175
     33  C2D       28.8600    7.6670   11.6830 C.3   1269  NAP1269     0.2309
     34  O2D       29.0010    7.3740   13.0840 O.3   1269  NAP1269    -0.2158
     35  C1D       30.0910    7.2180   10.8970 C.3   1269  NAP1269     0.2263
     36  N1N       31.0700    8.3160   10.9020 N.pl3 1269  NAP1269    -0.2787
     37  C2N       30.8120    9.4950   10.1740 C.3   1269  NAP1269     0.1244
     38  C3N       31.7450   10.5220   10.1810 C.2   1269  NAP1269     0.0544
     39  C7N       31.4890   11.8170    9.4000 C.2   1269  NAP1269     0.2818
     40  O7N       32.4670   12.7350    9.2580 O.2   1269  NAP1269    -0.2670
     41  N7N       30.2640   12.0100    8.9000 N.am  1269  NAP1269    -0.0839
     42  C4N       32.9290   10.3860   10.9070 C.2   1269  NAP1269     0.0033
     43  C5N       33.1900    9.2210   11.6290 C.2   1269  NAP1269     0.0157
     44  C6N       32.2620    8.1880   11.6280 C.2   1269  NAP1269     0.0633
     45  P2B       17.0060    9.6140    9.9670 P.3   1269  NAP1269     0.5328
     46  O1X       17.6430   10.9870    9.4260 O.3   1269  NAP1269    -0.1145
     47  O2X       16.2870    9.9920   11.3640 O.3   1269  NAP1269    -0.1145
     48  O3X       16.0610    9.0070    9.0030 O.2   1269  NAP1269    -0.2224
@<TRIPOS>BOND
     1    25    24    2
     2    28    27    1
     3    28    29    1
     4    24    27    1
     5    24    26    1
     6    24    23    1
     7    41    39   am
     8    48    45    2
     9     9     8    1
    10    40    39    2
    11    39    38    1
    12    46    45    1
    13     2     1    2
    14    30    29    1
    15    30    35    1
    16    29    31    1
    17     5     6    1
    18     5     4    1
    19    45    11    1
    20    45    47    1
    21    23     1    1
    22    37    38    1
    23    37    36    1
    24    38    42    2
    25     6     8    1
    26     6     7    1
    27    11    10    1
    28     8    10    1
    29     1     4    1
    30     1     3    1
    31    35    36    1
    32    35    33    1
    33    36    44    1
    34    42    43    1
    35    31    32    1
    36    31    33    1
    37    10    12    1
    38     7    12    1
    39    44    43    2
    40    33    34    1
    41    12    13    1
    42    21    22    2
    43    21    20    1
    44    13    22    1
    45    13    14    1
    46    22    16    1
    47    20    19    1
    48    14    15    1
    49    16    15    2
    50    16    17    1
    51    19    17    2
    52    17    18    1
