@<TRIPOS>MOLECULE
2yhk_PLP_A_1.pdb
 15 15 0 0 0
SMALL
GASTEIGER

@<TRIPOS>ATOM
      1  N1        37.2780   61.0700    2.7550 N.2   1257  PLP1257    -0.2458
      2  C2        37.9760   59.8750    2.6920 C.2   1257  PLP1257     0.0942
      3  C2A       37.4390   58.7710    1.7940 C.3   1257  PLP1257     0.0552
      4  C3        39.1560   59.7190    3.4460 C.2   1257  PLP1257     0.1899
      5  O3        39.7790   58.6520    3.3530 O.2   1257  PLP1257    -0.2898
      6  C4        39.6190   60.7860    4.2760 C.3   1257  PLP1257     0.0852
      7  C4A       40.8970   60.7040    5.0900 C.3   1257  PLP1257     0.0127
      8  C5        38.8840   61.9870    4.3100 C.2   1257  PLP1257     0.0118
      9  C6        37.7190   62.1200    3.5540 C.2   1257  PLP1257     0.0929
     10  C5A       39.3270   63.1620    5.1550 C.3   1257  PLP1257     0.1779
     11  O4P       40.6140   63.7100    4.7730 O.3   1257  PLP1257    -0.2656
     12  P         41.5470   64.4050    5.8730 P.3   1257  PLP1257     0.5329
     13  O1P       42.7920   64.7680    5.1570 O.2   1257  PLP1257    -0.2224
     14  O2P       41.6980   63.4530    7.0050 O.3   1257  PLP1257    -0.1145
     15  O3P       40.7360   65.5640    6.3140 O.3   1257  PLP1257    -0.1145
@<TRIPOS>BOND
     1     3     2    1
     2     2     1    2
     3     2     4    1
     4     1     9    1
     5     5     4    2
     6     4     6    1
     7     9     8    2
     8     6     8    1
     9     6     7    1
    10     8    10    1
    11    11    10    1
    12    11    12    1
    13    13    12    2
    14    12    15    1
    15    12    14    1
