@<TRIPOS>MOLECULE
2yhu_NDP_A_1.pdb
 48 52 0 0 0
SMALL
GASTEIGER

@<TRIPOS>ATOM
      1  PA        13.6730  -12.6260   11.8430 P.3   301  NDP301      0.2189
      2  O1A       14.1710  -13.5490   10.7870 O.2   301  NDP301     -0.5170
      3  O2A       13.1890  -13.1860   13.1080 O.3   301  NDP301     -0.4371
      4  O5B       14.7930  -11.5300   12.1670 O.3   301  NDP301     -0.3112
      5  C5B       15.3340  -10.7820   11.0770 C.3   301  NDP301      0.1813
      6  C4B       16.7420  -10.2920   11.3730 C.3   301  NDP301      0.1820
      7  O4B       16.6920   -9.5600   12.6000 O.3   301  NDP301     -0.3136
      8  C3B       17.6800  -11.4270   11.7460 C.3   301  NDP301      0.2157
      9  O3B       18.1580  -12.0550   10.5500 O.3   301  NDP301     -0.2175
     10  C2B       18.7870  -10.6510   12.5050 C.3   301  NDP301      0.2314
     11  O2B       19.9260  -10.3310   11.6710 O.3   301  NDP301     -0.2630
     12  C1B       18.0720   -9.3220   12.9080 C.3   301  NDP301      0.3158
     13  N9A       18.4900   -9.0890   14.3360 N.pl3 301  NDP301     -0.1439
     14  C8A       18.1600   -9.8200   15.4090 C.3   301  NDP301      0.3377
     15  N7A       18.8030   -9.3340   16.4760 N.2   301  NDP301     -0.2095
     16  C5A       19.5570   -8.3140   16.0800 C.2   301  NDP301      0.2526
     17  C6A       20.4300   -7.4420   16.7250 C.2   301  NDP301      0.4393
     18  N6A       20.6310   -7.5370   18.0360 N.pl3 301  NDP301      0.2180
     19  N1A       21.0460   -6.4790   16.0020 N.2   301  NDP301      0.0021
     20  C2A       20.8350   -6.3660   14.6920 C.3   301  NDP301      0.5254
     21  N3A       20.0200   -7.1950   14.0500 N.2   301  NDP301     -0.0055
     22  C4A       19.3670   -8.1680   14.7150 C.2   301  NDP301      0.3518
     23  O3        12.5630  -11.6660   11.2020 O.3   301  NDP301     -0.2703
     24  PN        11.4600  -12.1880   10.1800 P.3   301  NDP301      0.2189
     25  O1N       10.8360  -13.4220   10.7110 O.3   301  NDP301     -0.4371
     26  O2N       12.0610  -12.2060    8.8300 O.2   301  NDP301     -0.5170
     27  O5D       10.3750  -11.0130   10.2610 O.3   301  NDP301     -0.3112
     28  C5D       10.6180   -9.6900    9.7260 C.3   301  NDP301      0.1813
     29  C4D        9.8460   -8.6010   10.5070 C.3   301  NDP301      0.1799
     30  O4D        8.4220   -8.8900   10.4920 O.3   301  NDP301     -0.3327
     31  C3D       10.3060   -8.5550   11.9770 C.3   301  NDP301      0.2158
     32  O3D       10.2720   -7.2080   12.4910 O.3   301  NDP301     -0.2175
     33  C2D        9.2400   -9.3830   12.6510 C.3   301  NDP301      0.2309
     34  O2D        9.1540   -9.0480   14.0400 O.3   301  NDP301     -0.2158
     35  C1D        7.9770   -8.9940   11.8490 C.3   301  NDP301      0.2263
     36  N1N        7.0430  -10.1260   11.9980 N.pl3 301  NDP301     -0.2787
     37  C2N        7.3530  -11.4140   11.4980 C.3   301  NDP301      0.1244
     38  C3N        6.4410  -12.4550   11.6890 C.2   301  NDP301      0.0544
     39  C7N        6.7470  -13.8600   11.1610 C.2   301  NDP301      0.2818
     40  O7N        5.8750  -14.7350   11.1690 O.2   301  NDP301     -0.2670
     41  N7N        8.0070  -14.0510   10.7420 N.am  301  NDP301     -0.0839
     42  C4N        5.2380  -12.2310   12.3620 C.2   301  NDP301      0.0033
     43  C5N        4.9340  -10.9690   12.8600 C.2   301  NDP301      0.0157
     44  C6N        5.8310   -9.9160   12.6840 C.2   301  NDP301      0.0633
     45  P2B       21.1820  -11.3640   11.3680 P.3   301  NDP301      0.5328
     46  O1X       22.0780  -10.4660   10.3320 O.2   301  NDP301     -0.2224
     47  O2X       21.9930  -11.5180   12.7110 O.3   301  NDP301     -0.1145
     48  O3X       20.6600  -12.6350   10.8350 O.3   301  NDP301     -0.1145
@<TRIPOS>BOND
     1    26    24    2
     2    28    27    1
     3    28    29    1
     4    24    27    1
     5    24    25    1
     6    24    23    1
     7    46    45    2
     8    30    29    1
     9    30    35    1
    10    29    31    1
    11     9     8    1
    12    41    39   am
    13     2     1    2
    14    48    45    1
    15     5     6    1
    16     5     4    1
    17    39    40    2
    18    39    38    1
    19    23     1    1
    20    45    11    1
    21    45    47    1
    22     6     8    1
    23     6     7    1
    24    37    38    1
    25    37    36    1
    26    11    10    1
    27    38    42    2
    28     8    10    1
    29     1     4    1
    30     1     3    1
    31    35    36    1
    32    35    33    1
    33    31    32    1
    34    31    33    1
    35    36    44    1
    36    42    43    1
    37    10    12    1
    38     7    12    1
    39    33    34    1
    40    44    43    2
    41    12    13    1
    42    21    20    1
    43    21    22    2
    44    13    22    1
    45    13    14    1
    46    20    19    1
    47    22    16    1
    48    14    15    1
    49    19    17    2
    50    16    15    2
    51    16    17    1
    52    17    18    1
