@<TRIPOS>MOLECULE
2yhu_WHF_A_1.pdb
 15 16 0 0 0
SMALL
GASTEIGER

@<TRIPOS>ATOM
      1  CAE        3.4600  -15.3810   15.6030 C.ar  302  WHF302      0.0099
      2  CAC        2.2030  -15.7030   15.9770 C.ar  302  WHF302      0.0076
      3  CAD        1.9390  -17.0210   15.9830 C.ar  302  WHF302      0.0355
      4  SAJ        3.3520  -17.8350   15.5030 S.2   302  WHF302     -0.0836
      5  CAO        4.2230  -16.4440   15.3060 C.ar  302  WHF302      0.0641
      6  CAL        5.6680  -16.4180   14.8500 C.2   302  WHF302      0.1794
      7  OAB        6.2770  -17.4760   14.6960 O.2   302  WHF302     -0.2908
      8  CAF        6.3240  -15.0710   14.5680 C.3   302  WHF302      0.0766
      9  CAG        7.7530  -15.2480   14.0720 C.3   302  WHF302      0.0627
     10  CAN        8.5290  -13.9660   14.3160 C.ar  302  WHF302      0.1129
     11  SAK       10.1970  -13.8030   14.0020 S.2   302  WHF302     -0.0317
     12  NAI        8.0640  -12.8060   14.8090 N.ar  302  WHF302     -0.1439
     13  NAH        8.9000  -11.8910   14.9290 N.ar  302  WHF302     -0.1225
     14  CAM       10.1560  -12.1790   14.5520 C.ar  302  WHF302      0.2219
     15  NAA       11.1770  -11.3130   14.6180 N.pl3 302  WHF302     -0.0979
@<TRIPOS>BOND
     1    11    10   ar
     2    11    14   ar
     3     9    10    1
     4     9     8    1
     5    10    12   ar
     6    14    15    1
     7    14    13   ar
     8     8     6    1
     9     7     6    2
    10    12    13   ar
    11     6     5    1
    12     5     4   ar
    13     5     1   ar
    14     4     3   ar
    15     1     2   ar
    16     2     3   ar
