@<TRIPOS>MOLECULE
2yhw_BM3_A_1.pdb
 15 15 0 0 0
SMALL
GASTEIGER

@<TRIPOS>ATOM
      1  C1       -11.4390   31.2200   17.2280 C.3   1718  BM31718     0.2917
      2  O1       -12.4770   30.6520   17.9500 O.3   1718  BM31718    -0.1879
      3  C2       -10.8320   30.1610   16.2990 C.3   1718  BM31718     0.1871
      4  N2        -9.9050   30.8430   15.3430 N.am  1718  BM31718    -0.1991
      5  C7        -9.8920   30.6190   14.0410 C.2   1718  BM31718     0.2421
      6  O7       -10.5960   29.7670   13.4720 O.2   1718  BM31718    -0.2733
      7  C8        -8.9660   31.5630   13.2470 C.3   1718  BM31718     0.0964
      8  C3       -10.1930   29.0690   17.1090 C.3   1718  BM31718     0.2095
      9  O3        -9.5510   28.0780   16.2570 O.3   1718  BM31718    -0.2183
     10  C4        -9.1920   29.6340   18.0690 C.3   1718  BM31718     0.2136
     11  O4        -8.6570   28.5870   18.9070 O.3   1718  BM31718    -0.2176
     12  C5        -9.8020   30.7030   18.9370 C.3   1718  BM31718     0.1835
     13  C6        -8.8850   31.4500   19.8470 C.3   1718  BM31718     0.2142
     14  O6        -7.8260   32.1090   19.1850 O.3   1718  BM31718    -0.2176
     15  O5       -10.4080   31.7220   18.1000 O.3   1718  BM31718    -0.3242
@<TRIPOS>BOND
     1     7     5    1
     2     6     5    2
     3     5     4   am
     4     4     3    1
     5     9     8    1
     6     3     8    1
     7     3     1    1
     8     8    10    1
     9     1     2    1
    10     1    15    1
    11    10    11    1
    12    10    12    1
    13    15    12    1
    14    12    13    1
    15    14    13    1
