@<TRIPOS>MOLECULE
2yhx_OTG_A_1.pdb
 21 22 0 0 0
SMALL
GASTEIGER

@<TRIPOS>ATOM
      1  C1        61.9960  -15.7710    5.4370 C.3     1  OTG1        0.2917
      2  O1        62.2080  -14.4830    6.0210 O.3     1  OTG1       -0.1879
      3  C2        63.2580  -16.6320    5.6240 C.3     1  OTG1        0.1874
      4  N2        63.5480  -16.7710    7.0620 N.am    1  OTG1       -0.1954
      5  C3        64.4520  -15.9560    4.9230 C.3     1  OTG1        0.2095
      6  O3        65.5780  -16.8420    4.9390 O.3     1  OTG1       -0.2183
      7  C4        64.0790  -15.6290    3.4660 C.3     1  OTG1        0.2136
      8  O4        65.1160  -14.8460    2.8720 O.3     1  OTG1       -0.2176
      9  C5        62.7570  -14.8400    3.4370 C.3     1  OTG1        0.1835
     10  O5        61.7220  -15.6210    4.0420 O.3     1  OTG1       -0.3242
     11  C6        62.3780  -14.5190    1.9810 C.3     1  OTG1        0.2142
     12  O6        62.1730  -15.7380    1.2590 O.3     1  OTG1       -0.2176
     13  C1'       63.8040  -18.4400   10.0900 C.ar    1  OTG1       -0.0174
     14  C2'       64.3770  -18.2740    8.8240 C.ar    1  OTG1        0.0511
     15  C3'       65.7590  -18.1130    8.7080 C.ar    1  OTG1        0.0042
     16  C4'       66.5130  -17.7840    9.8400 C.ar    1  OTG1        0.0001
     17  C5'       65.9120  -17.8330   11.1030 C.ar    1  OTG1       -0.0003
     18  C6'       64.6150  -18.3400   11.2270 C.ar    1  OTG1       -0.0041
     19  C7'       62.2810  -18.3700   10.2430 C.3     1  OTG1        0.0312
     20  C8'       63.4830  -17.9620    7.6350 C.2     1  OTG1        0.2647
     21  O8'       62.8840  -18.8800    7.0690 O.2     1  OTG1       -0.2684
@<TRIPOS>BOND
     1    12    11    1
     2    11     9    1
     3     8     7    1
     4     9     7    1
     5     9    10    1
     6     7     5    1
     7    10     1    1
     8     5     6    1
     9     5     3    1
    10     1     3    1
    11     1     2    1
    12     3     4    1
    13     4    20   am
    14    21    20    2
    15    20    14    1
    16    15    14   ar
    17    15    16   ar
    18    14    13   ar
    19    16    17   ar
    20    13    19    1
    21    13    18   ar
    22    17    18   ar
