@<TRIPOS>MOLECULE
2yhy_ADP_A_1.pdb
 27 29 0 0 0
SMALL
GASTEIGER

@<TRIPOS>ATOM
      1  PB        -4.7880   36.9250   20.5000 P.3   1727  ADP1727     0.5373
      2  O1B       -4.1940   35.5550   20.8530 O.3   1727  ADP1727    -0.1143
      3  O2B       -4.0520   37.7600   19.4450 O.2   1727  ADP1727    -0.2221
      4  O3B       -6.2640   36.7270   20.3120 O.3   1727  ADP1727    -0.1143
      5  PA        -4.0670   38.3940   22.8920 P.3   1727  ADP1727     0.2231
      6  O1A       -4.0910   37.3500   24.0010 O.3   1727  ADP1727    -0.4370
      7  O2A       -2.8000   39.1490   22.4960 O.2   1727  ADP1727    -0.5169
      8  O3A       -5.0000   37.9190   21.7210 O.3   1727  ADP1727    -0.2261
      9  O5'       -5.1690   39.5270   23.3450 O.3   1727  ADP1727    -0.3111
     10  C5'       -5.7840   40.5160   22.4870 C.3   1727  ADP1727     0.1813
     11  C4'       -7.2790   40.5880   22.8160 C.3   1727  ADP1727     0.1821
     12  O4'       -7.3600   40.5290   24.2250 O.3   1727  ADP1727    -0.3135
     13  C3'       -8.0850   41.8350   22.4390 C.3   1727  ADP1727     0.2184
     14  O3'       -9.4790   41.5370   22.5490 O.3   1727  ADP1727    -0.2174
     15  C2'       -7.8010   42.8370   23.5380 C.3   1727  ADP1727     0.2570
     16  O2'       -8.8510   43.7620   23.8780 O.3   1727  ADP1727    -0.2130
     17  C1'       -7.6530   41.8470   24.6830 C.3   1727  ADP1727     0.3186
     18  N9        -6.5520   42.2860   25.5250 N.pl3 1727  ADP1727    -0.1439
     19  C8        -5.3460   42.7860   25.1800 C.3   1727  ADP1727     0.3377
     20  N7        -4.6450   43.0490   26.3110 N.2   1727  ADP1727    -0.2095
     21  C5        -5.4200   42.7120   27.3630 C.2   1727  ADP1727     0.2526
     22  C6        -5.3180   42.7250   28.8350 C.2   1727  ADP1727     0.4393
     23  N6        -4.1990   43.1810   29.4460 N.pl3 1727  ADP1727     0.2180
     24  N1        -6.3940   42.2650   29.5410 N.2   1727  ADP1727     0.0021
     25  C2        -7.5390   41.8140   28.9590 C.3   1727  ADP1727     0.5254
     26  N3        -7.6970   41.7840   27.6250 N.2   1727  ADP1727    -0.0055
     27  C4        -6.6860   42.2100   26.8250 C.2   1727  ADP1727     0.3518
@<TRIPOS>BOND
     1     3     1    2
     2     4     1    1
     3     1     2    1
     4     1     8    1
     5     8     5    1
     6    13    14    1
     7    13    11    1
     8    13    15    1
     9    10    11    1
    10    10     9    1
    11     7     5    2
    12    11    12    1
    13     5     9    1
    14     5     6    1
    15    15    16    1
    16    15    17    1
    17    12    17    1
    18    17    18    1
    19    19    18    1
    20    19    20    1
    21    18    27    1
    22    20    21    2
    23    27    21    1
    24    27    26    2
    25    21    22    1
    26    26    25    1
    27    22    23    1
    28    22    24    2
    29    25    24    1
