@<TRIPOS>MOLECULE
2yhy_BM3_A_1.pdb
 15 15 0 0 0
SMALL
GASTEIGER

@<TRIPOS>ATOM
      1  C1       -11.2590   30.9810   17.2800 C.3   1000  BM31000     0.2917
      2  O1       -12.3060   30.4620   18.0610 O.3   1000  BM31000    -0.1879
      3  C2       -10.6400   29.9510   16.3990 C.3   1000  BM31000     0.1871
      4  N2        -9.7360   30.6600   15.4690 N.am  1000  BM31000    -0.1991
      5  C7        -9.7350   30.5080   14.1000 C.2   1000  BM31000     0.2421
      6  O7       -10.4080   29.6140   13.5110 O.2   1000  BM31000    -0.2733
      7  C8        -8.7430   31.4540   13.4030 C.3   1000  BM31000     0.0964
      8  C3        -9.9750   28.9240   17.2250 C.3   1000  BM31000     0.2095
      9  O3        -9.3980   27.9910   16.3220 O.3   1000  BM31000    -0.2183
     10  C4        -9.0070   29.5240   18.1660 C.3   1000  BM31000     0.2136
     11  O4        -8.4230   28.4830   18.9810 O.3   1000  BM31000    -0.2176
     12  C5        -9.6070   30.6120   19.0190 C.3   1000  BM31000     0.1835
     13  C6        -8.6450   31.3310   19.9440 C.3   1000  BM31000     0.2142
     14  O6        -7.6520   31.9840   19.1760 O.3   1000  BM31000    -0.2176
     15  O5       -10.2560   31.5520   18.1420 O.3   1000  BM31000    -0.3242
@<TRIPOS>BOND
     1     7     5    1
     2     6     5    2
     3     5     4   am
     4     4     3    1
     5     9     8    1
     6     3     8    1
     7     3     1    1
     8     8    10    1
     9     1     2    1
    10     1    15    1
    11    15    12    1
    12    10    11    1
    13    10    12    1
    14    12    13    1
    15    14    13    1
