@<TRIPOS>MOLECULE
2yi0_YI0_A_1.pdb
 22 24 0 0 0
SMALL
GASTEIGER

@<TRIPOS>ATOM
      1  N1        30.1230    9.0240   28.0130 N.pl3 1225  YI01225    -0.0833
      2  N2        30.0090    9.9180   27.0770 N.2   1225  YI01225    -0.1554
      3  C3        30.8210    9.6080   26.0270 C.2   1225  YI01225     0.0973
      4  C4        31.6090    8.4490   26.1710 C.3   1225  YI01225     0.1331
      5  C6        30.8820   10.4360   24.8480 C.ar  1225  YI01225     0.0563
      6  C7        32.5560    7.8240   25.3410 C.ar  1225  YI01225    -0.0050
      7  C12       32.2050    7.4140   24.0780 C.ar  1225  YI01225     0.0001
      8  C13       33.0390    6.8120   23.1840 C.ar  1225  YI01225     0.0366
      9  C14       34.3760    6.6920   23.5110 C.ar  1225  YI01225     0.1387
     10  C15       34.8020    7.0880   24.7700 C.ar  1225  YI01225     0.0366
     11  C16       33.8940    7.6470   25.6490 C.ar  1225  YI01225     0.0001
     12  C21       29.7440   10.8380   24.1780 C.ar  1225  YI01225     0.2001
     13  C22       29.7380   11.5920   22.9570 C.ar  1225  YI01225     0.0849
     14  C23       31.0040   12.0830   22.5960 C.ar  1225  YI01225     0.2093
     15  C24       32.1320   11.6890   23.3220 C.ar  1225  YI01225     0.0967
     16  C25       32.1590   10.9080   24.4240 C.ar  1225  YI01225     0.0191
     17  O29       31.1400   12.7290   21.4090 O.3   1225  YI01225    -0.2856
     18  O30       28.5370   10.4350   24.6060 O.3   1225  YI01225    -0.2864
     19  O33       35.3390    6.1070   22.7550 O.3   1225  YI01225    -0.4714
     20  C34       34.9620    5.7450   21.4020 C.3   1225  YI01225     0.2525
     21  S1        31.1670    7.8150   27.7500 S.3   1225  YI01225     0.0046
     22 CL         33.7210   12.3740   22.7910 Cl    1225  YI01225    -0.0789
@<TRIPOS>BOND
     1    20    19    1
     2    17    14    1
     3    14    13   ar
     4    14    15   ar
     5    19     9    1
     6    22    15    1
     7    13    12   ar
     8     8     9   ar
     9     8     7   ar
    10    15    16   ar
    11     9    10   ar
    12     7     6   ar
    13    12    18    1
    14    12     5   ar
    15    16     5   ar
    16    10    11   ar
    17     5     3    1
    18     6    11   ar
    19     6     4    1
    20     3     4    1
    21     3     2    2
    22     4    21    1
    23     2     1    1
    24    21     1    1
