@<TRIPOS>MOLECULE
2yi1_BM3_A_1.pdb
 15 15 0 0 0
SMALL
GASTEIGER

@<TRIPOS>ATOM
      1  C1        31.2220   11.6480   -7.9410 C.3   1001  BM31001     0.2917
      2  O1        30.6980   12.6790   -7.1650 O.3   1001  BM31001    -0.1879
      3  C2        30.1800   10.9860   -8.8130 C.3   1001  BM31001     0.1871
      4  N2        30.9380   10.0840   -9.6970 N.am  1001  BM31001    -0.1991
      5  C7        30.7560    9.9710  -11.1120 C.2   1001  BM31001     0.2421
      6  O7        29.9120   10.6390  -11.7080 O.2   1001  BM31001    -0.2733
      7  C8        31.6250    8.9960  -11.8520 C.3   1001  BM31001     0.0964
      8  C3        29.1770   10.2510   -8.0180 C.3   1001  BM31001     0.2095
      9  O3        28.2160    9.6330   -8.9260 O.3   1001  BM31001    -0.2183
     10  C4        29.8170    9.2810   -7.1630 C.3   1001  BM31001     0.2136
     11  O4        28.8320    8.6770   -6.2770 O.3   1001  BM31001    -0.2176
     12  C5        30.8530    9.9390   -6.2970 C.3   1001  BM31001     0.1835
     13  C6        31.5770    9.0010   -5.3880 C.3   1001  BM31001     0.2142
     14  O6        32.1350    7.8720   -6.0440 O.3   1001  BM31001    -0.2176
     15  O5        31.8060   10.6750   -7.1330 O.3   1001  BM31001    -0.3242
@<TRIPOS>BOND
     1     7     5    1
     2     6     5    2
     3     5     4   am
     4     4     3    1
     5     9     8    1
     6     3     8    1
     7     3     1    1
     8     8    10    1
     9     1     2    1
    10     1    15    1
    11    10    12    1
    12    10    11    1
    13    15    12    1
    14    12    13    1
    15    14    13    1
