@<TRIPOS>MOLECULE
2yi1_ADP_A_1.pdb
 27 29 0 0 0
SMALL
GASTEIGER

@<TRIPOS>ATOM
      1  PB        37.1990    4.8600   -4.6980 P.3   1727  ADP1727     0.5373
      2  O1B       35.7500    4.6170   -4.3340 O.3   1727  ADP1727    -0.1143
      3  O2B       37.8950    3.8270   -5.5610 O.2   1727  ADP1727    -0.2221
      4  O3B       37.4000    6.2900   -5.1140 O.3   1727  ADP1727    -0.1143
      5  PA        38.3280    3.8620   -2.3240 P.3   1727  ADP1727     0.2231
      6  O1A       37.0600    3.6840   -1.5340 O.3   1727  ADP1727    -0.4370
      7  O2A       39.0850    2.7070   -2.9340 O.2   1727  ADP1727    -0.5169
      8  O3A       38.1180    4.9860   -3.4180 O.3   1727  ADP1727    -0.2261
      9  O5'       39.4380    4.6580   -1.4580 O.3   1727  ADP1727    -0.3111
     10  C5'       40.6330    5.1240   -2.1270 C.3   1727  ADP1727     0.1813
     11  C4'       40.5820    6.6400   -2.2390 C.3   1727  ADP1727     0.1821
     12  O4'       40.4710    7.1720   -0.9250 O.3   1727  ADP1727    -0.3135
     13  C3'       41.8400    7.2370   -2.8650 C.3   1727  ADP1727     0.2184
     14  O3'       41.5710    7.9220   -4.0870 O.3   1727  ADP1727    -0.2174
     15  C2'       42.3720    8.2490   -1.8730 C.3   1727  ADP1727     0.2570
     16  O2'       42.0700    9.5860   -2.3000 O.3   1727  ADP1727    -0.2130
     17  C1'       41.6660    7.8970   -0.5680 C.3   1727  ADP1727     0.3186
     18  N9        42.5980    7.1370    0.3300 N.pl3 1727  ADP1727    -0.1439
     19  C8        43.8300    7.5730    0.6710 C.3   1727  ADP1727     0.3377
     20  N7        44.4490    6.6890    1.5000 N.2   1727  ADP1727    -0.2095
     21  C5        43.6150    5.6550    1.7240 C.2   1727  ADP1727     0.2526
     22  C6        43.6450    4.3810    2.5190 C.2   1727  ADP1727     0.4393
     23  N6        44.7200    4.0060    3.2650 N.pl3 1727  ADP1727     0.2180
     24  N1        42.5520    3.5780    2.4720 N.2   1727  ADP1727     0.0021
     25  C2        41.4660    3.9080    1.7370 C.3   1727  ADP1727     0.5254
     26  N3        41.3830    5.0480    1.0080 N.2   1727  ADP1727    -0.0055
     27  C4        42.3950    5.9560    0.9480 C.2   1727  ADP1727     0.3518
@<TRIPOS>BOND
     1     3     1    2
     2     4     1    1
     3     1     2    1
     4     1     8    1
     5    14    13    1
     6     8     5    1
     7     7     5    2
     8    13    11    1
     9    13    15    1
    10     5     6    1
    11     5     9    1
    12    16    15    1
    13    11    10    1
    14    11    12    1
    15    10     9    1
    16    15    17    1
    17    12    17    1
    18    17    18    1
    19    18    19    1
    20    18    27    1
    21    19    20    1
    22    27    26    2
    23    27    21    1
    24    26    25    1
    25    20    21    2
    26    21    22    1
    27    25    24    1
    28    24    22    2
    29    22    23    1
