@<TRIPOS>MOLECULE
2yi1_BMX_A_1.pdb
 19 19 0 0 0
SMALL
GASTEIGER

@<TRIPOS>ATOM
      1  C1        31.2830   11.5650   -7.8810 C.3   1000  BMX1000     0.2917
      2  C2        30.2490   10.9760   -8.7880 C.3   1000  BMX1000     0.1871
      3  C3        29.2190   10.2150   -7.9840 C.3   1000  BMX1000     0.2095
      4  C4        29.9310    9.2090   -7.0860 C.3   1000  BMX1000     0.2135
      5  C5        31.0120    9.8620   -6.2450 C.3   1000  BMX1000     0.1807
      6  C6        31.8090    8.9300   -5.2940 C.3   1000  BMX1000     0.1859
      7  C7        30.7760    9.9590  -11.0720 C.2   1000  BMX1000     0.2421
      8  C8        31.6250    8.9710  -11.8110 C.3   1000  BMX1000     0.0964
      9  N2        30.9600   10.0840   -9.6540 N.am  1000  BMX1000    -0.1991
     10  O1        30.7540   12.5870   -7.0970 O.3   1000  BMX1000    -0.1879
     11  O3        28.2720    9.6220   -8.8210 O.3   1000  BMX1000    -0.2183
     12  O4        28.9550    8.6880   -6.2530 O.3   1000  BMX1000    -0.2176
     13  O5        31.8100   10.5410   -7.1140 O.3   1000  BMX1000    -0.3243
     14  O6        32.8830    8.2250   -5.8840 O.3   1000  BMX1000    -0.2675
     15  O7        29.9460   10.6280  -11.6680 O.2   1000  BMX1000    -0.2733
     16  P         34.1730    7.6740   -5.0760 P.3   1000  BMX1000     0.5327
     17  O19       35.1820    7.3270   -6.0950 O.2   1000  BMX1000    -0.2224
     18  O17       34.7340    8.6380   -4.1130 O.3   1000  BMX1000    -0.1145
     19  O18       33.7360    6.5110   -4.2460 O.3   1000  BMX1000    -0.1145
@<TRIPOS>BOND
     1     8     7    1
     2    15     7    2
     3     7     9   am
     4     9     2    1
     5    11     3    1
     6     2     3    1
     7     2     1    1
     8     3     4    1
     9     1    13    1
    10     1    10    1
    11    13     5    1
    12     4    12    1
    13     4     5    1
    14     5     6    1
    15    17    16    2
    16    14     6    1
    17    14    16    1
    18    16    19    1
    19    16    18    1
