@<TRIPOS>MOLECULE
2yi5_YI5_A_1.pdb
 24 26 0 0 0
SMALL
GASTEIGER

@<TRIPOS>ATOM
      1  N1         2.0290   33.2530    7.1110 N.pl3 1226  YI51226    -0.0833
      2  N2         2.2330   32.9080    5.9290 N.2   1226  YI51226    -0.1554
      3  C3         1.7750   33.7170    4.9430 C.2   1226  YI51226     0.0973
      4  C4         0.8550   34.6420    5.4720 C.3   1226  YI51226     0.1332
      5  C6         1.7970   33.3460    3.5880 C.ar  1226  YI51226     0.0563
      6  C7         0.2650   35.7280    4.8310 C.ar  1226  YI51226    -0.0020
      7  C12       -0.8150   36.4200    5.3540 C.ar  1226  YI51226     0.0370
      8  C13       -1.3190   37.5410    4.6900 C.ar  1226  YI51226     0.1721
      9  C14       -0.6640   38.0390    3.5610 C.ar  1226  YI51226     0.1724
     10  C15        0.4680   37.3940    3.0910 C.ar  1226  YI51226     0.0398
     11  C16        0.9390   36.2690    3.7470 C.ar  1226  YI51226     0.0003
     12  C21        2.9590   32.8810    2.9690 C.ar  1226  YI51226     0.2001
     13  C22        2.9710   32.4880    1.6210 C.ar  1226  YI51226     0.0849
     14  C23        1.7770   32.3400    0.9280 C.ar  1226  YI51226     0.2093
     15  C24        0.5790   32.6500    1.5870 C.ar  1226  YI51226     0.0967
     16  C25        0.5870   33.1140    2.9160 C.ar  1226  YI51226     0.0191
     17  O29        1.7690   31.8950   -0.3720 O.3   1226  YI51226    -0.2856
     18  O30        4.1380   33.0700    3.6080 O.3   1226  YI51226    -0.2864
     19  O33       -1.0810   39.1480    2.8910 O.3   1226  YI51226    -0.4684
     20  S1         1.0890   34.6350    7.1500 S.3   1226  YI51226     0.0046
     21  C34       -1.6540   40.0970    3.8060 C.3   1226  YI51226     0.2526
     22 CL         -0.9200   32.4330    0.7220 Cl    1226  YI51226    -0.0789
     23  CAB       -2.6580   37.8870    6.5900 C.3   1226  YI51226     0.2526
     24  OAN       -2.4350   38.1480    5.1770 O.3   1226  YI51226    -0.4684
@<TRIPOS>BOND
     1    17    14    1
     2    22    15    1
     3    14    15   ar
     4    14    13   ar
     5    15    16   ar
     6    13    12   ar
     7    19     9    1
     8    19    21    1
     9    16     5   ar
    10    12     5   ar
    11    12    18    1
    12    10     9   ar
    13    10    11   ar
    14     9     8   ar
    15     5     3    1
    16    11     6   ar
    17     8    24    1
    18     8     7   ar
    19     6     7   ar
    20     6     4    1
    21     3     4    1
    22     3     2    2
    23    24    23    1
    24     4    20    1
    25     2     1    1
    26     1    20    1
