@<TRIPOS>MOLECULE
2yi6_6QM_A_1.pdb
 24 26 0 0 0
SMALL
GASTEIGER

@<TRIPOS>ATOM
      1  N1        29.9130    9.3840   27.9550 N.pl3 1225  6QM1225    -0.0833
      2  N2        29.8780   10.1610   26.9350 N.2   1225  6QM1225    -0.1554
      3  C3        30.6390    9.7060   25.9260 C.2   1225  6QM1225     0.0969
      4  C4        31.3480    8.5150   26.1940 C.3   1225  6QM1225     0.1331
      5  C6        30.7320   10.3880   24.7430 C.2   1225  6QM1225     0.0515
      6  C7        32.2010    7.7970   25.2920 C.ar  1225  6QM1225    -0.0050
      7  C16       33.4680    7.4850   25.8110 C.ar  1225  6QM1225     0.0001
      8  C15       34.3960    6.7770   25.0370 C.ar  1225  6QM1225     0.0366
      9  C14       34.0530    6.4090   23.7230 C.ar  1225  6QM1225     0.1385
     10  C13       32.7570    6.6790   23.1980 C.ar  1225  6QM1225     0.0366
     11  C12       31.7940    7.3770   23.9540 C.ar  1225  6QM1225     0.0001
     12  C21       29.5730   10.7650   24.0130 C.2   1225  6QM1225     0.1994
     13  C22       29.6220   11.4480   22.8750 C.2   1225  6QM1225     0.0798
     14  C23       30.8790   11.8660   22.5290 C.2   1225  6QM1225     0.1799
     15  C24       32.0440   11.5260   23.2060 C.3   1225  6QM1225     0.0841
     16  C25       31.9990   10.7890   24.3740 C.2   1225  6QM1225    -0.0143
     17  O29       31.0190   12.5350   21.4220 O.2   1225  6QM1225    -0.2909
     18  O30       28.4420   10.4570   24.4320 O.2   1225  6QM1225    -0.2864
     19  O33       35.0160    5.7110   23.0080 O.3   1225  6QM1225    -0.4755
     20  S1        30.9740    8.0570   27.8320 S.3   1225  6QM1225     0.0046
     21  C34       34.4710    5.5550   21.6390 C.3   1225  6QM1225     0.2055
     22  CAA       35.4110    4.8410   20.6860 C.3   1225  6QM1225     0.0512
     23  CAL       33.3970   11.9490   22.7080 C.3   1225  6QM1225     0.0121
     24  CAB       33.6800   13.3180   23.3800 C.3   1225  6QM1225     0.0008
@<TRIPOS>BOND
     1    22    21    1
     2    17    14    1
     3    21    19    1
     4    14    13    2
     5    14    15    1
     6    23    15    1
     7    23    24    1
     8    13    12    1
     9    19     9    1
    10    10     9   ar
    11    10    11   ar
    12    15    16    1
    13     9     8   ar
    14    11     6   ar
    15    12    18    2
    16    12     5    1
    17    16     5    2
    18     5     3    1
    19     8     7   ar
    20     6     7   ar
    21     6     4    1
    22     3     4    1
    23     3     2    2
    24     4    20    1
    25     2     1    1
    26    20     1    1
