@<TRIPOS>MOLECULE
2yi7_BZ8_A_1.pdb
 23 25 0 0 0
SMALL
GASTEIGER

@<TRIPOS>ATOM
      1  N1        29.9550    9.2310   28.1610 N.pl3 1225  BZ81225    -0.0833
      2  N2        29.8940   10.0360   27.1790 N.2   1225  BZ81225    -0.1554
      3  C3        30.6790    9.6670   26.1280 C.2   1225  BZ81225     0.0973
      4  C4        31.4010    8.4840   26.3290 C.3   1225  BZ81225     0.1331
      5  C6        30.7760   10.4410   24.9340 C.ar  1225  BZ81225     0.0563
      6  C7        32.2820    7.7630   25.5100 C.ar  1225  BZ81225    -0.0050
      7  C16       33.5610    7.3940   25.9190 C.ar  1225  BZ81225     0.0001
      8  C15       34.4230    6.7170   24.9990 C.ar  1225  BZ81225     0.0366
      9  C14       33.9660    6.4300   23.6960 C.ar  1225  BZ81225     0.1385
     10  C13       32.7060    6.7480   23.3680 C.ar  1225  BZ81225     0.0366
     11  C12       31.8840    7.4880   24.2010 C.ar  1225  BZ81225     0.0001
     12  C21       29.6680   10.8210   24.2350 C.ar  1225  BZ81225     0.2001
     13  C22       29.6630   11.5160   23.0100 C.ar  1225  BZ81225     0.0849
     14  C23       30.9030   11.9560   22.5330 C.ar  1225  BZ81225     0.2093
     15  C24       31.9960   11.6330   23.2480 C.ar  1225  BZ81225     0.0967
     16  C25       32.0140   10.9030   24.4280 C.ar  1225  BZ81225     0.0191
     17  O29       31.0130   12.5680   21.3180 O.3   1225  BZ81225    -0.2856
     18  O30       28.4160   10.4180   24.6800 O.3   1225  BZ81225    -0.2864
     19  O33       34.9240    5.7370   22.9910 O.3   1225  BZ81225    -0.4755
     20  S1        30.9240    7.9770   27.9530 S.3   1225  BZ81225     0.0046
     21  C34       34.5470    5.3840   21.6320 C.3   1225  BZ81225     0.2055
     22 CL         33.5760   12.2560   22.7250 Cl    1225  BZ81225    -0.0789
     23  CAA       35.7260    4.6000   21.0860 C.3   1225  BZ81225     0.0512
@<TRIPOS>BOND
     1    23    21    1
     2    17    14    1
     3    21    19    1
     4    14    13   ar
     5    14    15   ar
     6    22    15    1
     7    19     9    1
     8    13    12   ar
     9    15    16   ar
    10    10     9   ar
    11    10    11   ar
    12     9     8   ar
    13    11     6   ar
    14    12    18    1
    15    12     5   ar
    16    16     5   ar
    17     5     3    1
    18     8     7   ar
    19     6     7   ar
    20     6     4    1
    21     3     4    1
    22     3     2    2
    23     4    20    1
    24     2     1    1
    25    20     1    1
