@<TRIPOS>MOLECULE
2yic_TPP_A_1.pdb
 26 27 0 0 0
SMALL
GASTEIGER

@<TRIPOS>ATOM
      1  N1'        5.2560   12.2120  -39.7710 N.2   2001  TPP2001    -0.1861
      2  C2'        4.3160   11.7910  -38.9350 C.1   2001  TPP2001     0.0663
      3  CM2        4.0730   10.3150  -38.8010 C.3   2001  TPP2001     0.1291
      4  N3'        3.5390   12.6520  -38.2700 N.2   2001  TPP2001    -0.3368
      5  C4'        3.7270   13.9780  -38.3820 C.2   2001  TPP2001     0.2292
      6  N4'        2.9800   14.8320  -37.6020 N.pl3 2001  TPP2001    -0.0925
      7  C5'        4.7160   14.4740  -39.2560 C.2   2001  TPP2001     0.0654
      8  C6'        5.4860   13.5260  -39.9340 C.2   2001  TPP2001     0.1115
      9  C7'        4.9750   15.9620  -39.4280 C.3   2001  TPP2001     0.1237
     10  N3         3.8830   16.6880  -40.1340 N.pl3 2001  TPP2001    -0.2970
     11  C2         3.0560   17.4460  -39.4600 C.3   2001  TPP2001     0.1543
     12  S1         1.8780   18.1480  -40.4870 S.3   2001  TPP2001    -0.0951
     13  C5         2.6250   17.4210  -41.8900 C.2   2001  TPP2001     0.0164
     14  C4         3.6520   16.6550  -41.4510 C.2   2001  TPP2001     0.0279
     15  CM4        4.5130   15.9670  -42.4820 C.3   2001  TPP2001     0.0473
     16  C6         2.0390   17.6220  -43.2820 C.3   2001  TPP2001     0.0661
     17  C7         0.6300   16.9890  -43.1900 C.3   2001  TPP2001     0.1544
     18  O7        -0.0810   17.0140  -44.4270 O.3   2001  TPP2001    -0.3134
     19  PA        -1.5850   16.4860  -44.5390 P.3   2001  TPP2001     0.2230
     20  O1A       -1.6190   15.0320  -44.1780 O.3   2001  TPP2001    -0.4370
     21  O2A       -2.1140   16.7290  -46.0180 O.2   2001  TPP2001    -0.5169
     22  O3A       -2.4350   17.3800  -43.4850 O.3   2001  TPP2001    -0.2261
     23  PB        -2.7090   18.8810  -43.4240 P.3   2001  TPP2001     0.5373
     24  O1B       -1.6870   19.5960  -42.4630 O.3   2001  TPP2001    -0.1143
     25  O2B       -2.6160   19.4400  -44.8230 O.2   2001  TPP2001    -0.2221
     26  O3B       -4.2310   19.0200  -42.9260 O.3   2001  TPP2001    -0.1143
@<TRIPOS>BOND
     1    21    19    2
     2    25    23    2
     3    19    18    1
     4    19    20    1
     5    19    22    1
     6    18    17    1
     7    22    23    1
     8    23    26    1
     9    23    24    1
    10    16    17    1
    11    16    13    1
    12    15    14    1
    13    13    14    2
    14    13    12    1
    15    14    10    1
    16    12    11    1
    17    10    11    1
    18    10     9    1
    19     8     1    1
    20     8     7    2
    21     1     2    2
    22     9     7    1
    23     7     5    1
    24     2     3    1
    25     2     4    2
    26     5     4    2
    27     5     6    1
