@<TRIPOS>MOLECULE
2yid_TD7_A_1.pdb
 33 34 0 0 0
SMALL
GASTEIGER

@<TRIPOS>ATOM
      1  O1B        0.9610  -19.8640   -3.4400 O.3   2001  TD72001    -0.1143
      2  PB         0.1580  -19.3570   -4.7270 P.3   2001  TD72001     0.5373
      3  O3B       -1.1440  -20.0180   -4.7930 O.3   2001  TD72001    -0.1143
      4  O2B        0.9840  -19.5760   -6.0890 O.2   2001  TD72001    -0.2221
      5  O3A       -0.0200  -17.8390   -4.6640 O.3   2001  TD72001    -0.2261
      6  PA        -1.2620  -16.9000   -4.2540 P.3   2001  TD72001     0.2230
      7  O1A       -1.0220  -15.4620   -4.5730 O.3   2001  TD72001    -0.4370
      8  O2A       -2.6000  -17.3860   -5.0250 O.2   2001  TD72001    -0.5169
      9  O7        -1.4130  -17.0270   -2.6610 O.3   2001  TD72001    -0.3134
     10  C7        -0.2960  -16.7760   -1.8020 C.3   2001  TD72001     0.1544
     11  C6        -0.5230  -17.2900   -0.3760 C.3   2001  TD72001     0.0661
     12  C5         0.6800  -16.8500    0.4340 C.2   2001  TD72001     0.0164
     13  S1         2.2910  -17.3520   -0.0170 S.3   2001  TD72001    -0.0952
     14  C4         0.8130  -15.9190    1.4180 C.2   2001  TD72001     0.0279
     15  CM4       -0.4470  -15.2680    1.9460 C.3   2001  TD72001     0.0473
     16  N3         2.0620  -15.7120    1.8820 N.pl3 2001  TD72001    -0.2970
     17  C2         2.9520  -16.4370    1.2470 C.3   2001  TD72001     0.1559
     18  OL1        4.9520  -16.5390    2.8300 O.3   2001  TD72001    -0.2204
     19  CLB        5.3150  -16.6760    0.2590 C.3   2001  TD72001     0.0474
     20  CLC        7.6820  -16.8020    0.7980 C.2   2001  TD72001     0.3649
     21  OL2        8.0210  -16.7140    1.9990 O.co2 2001  TD72001    -0.2457
     22  OL3        8.2970  -16.2400   -0.1400 O.co2 2001  TD72001    -0.2457
     23  C7'        2.3980  -14.8340    3.0500 C.3   2001  TD72001     0.1237
     24  C5'        2.3930  -13.3610    2.7240 C.2   2001  TD72001     0.0654
     25  C6'        1.4090  -12.5410    3.2660 C.2   2001  TD72001     0.1115
     26  N1'        1.3620  -11.2540    2.9160 N.2   2001  TD72001    -0.1861
     27  C2'        2.2420  -10.7270    2.0800 C.1   2001  TD72001     0.0663
     28  CM2        2.1790   -9.2530    1.7590 C.3   2001  TD72001     0.1291
     29  N3'        3.2120  -11.4590    1.5580 N.2   2001  TD72001    -0.3368
     30  C4'        3.3270  -12.7550    1.8520 C.2   2001  TD72001     0.2292
     31  C13        6.4660  -17.6370    0.4830 C.3   2001  TD72001     0.1168
     32  N4'        4.3670  -13.4520    1.2840 N.pl3 2001  TD72001    -0.0925
     33  C11        4.4330  -16.5620    1.4890 C.3   2001  TD72001     0.1811
@<TRIPOS>BOND
     1     4     2    2
     2     8     6    2
     3     3     2    1
     4     2     5    1
     5     2     1    1
     6     5     6    1
     7     7     6    1
     8     6     9    1
     9     9    10    1
    10    10    11    1
    11    11    12    1
    12    22    20   ar
    13    13    12    1
    14    13    17    1
    15    19    31    1
    16    19    33    1
    17    12    14    2
    18    31    20    1
    19    20    21   ar
    20    17    33    1
    21    17    16    1
    22    32    30    1
    23    14    16    1
    24    14    15    1
    25    33    18    1
    26    29    30    2
    27    29    27    2
    28    28    27    1
    29    30    24    1
    30    16    23    1
    31    27    26    2
    32    24    23    1
    33    24    25    2
    34    26    25    1
