@<TRIPOS>MOLECULE
2yig_5EL_A_1.pdb
 34 38 0 0 0
SMALL
GASTEIGER

@<TRIPOS>ATOM
      1  C1        23.1050   14.4070   12.6740 C.ar  1273  5EL1273     0.0114
      2  C2        23.4960   13.8490   13.8770 C.ar  1273  5EL1273     0.0381
      3  C3        22.6310   13.0050   14.5770 C.ar  1273  5EL1273     0.1453
      4  C4        21.3680   12.7240   14.0800 C.ar  1273  5EL1273     0.0381
      5  C5        20.9610   13.2780   12.8650 C.ar  1273  5EL1273     0.0114
      6  C6        21.8350   14.1180   12.1670 C.ar  1273  5EL1273     0.0419
      7  C7        21.4040   14.6200   10.9130 C.1   1273  5EL1273    -0.0620
      8  C8        21.0410   14.9990    9.8290 C.1   1273  5EL1273    -0.0562
      9  C9        20.6150   15.5170    8.4900 C.3   1273  5EL1273     0.1939
     10  C10       19.1040   15.2820    8.4030 C.3   1273  5EL1273     0.1155
     11  N1        18.8360   14.4450    7.1700 N.3   1273  5EL1273    -0.2698
     12  C11       19.3300   15.1330    5.9200 C.3   1273  5EL1273     0.0723
     13  C12       20.8320   15.3740    6.0610 C.3   1273  5EL1273     0.0209
     14  C13       21.3750   14.8040    7.3510 C.3   1273  5EL1273     0.0438
     15  C14       21.0810   13.3380    7.4270 C.3   1273  5EL1273     0.0209
     16  C15       19.5420   13.1430    7.3890 C.3   1273  5EL1273     0.0723
     17  O1        20.9900   16.8750    8.3850 O.3   1273  5EL1273    -0.2110
     18  O2        22.9370   12.3840   15.7550 O.3   1273  5EL1273    -0.4535
     19  C16       23.4940   13.0730   16.8130 C.ar  1273  5EL1273     0.1453
     20  C17       23.4720   14.4700   16.8910 C.ar  1273  5EL1273     0.0376
     21  C18       24.0360   15.1030   17.9780 C.ar  1273  5EL1273     0.0077
     22  C19       24.6160   14.3350   18.9390 C.ar  1273  5EL1273     0.0552
     23  C20       24.6410   12.9430   18.8840 C.ar  1273  5EL1273     0.0077
     24  C21       24.0730   12.3080   17.7830 C.ar  1273  5EL1273     0.0376
     25  C22       25.2390   14.9940   20.1330 C.2   1273  5EL1273     0.2651
     26  O3        25.2680   14.3570   21.1720 O.2   1273  5EL1273    -0.2684
     27  N2        25.6910   16.2610   19.9550 N.am  1273  5EL1273    -0.1968
     28  C23       26.0230   17.0310   21.1640 C.3   1273  5EL1273     0.1419
     29  C24       27.4150   16.7210   21.6510 C.ar  1273  5EL1273     0.0025
     30  C25       28.3170   15.9920   20.8740 C.ar  1273  5EL1273     0.0181
     31  C26       29.5650   15.7390   21.4120 C.ar  1273  5EL1273     0.0986
     32  N3        30.0020   16.1600   22.6200 N.ar  1273  5EL1273    -0.2423
     33  C27       29.1280   16.8660   23.3430 C.ar  1273  5EL1273     0.0986
     34  C28       27.8310   17.1680   22.9020 C.ar  1273  5EL1273     0.0181
@<TRIPOS>BOND
     1    12    13    1
     2    12    11    1
     3    13    14    1
     4    11    16    1
     5    11    10    1
     6    14    15    1
     7    14     9    1
     8    16    15    1
     9    17     9    1
    10    10     9    1
    11     9     8    1
    12     8     7    3
    13     7     6    1
    14     6     1   ar
    15     6     5   ar
    16     1     2   ar
    17     5     4   ar
    18     2     3   ar
    19     4     3   ar
    20     3    18    1
    21    18    19    1
    22    19    20   ar
    23    19    24   ar
    24    20    21   ar
    25    24    23   ar
    26    21    22   ar
    27    23    22   ar
    28    22    25    1
    29    27    25   am
    30    27    28    1
    31    25    26    2
    32    30    31   ar
    33    30    29   ar
    34    28    29    1
    35    31    32   ar
    36    29    34   ar
    37    32    33   ar
    38    34    33   ar
