@<TRIPOS>MOLECULE
2yih_BGC_A_1.pdb
 11 11 0 0 0
SMALL
GASTEIGER

@<TRIPOS>ATOM
      1  C2        10.2820   21.7510  -17.1430 C.3   1540  BGC1540     0.2141
      2  C3        10.9670   23.0980  -17.3840 C.3   1540  BGC1540     0.2173
      3  C4        12.3310   23.1070  -16.6940 C.3   1540  BGC1540     0.2142
      4  C5        13.1440   21.8490  -16.9940 C.3   1540  BGC1540     0.1810
      5  C6        14.3580   21.8390  -16.0670 C.3   1540  BGC1540     0.2141
      6  C1        11.2050   20.6280  -17.6140 C.3   1540  BGC1540     0.1777
      7  O2         9.0360   21.6680  -17.8490 O.3   1540  BGC1540    -0.2176
      8  O3        10.1750   24.1740  -16.8570 O.3   1540  BGC1540    -0.2175
      9  O4        13.1190   24.2710  -16.9930 O.3   1540  BGC1540    -0.2176
     10  O5        12.3510   20.6770  -16.7710 O.3   1540  BGC1540    -0.3481
     11  O6        13.9770   22.1650  -14.7230 O.3   1540  BGC1540    -0.2176
@<TRIPOS>BOND
     1     7     1    1
     2     6     1    1
     3     6    10    1
     4     2     1    1
     5     2     8    1
     6     2     3    1
     7     4    10    1
     8     4     3    1
     9     4     5    1
    10     9     3    1
    11     5    11    1
