@<TRIPOS>MOLECULE
2yio_YIO_A_1.pdb
 12 12 0 0 0
SMALL
GASTEIGER

@<TRIPOS>ATOM
      1  C1        43.3790    9.7780   53.5950 C.3   1141  YIO1141     0.2051
      2  C2        43.3100   11.2790   54.0650 C.3   1141  YIO1141     0.2227
      3  C3        43.9060   12.1550   52.9290 C.3   1141  YIO1141     0.2181
      4  C4        45.3720   11.8700   52.7710 C.3   1141  YIO1141     0.2143
      5  C5        45.4550   10.3280   52.5610 C.3   1141  YIO1141     0.1820
      6  C6        46.8620    9.9340   52.2080 C.3   1141  YIO1141     0.2142
      7  O2        41.9840   11.7000   54.4170 O.3   1141  YIO1141    -0.2167
      8  O3        43.7940   13.5490   53.0980 O.3   1141  YIO1141    -0.2175
      9  O4        46.1120   12.3380   53.9060 O.3   1141  YIO1141    -0.2176
     10  O5        44.8430    9.6190   53.6790 O.3   1141  YIO1141    -0.3390
     11  O6        47.4050   11.0170   51.4410 O.3   1141  YIO1141    -0.2176
     12  S1        42.5050    8.2820   54.3260 S.3   1141  YIO1141    -0.0481
@<TRIPOS>BOND
     1    11     6    1
     2     6     5    1
     3     5     4    1
     4     5    10    1
     5     4     3    1
     6     4     9    1
     7     3     8    1
     8     3     2    1
     9     1    10    1
    10     1     2    1
    11     1    12    1
    12     2     7    1
