@<TRIPOS>MOLECULE
2yip_YIO_A_1.pdb
 12 12 0 0 0
SMALL
GASTEIGER

@<TRIPOS>ATOM
      1  C1         8.0170   90.7090  -15.6570 C.3   1135  YIO1135     0.2051
      2  C2         8.9520   89.8850  -14.7060 C.3   1135  YIO1135     0.2227
      3  C3         9.8740   90.9760  -14.0170 C.3   1135  YIO1135     0.2181
      4  C4        10.8930   91.6500  -14.9820 C.3   1135  YIO1135     0.2143
      5  C5        10.0910   92.0620  -16.2150 C.3   1135  YIO1135     0.1820
      6  C6        11.1580   92.2160  -17.2060 C.3   1135  YIO1135     0.2142
      7  O2         8.2380   88.9730  -13.8070 O.3   1135  YIO1135    -0.2167
      8  O3        10.4710   90.5800  -12.7940 O.3   1135  YIO1135    -0.2175
      9  O4        12.0010   90.8670  -15.4590 O.3   1135  YIO1135    -0.2176
     10  O5         9.0640   91.1150  -16.7120 O.3   1135  YIO1135    -0.3390
     11  O6        11.4200   93.5840  -17.1940 O.3   1135  YIO1135    -0.2176
     12  S1         6.3580   90.1430  -16.2970 S.3   1135  YIO1135    -0.0481
@<TRIPOS>BOND
     1     6    11    1
     2     6     5    1
     3    10     5    1
     4    10     1    1
     5    12     1    1
     6     5     4    1
     7     1     2    1
     8     9     4    1
     9     4     3    1
    10     2     3    1
    11     2     7    1
    12     3     8    1
