@<TRIPOS>MOLECULE
2yiq_YIQ_A_1.pdb
 28 31 0 0 0
SMALL
GASTEIGER

@<TRIPOS>ATOM
      1  CAU      -38.2950   32.1040    5.1890 C.2   600  YIQ600      0.0316
      2  CAV      -39.0910   31.6650    4.1130 C.2   600  YIQ600      0.0820
      3  NAG      -39.2320   32.1070    2.8640 N.2   600  YIQ600     -0.2438
      4  CAZ      -40.1290   31.3200    2.2450 C.2   600  YIQ600      0.0989
      5  CBA      -40.5590   30.3760    3.0870 C.2   600  YIQ600      0.0218
      6  CAW      -39.9320   30.5570    4.2590 C.2   600  YIQ600      0.0153
      7  CAX      -39.9990   29.8770    5.4770 C.2   600  YIQ600     -0.0185
      8  CAY      -39.2140   30.3010    6.5580 C.3   600  YIQ600      0.0693
      9  CAT      -38.3660   31.4200    6.4100 C.2   600  YIQ600      0.0573
     10  NAF      -37.6420   31.7930    7.4840 N.am  600  YIQ600     -0.1772
     11  CAS      -37.0360   32.9740    7.6730 C.2   600  YIQ600      0.2984
     12  OBB      -37.1350   33.9520    6.9390 O.2   600  YIQ600     -0.2652
     13  CAQ      -36.3610   33.0670    9.0440 C.2   600  YIQ600      0.1865
     14  NAE      -36.1300   31.9970    9.8170 N.2   600  YIQ600     -0.3972
     15  CAR      -36.0100   34.2080    9.6640 C.2   600  YIQ600      0.0393
     16  CAO      -35.5040   33.8540   10.8590 C.ar  600  YIQ600      0.0323
     17  CAP      -34.9920   34.6130   11.9150 C.ar  600  YIQ600      0.0039
     18  CAN      -35.5850   32.4650   10.9610 C.ar  600  YIQ600      0.1316
     19  CAM      -35.1200   31.8240   12.1190 C.ar  600  YIQ600      0.0321
     20  CAL      -34.6000   32.5840   13.1680 C.ar  600  YIQ600      0.0039
     21  CAK      -34.5300   33.9900   13.0880 C.ar  600  YIQ600      0.0168
     22  CAI      -34.0040   34.7420   14.1750 C.2   600  YIQ600      0.0972
     23  CAJ      -33.3120   36.1060   13.9680 C.3   600  YIQ600      0.0554
     24  NAD      -34.1700   34.2370   15.4180 N.2   600  YIQ600     -0.0740
     25  NAC      -33.7610   34.7660   16.4790 N.pl3 600  YIQ600      0.0567
     26  CAH      -34.0000   34.1770   17.6550 C.cat 600  YIQ600      0.5604
     27  NAB      -33.6230   34.7490   18.7880 N.pl3 600  YIQ600      0.1376
     28  NAA      -34.6910   33.0320   17.7090 N.pl3 600  YIQ600      0.1376
@<TRIPOS>BOND
     1     4     3    1
     2     4     5    2
     3     3     2    2
     4     5     6    1
     5     2     6    1
     6     2     1    1
     7     6     7    2
     8     1     9    2
     9     7     8    1
    10     9     8    1
    11     9    10    1
    12    12    11    2
    13    10    11   am
    14    11    13    1
    15    13    15    1
    16    13    14    2
    17    15    16    2
    18    14    18    2
    19    16    18   ar
    20    16    17   ar
    21    18    19   ar
    22    17    21   ar
    23    19    20   ar
    24    21    20   ar
    25    21    22    1
    26    23    22    1
    27    22    24    2
    28    24    25    1
    29    25    26    2
    30    26    28    1
    31    26    27    1
