@<TRIPOS>MOLECULE
2yir_YIR_A_1.pdb
 30 33 0 0 0
SMALL
GASTEIGER

@<TRIPOS>ATOM
      1  NAA       49.1170   16.7440  -11.8510 N.pl3 600  YIR600      0.0602
      2  NAB       48.2680   15.7750   -9.1980 N.2   600  YIR600     -0.3955
      3  NAC       47.1390   14.6600   -5.8880 N.am  600  YIR600     -0.1733
      4  NAD       47.1910   12.2110   -0.1030 N.2   600  YIR600     -0.0741
      5  NAE       47.2880   11.6590    1.0070 N.pl3 600  YIR600      0.0567
      6  NAF       46.2540   13.4850    1.9420 N.pl3 600  YIR600      0.1376
      7  NAG       46.9070   11.7760    3.2980 N.pl3 600  YIR600      0.1376
      8  CAH       47.5190   18.5610  -11.7640 C.ar  600  YIR600      0.0267
      9  CAI       46.5510   19.1430  -10.9470 C.ar  600  YIR600      0.0019
     10  CAJ       46.2120   18.6470   -9.6950 C.ar  600  YIR600      0.0027
     11  CAK       46.8180   17.5080   -9.1680 C.ar  600  YIR600      0.0340
     12  CAL       47.8210   16.8400   -9.8730 C.ar  600  YIR600      0.1539
     13  CAM       48.1760   17.3420  -11.1270 C.ar  600  YIR600      0.1722
     14  CAN       46.5910   16.7740   -7.8700 C.2   600  YIR600      0.0394
     15  CAO       47.6240   15.6990   -8.0280 C.2   600  YIR600      0.1866
     16  CAP       47.9270   14.6500   -6.9710 C.2   600  YIR600      0.2987
     17  CAQ       47.2660   13.8980   -4.7960 C.ar  600  YIR600      0.0734
     18  CAR       48.2690   12.9260   -4.6450 C.ar  600  YIR600      0.0124
     19  CAS       48.3720   12.1950   -3.4530 C.ar  600  YIR600     -0.0196
     20  CAT       47.4810   12.4410   -2.4100 C.ar  600  YIR600      0.0127
     21  CAU       46.4950   13.4320   -2.5540 C.ar  600  YIR600      0.0023
     22  CAV       46.3880   14.1550   -3.7400 C.ar  600  YIR600      0.0166
     23  CAW       49.4750   11.1280   -3.3300 C.3   600  YIR600      0.0268
     24  CAX       49.0250    9.9330   -2.4800 C.3   600  YIR600      0.0111
     25  CAY       48.4020   10.3530   -1.1540 C.3   600  YIR600      0.0494
     26  CAZ       47.6420   11.6910   -1.2400 C.2   600  YIR600      0.0965
     27  CBA       46.8260   12.3010    2.0790 C.cat 600  YIR600      0.5604
     28  OBB       49.7960   15.5800  -11.4230 O.2   600  YIR600     -0.1260
     29  OBC       49.4440   17.2530  -13.1210 O.2   600  YIR600     -0.1260
     30  OBD       48.8920   13.7480   -7.2290 O.2   600  YIR600     -0.2652
@<TRIPOS>BOND
     1    29     1    2
     2     1    28    2
     3     1    13    1
     4     8    13   ar
     5     8     9   ar
     6    13    12   ar
     7     9    10   ar
     8    12     2    2
     9    12    11   ar
    10    10    11   ar
    11     2    15    2
    12    11    14    2
    13    15    14    1
    14    15    16    1
    15    30    16    2
    16    16     3   am
    17     3    17    1
    18    17    18   ar
    19    17    22   ar
    20    18    19   ar
    21    22    21   ar
    22    19    23    1
    23    19    20   ar
    24    23    24    1
    25    21    20   ar
    26    24    25    1
    27    20    26    1
    28    26    25    1
    29    26     4    2
    30     4     5    1
    31     5    27    2
    32     6    27    1
    33    27     7    1
