@<TRIPOS>MOLECULE
2yis_I46_A_1.pdb
 19 21 0 0 0
SMALL
GASTEIGER

@<TRIPOS>ATOM
      1  C1        24.6630   14.4490   14.3990 C.ar  1354  I461354    -0.0012
      2  C2        26.2310   15.5420   12.8340 C.ar  1354  I461354    -0.0012
      3  C3        25.1310   15.2890   15.3660 C.ar  1354  I461354     0.0293
      4  C4        26.7190   16.4050   13.8390 C.ar  1354  I461354     0.0293
      5  C5        23.8500   16.3320   10.6110 C.ar  1354  I461354     0.0221
      6  C6        23.6590   17.4620    9.8270 C.ar  1354  I461354     0.1013
      7  C7        24.5700   15.1710    8.6040 C.ar  1354  I461354     0.0509
      8  C8        24.7800   12.2950   12.2400 C.2   1354  I461354     0.1057
      9  C9        25.1950   14.5840   13.1150 C.ar  1354  I461354    -0.0110
     10  C10       26.1600   16.2600   15.0960 C.ar  1354  I461354     0.1401
     11  C11       24.3170   15.1640    9.9820 C.ar  1354  I461354     0.0213
     12  C12       24.3420   16.3320    7.9480 C.ar  1354  I461354     0.2224
     13  C13       24.7940   13.6410   12.0350 C.3   1354  I461354     0.1073
     14  C14       24.4830   13.8730   10.7030 C.2   1354  I461354     0.0901
     15  N15       24.5250   11.6710   11.0960 N.2   1354  I461354    -0.1507
     16  N16       23.9150   17.4550    8.5210 N.ar  1354  I461354    -0.2165
     17  N17       24.3030   12.6970   10.1330 N.2   1354  I461354    -0.1519
     18  F18       26.5730   17.0220   16.1040 F     1354  I461354    -0.2042
     19  F19       24.5990   16.2680    6.6600 F     1354  I461354    -0.1832
@<TRIPOS>BOND
     1    19    12    1
     2    12    16   ar
     3    12     7   ar
     4    16     6   ar
     5     7    11   ar
     6     6     5   ar
     7    11     5   ar
     8    11    14    1
     9    17    14    2
    10    17    15    1
    11    14    13    1
    12    15     8    2
    13    13     8    1
    14    13     9    1
    15     2     9   ar
    16     2     4   ar
    17     9     1   ar
    18     4    10   ar
    19     1     3   ar
    20    10     3   ar
    21    10    18    1
