@<TRIPOS>MOLECULE
2yis_YIS_A_1.pdb
 48 53 0 0 0
SMALL
GASTEIGER

@<TRIPOS>ATOM
      1  C1         2.8970    1.4920   10.6400 C.3   1353  YIS1353     0.0060
      2  C2         3.4050    2.4620   11.7260 C.3   1353  YIS1353     0.0372
      3  C3         4.1840    1.6750   12.7640 C.3   1353  YIS1353     0.0060
      4  C4         4.3610    3.4680   11.0190 C.3   1353  YIS1353     0.0060
      5  C5         2.2060    3.1680   12.3750 C.ar  1353  YIS1353     0.0811
      6  C6         1.2600    2.7070   13.3310 C.ar  1353  YIS1353     0.0527
      7  C7         0.3640    3.7380   13.5830 C.ar  1353  YIS1353     0.1587
      8  N8        -0.7110    3.7980   14.4690 N.am  1353  YIS1353    -0.1420
      9  C9        -1.0660    2.9900   15.4640 C.2   1353  YIS1353     0.3451
     10  O10       -0.2830    2.0660   15.8190 O.2   1353  YIS1353    -0.2488
     11  N11       -2.1990    3.2950   16.1560 N.am  1353  YIS1353    -0.1820
     12  C12       -2.5530    2.4960   17.3140 C.3   1353  YIS1353     0.1437
     13  C13       -3.7870    1.6260   17.3140 C.ar  1353  YIS1353     0.0055
     14  C14       -4.5910    1.4220   16.2060 C.ar  1353  YIS1353    -0.0021
     15  C15       -5.7190    0.5920   16.2960 C.ar  1353  YIS1353    -0.0002
     16  C16       -6.0550   -0.0260   17.5210 C.ar  1353  YIS1353     0.0005
     17  C17       -5.2400    0.1610   18.6240 C.ar  1353  YIS1353     0.0062
     18  C18       -4.0760    0.9950   18.5420 C.ar  1353  YIS1353     0.0272
     19  S19       -2.9680    1.2780   19.9460 S.3   1353  YIS1353    -0.0857
     20  C20       -2.6680   -0.3900   20.5020 C.ar  1353  YIS1353     0.0472
     21  C21       -2.6440   -1.4410   19.5470 C.ar  1353  YIS1353     0.0111
     22  C22       -2.4300   -2.7530   19.8980 C.ar  1353  YIS1353     0.0398
     23  C23       -2.1780   -3.0740   21.2610 C.ar  1353  YIS1353     0.1704
     24  N24       -1.9040   -4.2080   21.8790 N.ar  1353  YIS1353    -0.1284
     25  N25       -1.7110   -3.9890   23.1080 N.ar  1353  YIS1353    -0.1284
     26  C26       -1.9040   -2.7130   23.3700 C.ar  1353  YIS1353     0.1708
     27  C27       -1.7290   -2.0720   24.6990 C.ar  1353  YIS1353     0.0419
     28  C28       -2.6580   -2.2240   25.7710 C.ar  1353  YIS1353     0.0035
     29  C29       -2.4000   -1.5810   26.9890 C.ar  1353  YIS1353     0.0001
     30  C30       -1.2480   -0.8060   27.1640 C.ar  1353  YIS1353     0.0005
     31  C31       -0.3210   -0.6460   26.1400 C.ar  1353  YIS1353     0.0062
     32  C32       -0.5350   -1.2760   24.8830 C.ar  1353  YIS1353     0.0282
     33  S33        0.6400   -1.0840   23.5380 S.3   1353  YIS1353    -0.1108
     34  C34        1.3680    0.5570   23.6560 C.3   1353  YIS1353     0.0977
     35  C35        0.4020    1.5860   23.0500 C.3   1353  YIS1353     0.1940
     36  O36       -0.9290    1.5290   23.6360 O.3   1353  YIS1353    -0.2194
     37  N37       -2.1900   -2.0650   22.2040 N.ar  1353  YIS1353    -0.2720
     38  C38       -2.4600   -0.7160   21.8290 C.ar  1353  YIS1353     0.0893
     39  N39        0.7060    4.7750   12.7870 N.ar  1353  YIS1353    -0.2145
     40  N40        1.8640    4.3990   12.1040 N.ar  1353  YIS1353    -0.1683
     41  C41        0.1960    6.1190   12.7400 C.ar  1353  YIS1353     0.0853
     42  C42        0.2300    6.9360   11.5670 C.ar  1353  YIS1353     0.0225
     43  C43       -0.2540    8.2530   11.5910 C.ar  1353  YIS1353     0.0445
     44  C44       -0.7340    8.7630   12.8280 C.ar  1353  YIS1353     0.2062
     45  O45       -1.2020   10.0240   12.9220 O.3   1353  YIS1353    -0.2857
     46  C46       -0.7390    7.9740   13.9890 C.ar  1353  YIS1353     0.0980
     47 CL         -1.3210    8.5620   15.4940 Cl    1353  YIS1353    -0.0789
     48  C48       -0.2620    6.6780   13.9490 C.ar  1353  YIS1353     0.0338
@<TRIPOS>BOND
     1     1     2    1
     2     4     2    1
     3    42    43   ar
     4    42    41   ar
     5    43    44   ar
     6     2     5    1
     7     2     3    1
     8    40     5   ar
     9    40    39   ar
    10     5     6   ar
    11    41    39    1
    12    41    48   ar
    13    39     7   ar
    14    44    45    1
    15    44    46   ar
    16     6     7   ar
    17     7     8    1
    18    48    46   ar
    19    46    47    1
    20     8     9   am
    21     9    10    2
    22     9    11   am
    23    11    12    1
    24    14    15   ar
    25    14    13   ar
    26    15    16   ar
    27    12    13    1
    28    13    18   ar
    29    16    17   ar
    30    18    17   ar
    31    18    19    1
    32    21    22   ar
    33    21    20   ar
    34    22    23   ar
    35    19    20    1
    36    20    38   ar
    37    23    24   ar
    38    23    37   ar
    39    38    37   ar
    40    24    25   ar
    41    37    26   ar
    42    35    36    1
    43    35    34    1
    44    25    26   ar
    45    26    27    1
    46    33    34    1
    47    33    32    1
    48    27    32   ar
    49    27    28   ar
    50    32    31   ar
    51    28    29   ar
    52    31    30   ar
    53    29    30   ar
