@<TRIPOS>MOLECULE
2yit_YIT_A_1.pdb
 29 31 0 0 0
SMALL
GASTEIGER

@<TRIPOS>ATOM
      1  NAA       46.9850  -16.9060   -7.7150 N.2   600  YIT600     -0.4015
      2  CAI       47.0020  -17.6790   -6.6340 C.2   600  YIT600      0.1101
      3  CAH       46.4080  -18.9010   -6.3730 C.3   600  YIT600      0.0874
      4  CAG       46.5960  -19.5170   -5.1390 C.2   600  YIT600      0.0140
      5  CAL       47.3840  -18.9320   -4.1560 C.2   600  YIT600      0.1168
      6  OBB       47.5120  -19.6420   -2.9810 O.2   600  YIT600     -0.4757
      7  CAO       48.1120  -18.9770   -1.8380 C.3   600  YIT600      0.2520
      8  CAK       48.0010  -17.6900   -4.4150 C.3   600  YIT600      0.0921
      9  CAJ       47.8090  -17.0640   -5.6730 C.2   600  YIT600      0.0138
     10  CAN       48.2450  -15.9220   -6.2270 C.2   600  YIT600      0.0352
     11  CAM       47.7330  -15.8310   -7.4650 C.2   600  YIT600      0.1858
     12  CAP       48.0110  -14.6880   -8.4710 C.2   600  YIT600      0.2987
     13  OBC       48.8490  -13.8340   -8.2030 O.2   600  YIT600     -0.2652
     14  NAB       47.3860  -14.7720   -9.6620 N.am  600  YIT600     -0.1733
     15  CAQ       47.5380  -13.9470  -10.7130 C.ar  600  YIT600      0.0738
     16  CAV       46.6590  -14.1350  -11.7810 C.ar  600  YIT600      0.0166
     17  CAU       46.7430  -13.3930  -12.9470 C.ar  600  YIT600      0.0026
     18  CAR       48.5240  -12.9780  -10.8290 C.ar  600  YIT600      0.0166
     19  CAS       48.6130  -12.2030  -12.0000 C.ar  600  YIT600      0.0026
     20  CAT       47.7160  -12.3960  -13.0690 C.ar  600  YIT600      0.0167
     21  CAW       47.7950  -11.6060  -14.2310 C.2   600  YIT600      0.0968
     22  CAX       48.3530  -10.1870  -14.2140 C.3   600  YIT600      0.0490
     23  CAZ       49.6710  -10.0900  -15.0070 C.3   600  YIT600      0.0064
     24  CBA       50.2010   -8.6410  -14.9860 C.3   600  YIT600      0.0004
     25  NAC       47.3480  -12.1120  -15.3940 N.2   600  YIT600     -0.0740
     26  NAD       47.3720  -11.5010  -16.4900 N.pl3 600  YIT600      0.0567
     27  CAY       46.9450  -12.1090  -17.6190 C.cat 600  YIT600      0.5604
     28  NAF       46.9640  -11.5300  -18.8110 N.pl3 600  YIT600      0.1376
     29  NAE       46.5130  -13.3380  -17.5860 N.pl3 600  YIT600      0.1376
@<TRIPOS>BOND
     1    28    27    1
     2    27    29    1
     3    27    26    2
     4    26    25    1
     5    25    21    2
     6    23    24    1
     7    23    22    1
     8    21    22    1
     9    21    20    1
    10    20    17   ar
    11    20    19   ar
    12    17    16   ar
    13    19    18   ar
    14    16    15   ar
    15    18    15   ar
    16    15    14    1
    17    14    12   am
    18    12    13    2
    19    12    11    1
    20     1    11    2
    21     1     2    2
    22    11    10    1
    23     2     3    1
    24     2     9    1
    25     3     4    1
    26    10     9    2
    27     9     8    1
    28     4     5    2
    29     8     5    1
    30     5     6    1
    31     6     7    1
