@<TRIPOS>MOLECULE
2yiu_SMA_A_1.pdb
 37 38 0 0 0
SMALL
GASTEIGER

@<TRIPOS>ATOM
      1  C2         3.5990  -39.4940  -40.1990 C.ar  502  SMA502      0.1220
      2  C3         3.1510  -38.8960  -41.3970 C.ar  502  SMA502      0.0475
      3  C3M        2.5660  -39.7300  -42.5270 C.3   502  SMA502      0.0373
      4  C4         3.2310  -37.5110  -41.5880 C.ar  502  SMA502      0.2002
      5  C4A        3.8100  -36.7450  -40.5900 C.ar  502  SMA502      0.1105
      6  C5         4.0470  -35.3670  -40.7580 C.ar  502  SMA502      0.1479
      7  C5M        4.3530  -33.3520  -42.0850 C.3   502  SMA502      0.2525
      8  C6         4.6470  -34.6990  -39.6860 C.ar  502  SMA502      0.0774
      9  C7         5.0220  -35.3360  -38.5150 C.ar  502  SMA502      0.1835
     10  C7M        5.7730  -33.1980  -37.5220 C.3   502  SMA502      0.2526
     11  C8         4.7830  -36.6870  -38.3730 C.ar  502  SMA502      0.2636
     12  C8A        4.1980  -37.3790  -39.4150 C.ar  502  SMA502      0.1925
     13  C9         3.6570  -41.0010  -39.8190 C.3   502  SMA502      0.0644
     14  C10        2.3540  -41.6460  -39.3720 C.3   502  SMA502      0.0104
     15  C11        2.5890  -42.9780  -38.5740 C.3   502  SMA502      0.0278
     16  C14       -0.9770  -43.9330  -37.0680 C.3   502  SMA502      0.1395
     17  C15       -1.9830  -43.0930  -36.6000 C.2   502  SMA502      0.0029
     18  C16       -2.3660  -43.0760  -35.2590 C.2   502  SMA502     -0.0022
     19  C17       -3.3440  -42.1800  -34.8320 C.2   502  SMA502     -0.0006
     20  C18       -3.7530  -42.1510  -33.5010 C.2   502  SMA502     -0.0046
     21  C19       -4.7300  -41.2580  -33.0480 C.2   502  SMA502     -0.0261
     22  C20       -5.0970  -41.2760  -31.7290 C.2   502  SMA502     -0.0300
     23  C21       -6.1780  -40.2890  -31.3180 C.3   502  SMA502      0.0304
     24  C22        3.4530  -44.0220  -39.2730 C.3   502  SMA502      0.0025
     25  C23        0.4130  -45.3460  -39.6080 C.3   502  SMA502      0.1740
     26  C24        0.7610  -42.5050  -36.0350 C.3   502  SMA502      0.0054
     27  C25       -1.4910  -46.0120  -36.1170 C.3   502  SMA502      0.1745
     28  C26       -5.4570  -40.2470  -33.9380 C.3   502  SMA502      0.0307
     29  O1         4.0790  -38.6940  -39.2220 O.2   502  SMA502     -0.4544
     30  O4         2.8420  -36.9680  -42.6240 O.2   502  SMA502     -0.2866
     31  O5         3.6870  -34.6520  -41.9230 O.3   502  SMA502     -0.4711
     32  O7         5.6200  -34.6760  -37.4710 O.3   502  SMA502     -0.4680
     33  O8         5.1750  -37.3500  -37.2440 O.3   502  SMA502     -0.2800
     34  O12        0.7430  -43.9440  -39.5930 O.3   502  SMA502     -0.3535
     35  O14       -0.4990  -44.9720  -36.1340 O.3   502  SMA502     -0.3491
     36  C12        1.2580  -43.6810  -38.2520 C.3   502  SMA502      0.1179
     37  C13        0.1920  -42.9900  -37.3530 C.3   502  SMA502      0.0586
@<TRIPOS>BOND
     1    30     4    2
     2     3     2    1
     3     7    31    1
     4    31     6    1
     5     4     2   ar
     6     4     5   ar
     7     2     1   ar
     8     6     5   ar
     9     6     8   ar
    10     5    12   ar
    11     1    13    1
    12     1    29   ar
    13    13    14    1
    14     8     9   ar
    15    25    34    1
    16    34    36    1
    17    12    29   ar
    18    12    11   ar
    19    14    15    1
    20    24    15    1
    21    15    36    1
    22     9    11   ar
    23     9    32    1
    24    11    33    1
    25    36    37    1
    26    10    32    1
    27    37    16    1
    28    37    26    1
    29    16    17    1
    30    16    35    1
    31    17    18    2
    32    35    27    1
    33    18    19    1
    34    19    20    2
    35    28    21    1
    36    20    21    1
    37    21    22    2
    38    22    23    1
