@<TRIPOS>MOLECULE
2yiu_HEC_B_1.pdb
 43 50 0 0 0
SMALL
GASTEIGER

@<TRIPOS>ATOM
      1 FE         17.8170  -10.6620  -32.4400 Fe    500  HEC500      0.0000
      2  CHA       16.1540  -12.8490  -34.4420 C.2   500  HEC500      0.0000
      3  CHB       20.0340  -13.1970  -31.6400 C.2   500  HEC500      0.0000
      4  CHC       19.7960   -8.5580  -30.5140 C.2   500  HEC500      0.0000
      5  CHD       15.7150   -8.1340  -33.0970 C.2   500  HEC500      0.0000
      6  NA        18.0060  -12.6070  -32.9250 N.2   500  HEC500      0.0000
      7  C1A       17.2450  -13.3380  -33.8100 C.2   500  HEC500      0.0000
      8  C2A       17.7890  -14.6890  -33.9140 C.2   500  HEC500      0.0000
      9  C3A       18.8380  -14.7400  -33.1230 C.2   500  HEC500      0.0000
     10  C4A       18.9990  -13.4570  -32.4950 C.2   500  HEC500      0.0000
     11  CMA       19.7340  -15.9600  -32.9040 C.3   500  HEC500      0.0000
     12  CAA       17.3590  -15.9230  -34.7230 C.3   500  HEC500      0.0000
     13  CBA       16.0940  -15.7520  -35.5500 C.3   500  HEC500      0.0000
     14  CGA       15.8460  -17.1140  -36.1990 C.2   500  HEC500      0.0000
     15  O1A       14.6480  -17.3190  -36.5910 O.co2 500  HEC500      0.0000
     16  O2A       16.8210  -17.9650  -36.3250 O.co2 500  HEC500      0.0000
     17  NB        19.6280  -10.8320  -31.3660 N.ar  500  HEC500      0.0000
     18  C1B       20.3150  -11.9930  -31.0870 C.ar  500  HEC500      0.0000
     19  C2B       21.3830  -11.7350  -30.1550 C.ar  500  HEC500      0.0000
     20  C3B       21.2900  -10.4550  -29.8150 C.ar  500  HEC500      0.0000
     21  C4B       20.2050   -9.8570  -30.5770 C.ar  500  HEC500      0.0000
     22  CMB       22.3670  -12.7450  -29.5300 C.3   500  HEC500      0.0000
     23  CAB       22.2000   -9.7530  -28.7950 C.3   500  HEC500      0.0000
     24  CBB       23.5290   -9.4180  -29.4690 C.3   500  HEC500      0.0000
     25  NC        17.7600   -8.7360  -31.9220 N.2   500  HEC500      0.0000
     26  C1C       18.6670   -8.0600  -31.1270 C.2   500  HEC500      0.0000
     27  C2C       18.2530   -6.6780  -31.0290 C.2   500  HEC500      0.0000
     28  C3C       17.1440   -6.5290  -31.7640 C.2   500  HEC500      0.0000
     29  C4C       16.8020   -7.8240  -32.3130 C.2   500  HEC500      0.0000
     30  CMC       19.0810   -5.6370  -30.2540 C.3   500  HEC500      0.0000
     31  CAC       16.3140   -5.2420  -31.9370 C.3   500  HEC500      0.0000
     32  CBC       17.1810   -4.1300  -32.5570 C.3   500  HEC500      0.0000
     33  ND        16.2050  -10.5340  -33.5370 N.ar  500  HEC500      0.0000
     34  C1D       15.4890   -9.3620  -33.7030 C.ar  500  HEC500      0.0000
     35  C2D       14.4420   -9.6240  -34.6600 C.ar  500  HEC500      0.0000
     36  C3D       14.5620  -11.0900  -35.0450 C.ar  500  HEC500      0.0000
     37  C4D       15.7020  -11.5650  -34.3240 C.ar  500  HEC500      0.0000
     38  CMD       13.3780   -8.6490  -35.1860 C.3   500  HEC500      0.0000
     39  CAD       13.7010  -11.8770  -36.0530 C.3   500  HEC500      0.0000
     40  CBD       14.5470  -11.9760  -37.3180 C.3   500  HEC500      0.0000
     41  CGD       13.6330  -12.3500  -38.4400 C.2   500  HEC500      0.0000
     42  O1D       13.2650  -13.5600  -38.4780 O.co2 500  HEC500      0.0000
     43  O2D       13.2770  -11.4450  -39.2670 O.co2 500  HEC500      0.0000
@<TRIPOS>BOND
     1    43    41   ar
     2    42    41   ar
     3    41    40    1
     4    40    39    1
     5    15    14   ar
     6    16    14   ar
     7    14    13    1
     8    39    36    1
     9    13    12    1
    10    38    35    1
    11    36    35   ar
    12    36    37   ar
    13    12     8    1
    14    35    34   ar
    15     2    37    2
    16     2     7    1
    17    37    33   ar
    18     8     7    1
    19     8     9    2
    20     7     6    2
    21    34    33   ar
    22    34     5    2
    23    33     1    1
    24     9    11    1
    25     9    10    1
    26     5    29    1
    27     6    10    1
    28     6     1    1
    29    32    31    1
    30    10     3    2
    31     1    25    1
    32     1    17    1
    33    29    25    2
    34    29    28    1
    35    31    28    1
    36    25    26    1
    37    28    27    2
    38     3    18    1
    39    17    18   ar
    40    17    21   ar
    41    26    27    1
    42    26     4    2
    43    18    19   ar
    44    27    30    1
    45    21     4    1
    46    21    20   ar
    47    19    20   ar
    48    19    22    1
    49    20    23    1
    50    24    23    1
