@<TRIPOS>MOLECULE
2yiu_HEM_A_1.pdb
 43 50 0 0 0
SMALL
GASTEIGER

@<TRIPOS>ATOM
      1  CHA        6.1470  -37.8450  -23.9420 C.2   500  HEM500      0.0000
      2  CHB        6.3610  -42.1170  -26.2820 C.2   500  HEM500      0.0000
      3  CHC        4.9640  -44.3440  -22.2050 C.2   500  HEM500      0.0000
      4  CHD        4.0230  -40.0710  -20.1140 C.2   500  HEM500      0.0000
      5  C1A        6.4040  -38.8330  -24.8620 C.ar  500  HEM500      0.0000
      6  C2A        7.0820  -38.5880  -26.0930 C.ar  500  HEM500      0.0000
      7  C3A        7.1670  -39.7380  -26.7950 C.ar  500  HEM500      0.0000
      8  C4A        6.5200  -40.7760  -25.9880 C.ar  500  HEM500      0.0000
      9  CMA        7.8580  -39.8500  -28.1860 C.3   500  HEM500      0.0000
     10  CAA        7.6400  -37.2060  -26.4640 C.3   500  HEM500      0.0000
     11  CBA        9.1260  -37.2770  -26.0900 C.3   500  HEM500      0.0000
     12  CGA        9.6950  -35.8680  -26.0570 C.2   500  HEM500      0.0000
     13  O1A        9.4780  -35.0980  -25.0730 O.co2 500  HEM500      0.0000
     14  O2A       10.3720  -35.4870  -27.0450 O.co2 500  HEM500      0.0000
     15  C1B        6.0340  -43.1130  -25.3850 C.2   500  HEM500      0.0000
     16  C2B        6.0470  -44.5480  -25.6030 C.2   500  HEM500      0.0000
     17  C3B        5.6730  -45.1040  -24.4500 C.2   500  HEM500      0.0000
     18  C4B        5.4120  -44.0920  -23.4810 C.2   500  HEM500      0.0000
     19  CMB        6.4250  -45.3110  -26.9160 C.3   500  HEM500      0.0000
     20  CAB        5.5140  -46.5890  -24.1120 C.2   500  HEM500      0.0000
     21  CBB        5.2580  -47.4680  -25.0890 C.2   500  HEM500      0.0000
     22  C1C        4.4340  -43.4280  -21.3220 C.ar  500  HEM500      0.0000
     23  C2C        3.6160  -43.6750  -20.1330 C.ar  500  HEM500      0.0000
     24  C3C        3.3790  -42.4830  -19.5820 C.ar  500  HEM500      0.0000
     25  C4C        4.0110  -41.4350  -20.3650 C.ar  500  HEM500      0.0000
     26  CMC        3.0460  -45.0150  -19.5520 C.3   500  HEM500      0.0000
     27  CAC        2.5260  -42.3210  -18.3120 C.2   500  HEM500      0.0000
     28  CBC        2.7780  -41.2720  -17.5330 C.2   500  HEM500      0.0000
     29  C1D        4.5470  -39.0650  -20.9030 C.2   500  HEM500      0.0000
     30  C2D        4.5390  -37.6180  -20.6230 C.2   500  HEM500      0.0000
     31  C3D        5.1860  -36.9360  -21.8420 C.2   500  HEM500      0.0000
     32  C4D        5.5150  -38.0110  -22.7320 C.2   500  HEM500      0.0000
     33  CMD        3.9810  -36.8630  -19.3890 C.3   500  HEM500      0.0000
     34  CAD        5.4620  -35.4410  -22.0400 C.3   500  HEM500      0.0000
     35  CBD        6.8580  -35.1130  -21.4860 C.3   500  HEM500      0.0000
     36  CGD        7.9140  -35.2860  -22.5680 C.2   500  HEM500      0.0000
     37  O1D        7.7310  -34.8200  -23.7410 O.co2 500  HEM500      0.0000
     38  O2D        8.9520  -35.9330  -22.2760 O.co2 500  HEM500      0.0000
     39  NA         6.0760  -40.1810  -24.8270 N.ar  500  HEM500      0.0000
     40  NB         5.6460  -42.8890  -24.0750 N.2   500  HEM500      0.0000
     41  NC         4.6510  -42.0650  -21.4210 N.ar  500  HEM500      0.0000
     42  ND         5.1280  -39.2360  -22.1480 N.2   500  HEM500      0.0000
     43 FE          5.3390  -41.0680  -23.1550 Fe    500  HEM500      0.0000
@<TRIPOS>BOND
     1     9     7    1
     2    14    12   ar
     3    19    16    1
     4     7     6   ar
     5     7     8   ar
     6    10     6    1
     7    10    11    1
     8     2     8    2
     9     2    15    1
    10     6     5   ar
    11    11    12    1
    12    12    13   ar
    13     8    39   ar
    14    16    15    1
    15    16    17    2
    16    15    40    2
    17    21    20    2
    18     5    39   ar
    19     5     1    2
    20    39    43    1
    21    17    20    1
    22    17    18    1
    23    40    18    1
    24    40    43    1
    25     1    32    1
    26    37    36   ar
    27    18     3    2
    28    43    42    1
    29    43    41    1
    30    32    42    2
    31    32    31    1
    32    36    38   ar
    33    36    35    1
    34     3    22    1
    35    42    29    1
    36    34    31    1
    37    34    35    1
    38    31    30    2
    39    41    22   ar
    40    41    25   ar
    41    22    23   ar
    42    29    30    1
    43    29     4    2
    44    30    33    1
    45    25     4    1
    46    25    24   ar
    47    23    24   ar
    48    23    26    1
    49    24    27    1
    50    27    28    2
