@<TRIPOS>MOLECULE
2yiv_NBN_X_1.pdb
 15 14 0 0 0
SMALL
GASTEIGER

@<TRIPOS>ATOM
      1  C         56.3270    5.3160   35.4000 C.2   5005  NBN5005     0.1124
      2  N         57.2480    6.2230   35.2670 N.2   5005  NBN5005    -0.2795
      3  C1        58.6160    6.6310   35.5190 C.3   5005  NBN5005     0.0405
      4  C2        59.8390    6.0250   34.8440 C.3   5005  NBN5005    -0.0336
      5  C3        59.7980    5.6050   33.3820 C.3   5005  NBN5005    -0.0542
      6  C4        61.1440    5.0040   32.9980 C.3   5005  NBN5005    -0.0652
      7  H11       58.6570    7.7020   35.3240 H     5005  NBN5005     0.0508
      8  H12       58.7750    6.5250   36.5920 H     5005  NBN5005     0.0508
      9  H21       60.6550    6.7400   34.9510 H     5005  NBN5005     0.0283
     10  H22       60.1280    5.1490   35.4240 H     5005  NBN5005     0.0283
     11  H31       59.0070    4.8690   33.2310 H     5005  NBN5005     0.0263
     12  H32       59.5850    6.4690   32.7540 H     5005  NBN5005     0.0263
     13  H41       61.9150    5.7720   33.0590 H     5005  NBN5005     0.0230
     14  H42       61.3880    4.1900   33.6820 H     5005  NBN5005     0.0230
     15  H43       61.0940    4.6200   31.9800 H     5005  NBN5005     0.0230
@<TRIPOS>BOND
     1    15     6    1
     2    12     5    1
     3     6    13    1
     4     6     5    1
     5     6    14    1
     6    11     5    1
     7     5     4    1
     8     4     9    1
     9     4    10    1
    10     4     3    1
    11     2     1    2
    12     2     3    1
    13     7     3    1
    14     3     8    1
