@<TRIPOS>MOLECULE
2yiv_YIV_X_1.pdb
 16 15 0 0 0
SMALL
GASTEIGER

@<TRIPOS>ATOM
      1  C         55.6290   13.1790   45.5810 C.2   5003  YIV5003     0.3320
      2  N         56.3870   12.8570   44.6600 N.2   5003  YIV5003    -0.2423
      3  C1        57.4230   11.8540   44.7760 C.3   5003  YIV5003     0.0437
      4  O1        54.6870   14.1220   45.4070 O.2   5003  YIV5003    -0.2603
      5  C2        58.6250   12.3690   43.9980 C.3   5003  YIV5003    -0.0335
      6  C3        59.5920   11.2500   43.6410 C.3   5003  YIV5003    -0.0542
      7  C4        60.6350   11.7230   42.6480 C.3   5003  YIV5003    -0.0652
      8  H1        57.0800   10.9050   44.3590 H     5003  YIV5003     0.0509
      9  H1A       57.6870   11.7020   45.8250 H     5003  YIV5003     0.0509
     10  H2        58.2810   12.8540   43.0820 H     5003  YIV5003     0.0283
     11  H2A       59.1470   13.1200   44.5960 H     5003  YIV5003     0.0283
     12  H3        59.0370   10.4130   43.2140 H     5003  YIV5003     0.0263
     13  H3A       60.0880   10.8960   44.5480 H     5003  YIV5003     0.0263
     14  H4        60.1640   11.9690   41.7320 H     5003  YIV5003     0.0230
     15  H4A       61.3430   10.9520   42.4850 H     5003  YIV5003     0.0230
     16  H4B       61.1280   12.5780   43.0320 H     5003  YIV5003     0.0230
@<TRIPOS>BOND
     1    14     7    1
     2    15     7    1
     3     7    16    1
     4     7     6    1
     5    10     5    1
     6    12     6    1
     7     6     5    1
     8     6    13    1
     9     5    11    1
    10     5     3    1
    11     8     3    1
    12     2     3    1
    13     2     1    2
    14     3     9    1
    15     4     1    1
