@<TRIPOS>MOLECULE
2yiw_I46_A_1.pdb
 19 21 0 0 0
SMALL
GASTEIGER

@<TRIPOS>ATOM
      1  C1        24.2000   14.1610   13.8370 C.ar  1354  I461354    -0.0012
      2  C2        25.9180   15.1220   12.4330 C.ar  1354  I461354    -0.0012
      3  C3        24.6750   14.9470   14.8940 C.ar  1354  I461354     0.0293
      4  C4        26.3930   15.9240   13.4860 C.ar  1354  I461354     0.0293
      5  C5        23.2640   16.1160   10.5840 C.ar  1354  I461354     0.0221
      6  C6        22.9950   17.4010   10.1520 C.ar  1354  I461354     0.1013
      7  C7        23.9080   15.4220    8.3220 C.ar  1354  I461354     0.0509
      8  C8        24.4590   12.0570   11.5680 C.2   1354  I461354     0.1057
      9  C9        24.8230   14.2490   12.6060 C.ar  1354  I461354    -0.0110
     10  C10       25.7620   15.8140   14.7280 C.ar  1354  I461354     0.1401
     11  C11       23.7320   15.0980    9.6790 C.ar  1354  I461354     0.0213
     12  C12       23.6070   16.7580    8.0150 C.ar  1354  I461354     0.2224
     13  C13       24.4140   13.4010   11.4860 C.3   1354  I461354     0.1073
     14  C14       23.9680   13.7180   10.1790 C.2   1354  I461354     0.0901
     15  N15       24.0930   11.5040   10.3890 N.2   1354  I461354    -0.1507
     16  N16       23.1880   17.6940    8.8930 N.ar  1354  I461354    -0.2165
     17  N17       23.7760   12.5510    9.5060 N.2   1354  I461354    -0.1519
     18  F18       26.1740   16.5560   15.7660 F     1354  I461354    -0.2042
     19  F19       23.7410   17.1220    6.7810 F     1354  I461354    -0.1832
@<TRIPOS>BOND
     1    19    12    1
     2    12     7   ar
     3    12    16   ar
     4     7    11   ar
     5    16     6   ar
     6    17    14    2
     7    17    15    1
     8    11    14    1
     9    11     5   ar
    10     6     5   ar
    11    14    13    1
    12    15     8    2
    13    13     8    1
    14    13     9    1
    15     2     9   ar
    16     2     4   ar
    17     9     1   ar
    18     4    10   ar
    19     1     3   ar
    20    10     3   ar
    21    10    18    1
