@<TRIPOS>MOLECULE
2yiw_YIW_A_1.pdb
 39 43 0 0 0
SMALL
GASTEIGER

@<TRIPOS>ATOM
      1  C1        -2.6770   -1.1470   25.0570 C.3   1353  YIW1353     0.0080
      2  C2        -1.3830   -1.7130   24.5010 C.3   1353  YIW1353     0.0591
      3  C3        -0.9370   -2.6450   25.6400 C.3   1353  YIW1353     0.0080
      4  C4        -1.6540   -2.4960   23.2180 C.ar  1353  YIW1353     0.1467
      5  N5        -1.5330   -3.8040   23.0350 N.ar  1353  YIW1353    -0.1330
      6  N6        -1.8140   -4.1260   21.8200 N.ar  1353  YIW1353    -0.1287
      7  C7        -2.1250   -3.0540   21.1500 C.ar  1353  YIW1353     0.1702
      8  C8        -2.4840   -2.8420   19.8000 C.ar  1353  YIW1353     0.0398
      9  C9        -2.7370   -1.5210   19.3970 C.ar  1353  YIW1353     0.0111
     10  C10       -2.6330   -0.4500   20.2920 C.ar  1353  YIW1353     0.0471
     11  S11       -2.9340    1.2000   19.8170 S.3   1353  YIW1353    -0.0857
     12  C12       -4.0860    0.9890   18.4730 C.ar  1353  YIW1353     0.0272
     13  C13       -5.3060    0.2330   18.5950 C.ar  1353  YIW1353     0.0062
     14  C14       -6.1450    0.0570   17.5230 C.ar  1353  YIW1353     0.0005
     15  C15       -5.8020    0.6300   16.3000 C.ar  1353  YIW1353    -0.0002
     16  C16       -4.6510    1.4270   16.1550 C.ar  1353  YIW1353    -0.0021
     17  C17       -3.8050    1.5850   17.2370 C.ar  1353  YIW1353     0.0055
     18  C18       -2.5320    2.3300   17.0920 C.3   1353  YIW1353     0.1437
     19  N19       -2.3170    3.1240   15.8490 N.am  1353  YIW1353    -0.1820
     20  C20       -1.2080    2.8960   15.1390 C.2   1353  YIW1353     0.3451
     21  O21       -0.2930    2.0510   15.4610 O.2   1353  YIW1353    -0.2488
     22  N22       -0.9340    3.7040   14.1640 N.am  1353  YIW1353    -0.1420
     23  C23        0.1940    3.6330   13.3190 C.ar  1353  YIW1353     0.1587
     24  C24        1.0930    2.6260   13.0600 C.ar  1353  YIW1353     0.0527
     25  C25        2.0640    3.1380   12.1530 C.ar  1353  YIW1353     0.0811
     26  N26        1.7550    4.3570   11.9740 N.ar  1353  YIW1353    -0.1683
     27  N27        0.5570    4.6740   12.5920 N.ar  1353  YIW1353    -0.2145
     28  C28        0.0260    5.9980   12.6040 C.ar  1353  YIW1353     0.0842
     29  C29       -0.0110    6.7690   11.4050 C.ar  1353  YIW1353     0.0192
     30  C30       -0.5200    8.0700   11.4390 C.ar  1353  YIW1353     0.0015
     31  C31       -0.9460    8.6100   12.6350 C.ar  1353  YIW1353     0.0001
     32  C32       -0.9140    7.8790   13.8190 C.ar  1353  YIW1353     0.0015
     33  C33       -0.3960    6.5720   13.7820 C.ar  1353  YIW1353     0.0192
     34  C34        3.2540    2.4380   11.5470 C.3   1353  YIW1353     0.0372
     35  C35        2.7650    1.4970   10.4460 C.3   1353  YIW1353     0.0060
     36  C36        4.2970    3.4070   10.9790 C.3   1353  YIW1353     0.0060
     37  C37        3.9230    1.5920   12.5560 C.3   1353  YIW1353     0.0060
     38  C38       -2.2920   -0.6770   21.5810 C.ar  1353  YIW1353     0.0890
     39  N39       -2.0250   -1.9860   22.0160 N.ar  1353  YIW1353    -0.2754
@<TRIPOS>BOND
     1    35    34    1
     2    36    34    1
     3    29    30   ar
     4    29    28   ar
     5    30    31   ar
     6    34    25    1
     7    34    37    1
     8    26    25   ar
     9    26    27   ar
    10    25    24   ar
    11    27    28    1
    12    27    23   ar
    13    28    33   ar
    14    31    32   ar
    15    24    23   ar
    16    23    22    1
    17    33    32   ar
    18    22    20   am
    19    20    21    2
    20    20    19   am
    21    19    18    1
    22    16    15   ar
    23    16    17   ar
    24    15    14   ar
    25    18    17    1
    26    17    12   ar
    27    14    13   ar
    28    12    13   ar
    29    12    11    1
    30     9     8   ar
    31     9    10   ar
    32     8     7   ar
    33    11    10    1
    34    10    38   ar
    35     7     6   ar
    36     7    39   ar
    37    38    39   ar
    38     6     5   ar
    39    39     4   ar
    40     5     4   ar
    41     4     2    1
    42     2     1    1
    43     2     3    1
