@<TRIPOS>MOLECULE
2yix_YIX_A_1.pdb
 26 28 0 0 0
SMALL
GASTEIGER

@<TRIPOS>ATOM
      1  C1         8.5280   17.2300   36.3980 C.3   1355  YIX1355     0.0253
      2  C2         7.1460   16.5010   36.3100 C.3   1355  YIX1355     0.1169
      3  N3         6.9180   16.2210   34.8940 N.am  1355  YIX1355    -0.1872
      4  C4         5.9700   15.3700   34.3970 C.2   1355  YIX1355     0.3396
      5  O5         5.2290   14.7830   35.1330 O.2   1355  YIX1355    -0.2492
      6  N6         5.8650   15.2070   33.0480 N.am  1355  YIX1355    -0.1823
      7  C7         4.8920   14.3470   32.3640 C.3   1355  YIX1355     0.1437
      8  C8         5.4110   13.4900   31.1850 C.ar  1355  YIX1355     0.0055
      9  C9         6.8000   13.1650   31.0270 C.ar  1355  YIX1355    -0.0021
     10  C10        7.2070   12.3470   29.9600 C.ar  1355  YIX1355    -0.0002
     11  C11        6.2480   11.8430   29.0460 C.ar  1355  YIX1355     0.0005
     12  C12        4.8890   12.1440   29.1880 C.ar  1355  YIX1355     0.0062
     13  C13        4.4470   12.9680   30.2620 C.ar  1355  YIX1355     0.0272
     14  S14        2.6740   13.3220   30.4940 S.3   1355  YIX1355    -0.0857
     15  C15        2.1030   11.7270   30.9540 C.ar  1355  YIX1355     0.0471
     16  C16        2.9500   10.7500   31.6200 C.ar  1355  YIX1355     0.0111
     17  C17        2.4100    9.4980   31.9660 C.ar  1355  YIX1355     0.0398
     18  C18        1.0220    9.1850   31.6420 C.ar  1355  YIX1355     0.1702
     19  N19        0.2130    8.1030   31.8050 N.ar  1355  YIX1355    -0.1287
     20  N20       -0.9520    8.3870   31.3210 N.ar  1355  YIX1355    -0.1330
     21  C21       -0.9800    9.6140   30.8150 C.ar  1355  YIX1355     0.1467
     22  C22       -2.1310   10.3600   30.1590 C.3   1355  YIX1355     0.0591
     23  C23       -2.3640    9.9260   28.7240 C.3   1355  YIX1355     0.0080
     24  C24       -3.4370   10.1460   30.8860 C.3   1355  YIX1355     0.0080
     25  N25        0.2480   10.1580   30.9960 N.ar  1355  YIX1355    -0.2754
     26  C26        0.7710   11.4140   30.6720 C.ar  1355  YIX1355     0.0890
@<TRIPOS>BOND
     1    23    22    1
     2    11    12   ar
     3    11    10   ar
     4    12    13   ar
     5    10     9   ar
     6    22    21    1
     7    22    24    1
     8    13    14    1
     9    13     8   ar
    10    14    15    1
    11    26    15   ar
    12    26    25   ar
    13    21    25   ar
    14    21    20   ar
    15    15    16   ar
    16    25    18   ar
    17     9     8   ar
    18     8     7    1
    19    20    19   ar
    20    16    17   ar
    21    18    19   ar
    22    18    17   ar
    23     7     6    1
    24     6     4   am
    25     4     3   am
    26     4     5    2
    27     3     2    1
    28     2     1    1
