@<TRIPOS>MOLECULE
2yiy_YIY_A_1.pdb
 33 36 0 0 0
SMALL
GASTEIGER

@<TRIPOS>ATOM
      1  CAR      -14.7620  -48.6460  -17.3120 C.ar  4000  YIY4000     0.0991
      2  CAO      -14.2280  -49.9450  -17.2860 C.ar  4000  YIY4000     0.0238
      3  NBG      -14.3650  -47.7260  -16.4310 N.ar  4000  YIY4000    -0.2391
      4  CAT      -13.4460  -48.0110  -15.4680 C.ar  4000  YIY4000     0.1362
      5  CAQ      -12.8960  -49.3240  -15.3920 C.ar  4000  YIY4000     0.1644
      6  OAY      -12.0110  -49.6240  -14.4530 O.3   4000  YIY4000    -0.4519
      7  CBC      -10.7310  -49.8640  -14.6920 C.ar  4000  YIY4000     0.1455
      8  CAJ      -10.1450  -50.9490  -13.9510 C.ar  4000  YIY4000     0.0388
      9  CAH       -8.7790  -51.2190  -14.0860 C.ar  4000  YIY4000     0.0198
     10  CAK       -9.9710  -49.0830  -15.5710 C.ar  4000  YIY4000     0.0388
     11  CAI       -8.6140  -49.3690  -15.6840 C.ar  4000  YIY4000     0.0198
     12  CBB       -8.0010  -50.4210  -14.9440 C.ar  4000  YIY4000     0.0752
     13  NAV       -6.6410  -50.7580  -15.0050 N.am  4000  YIY4000    -0.1606
     14  CAZ       -5.6500  -50.2120  -15.7300 C.2   4000  YIY4000     0.3491
     15  OAE       -5.8830  -49.3410  -16.5270 O.2   4000  YIY4000    -0.2484
     16  NAW       -4.4060  -50.7290  -15.6750 N.am  4000  YIY4000    -0.1418
     17  CBE       -3.2200  -50.2470  -16.3400 C.ar  4000  YIY4000     0.1587
     18  CAN       -3.0300  -49.0570  -17.0300 C.ar  4000  YIY4000     0.0527
     19  CBF       -1.7000  -49.0270  -17.4930 C.ar  4000  YIY4000     0.0811
     20  CBI       -1.0180  -47.9070  -18.2820 C.3   4000  YIY4000     0.0372
     21  CAD        0.1520  -48.3240  -19.1530 C.3   4000  YIY4000     0.0060
     22  CAB       -0.4700  -46.9770  -17.2200 C.3   4000  YIY4000     0.0060
     23  CAC       -2.0140  -47.3100  -19.2890 C.3   4000  YIY4000     0.0060
     24  NAU       -1.1160  -50.1440  -17.1180 N.ar  4000  YIY4000    -0.1683
     25  NBH       -1.9980  -50.9000  -16.3790 N.ar  4000  YIY4000    -0.2145
     26  CBD       -1.6970  -52.1620  -15.9370 C.ar  4000  YIY4000     0.0865
     27  CAL       -2.5860  -53.2520  -16.1530 C.ar  4000  YIY4000     0.0193
     28  CAF       -2.2740  -54.5640  -15.7000 C.ar  4000  YIY4000     0.0039
     29  C18      -13.2990  -50.3140  -16.3000 C.ar  4000  YIY4000     0.0407
     30  CBA       -1.0360  -54.7680  -15.0650 C.ar  4000  YIY4000     0.0297
     31  F32        1.0510  -53.7520  -14.3040 F     4000  YIY4000    -0.2041
     32  CAG       -0.1510  -53.6560  -14.8950 C.ar  4000  YIY4000     0.1416
     33  CAM       -0.4880  -52.3630  -15.3210 C.ar  4000  YIY4000     0.0488
@<TRIPOS>BOND
     1    23    20    1
     2    21    20    1
     3    20    19    1
     4    20    22    1
     5    19    24   ar
     6    19    18   ar
     7     1     2   ar
     8     1     3   ar
     9     2    29   ar
    10    24    25   ar
    11    18    17   ar
    12    15    14    2
    13     3     4   ar
    14    25    17   ar
    15    25    26    1
    16    17    16    1
    17    29     5   ar
    18    27    26   ar
    19    27    28   ar
    20    26    33   ar
    21    14    16   am
    22    14    13   am
    23    28    30   ar
    24    11    10   ar
    25    11    12   ar
    26    10     7   ar
    27     4     5   ar
    28     5     6    1
    29    33    32   ar
    30    30    32   ar
    31    13    12    1
    32    12     9   ar
    33    32    31    1
    34     7     6    1
    35     7     8   ar
    36     9     8   ar
