@<TRIPOS>MOLECULE
2yiz_COA_A_1.pdb
 10 11 0 0 0
SMALL
GASTEIGER

@<TRIPOS>ATOM
      1  N1A       25.6660   -5.8430   41.3290 N.2   1069  COA1069    -0.0265
      2  C2A       25.4860   -7.2210   41.2920 C.3   1069  COA1069     0.4008
      3  N3A       25.9740   -8.0110   42.3260 N.2   1069  COA1069    -0.1640
      4  C4A       26.6440   -7.4220   43.3640 C.1   1069  COA1069     0.0579
      5  C5A       26.8280   -6.0330   43.4100 C.2   1069  COA1069     0.2303
      6  C6A       26.3320   -5.2290   42.3790 C.2   1069  COA1069     0.4393
      7  N6A       26.1960   -3.9140   42.5770 N.pl3 1069  COA1069     0.2185
      8  N7A       27.5070   -5.7320   44.5420 N.2   1069  COA1069    -0.2267
      9  C8A       27.7560   -6.8820   45.2140 C.3   1069  COA1069     0.2618
     10  N9A       27.2290   -7.9380   44.5030 N.2   1069  COA1069    -0.1914
@<TRIPOS>BOND
     1     2     1    1
     2     2     3    1
     3     1     6    2
     4     3     4    2
     5     6     7    1
     6     6     5    1
     7     4     5    1
     8     4    10    2
     9     5     8    2
    10    10     9    1
    11     8     9    1
