@<TRIPOS>MOLECULE
2yiz_FMN_A_1.pdb
 31 33 0 0 0
SMALL
GASTEIGER

@<TRIPOS>ATOM
      1  N1        17.6580    9.0440   45.9560 N.2   1070  FMN1070    -0.2887
      2  C2        17.7330    9.7970   47.1010 C.1   1070  FMN1070     0.3669
      3  O2        18.5230   10.7280   47.1320 O.2   1070  FMN1070    -0.1744
      4  N3        16.9240    9.4970   48.1990 N.2   1070  FMN1070    -0.2300
      5  C4        16.0300    8.4570   48.1280 C.1   1070  FMN1070     0.2513
      6  O4        15.3090    8.2030   49.1060 O.2   1070  FMN1070    -0.2057
      7  C4A       15.9520    7.6900   46.9490 C.2   1070  FMN1070     0.2703
      8  N5        15.0510    6.6450   46.8220 N.2   1070  FMN1070    -0.3882
      9  C5A       14.9900    5.8820   45.6520 C.2   1070  FMN1070     0.1277
     10  C6        14.0900    4.8150   45.5500 C.3   1070  FMN1070     0.0820
     11  C7        14.0240    4.0480   44.3840 C.2   1070  FMN1070    -0.0408
     12  C7M       13.0580    2.9070   44.2910 C.3   1070  FMN1070     0.0265
     13  C8        14.8560    4.3490   43.3190 C.2   1070  FMN1070    -0.0280
     14  C8M       14.8020    3.5390   42.0530 C.3   1070  FMN1070     0.0304
     15  C9        15.7520    5.4060   43.4100 C.2   1070  FMN1070     0.0123
     16  C9A       15.8220    6.1950   44.5720 C.2   1070  FMN1070     0.0793
     17  N10       16.7010    7.2640   44.6950 N.pl3 1070  FMN1070    -0.2545
     18  C10       16.7690    8.0000   45.8680 C.2   1070  FMN1070     0.2449
     19  C1'       17.6280    7.6540   43.5750 C.3   1070  FMN1070     0.1336
     20  C2'       18.8820    6.8120   43.7120 C.3   1070  FMN1070     0.2048
     21  O2'       19.5110    7.0820   44.9520 O.3   1070  FMN1070    -0.2185
     22  C3'       19.8610    7.0870   42.5780 C.3   1070  FMN1070     0.2165
     23  O3'       20.2910    8.4240   42.6850 O.3   1070  FMN1070    -0.2175
     24  C4'       19.2470    6.8540   41.1980 C.3   1070  FMN1070     0.2147
     25  O4'       18.4630    5.6830   41.1590 O.3   1070  FMN1070    -0.2176
     26  C5'       20.3440    6.7150   40.1570 C.3   1070  FMN1070     0.1892
     27  O5'       21.2350    5.6950   40.5400 O.3   1070  FMN1070    -0.2674
     28  P         22.1040    4.8780   39.4500 P.3   1070  FMN1070     0.5327
     29  O1P       22.9920    5.8770   38.7240 O.3   1070  FMN1070    -0.1145
     30  O2P       22.8890    3.8120   40.1790 O.3   1070  FMN1070    -0.1145
     31  O3P       21.1820    4.2680   38.4280 O.2   1070  FMN1070    -0.2224
@<TRIPOS>BOND
     1    31    28    2
     2    29    28    1
     3    28    30    1
     4    28    27    1
     5    26    27    1
     6    26    24    1
     7    25    24    1
     8    24    22    1
     9    14    13    1
    10    22    23    1
    11    22    20    1
    12    13    15    1
    13    13    11    2
    14    15    16    2
    15    19    20    1
    16    19    17    1
    17    20    21    1
    18    12    11    1
    19    11    10    1
    20    16    17    1
    21    16     9    1
    22    17    18    1
    23    10     9    1
    24     9     8    2
    25    18     1    2
    26    18     7    1
    27     1     2    2
    28     8     7    2
    29     7     5    1
    30     2     3    2
    31     2     4    2
    32     5     4    2
    33     5     6    2
