@<TRIPOS>MOLECULE
2yj0_FMN_A_1.pdb
 31 33 0 0 0
SMALL
GASTEIGER

@<TRIPOS>ATOM
      1  N1       -31.9070  -19.7110    3.8590 N.2   300  FMN300     -0.2887
      2  C2       -32.9730  -19.1860    3.1610 C.1   300  FMN300      0.3669
      3  O2       -32.8720  -19.0100    1.9470 O.2   300  FMN300     -0.1744
      4  N3       -34.1450  -18.8600    3.8160 N.2   300  FMN300     -0.2300
      5  C4       -34.2540  -19.0610    5.1760 C.1   300  FMN300      0.2513
      6  O4       -35.2980  -18.7710    5.7540 O.2   300  FMN300     -0.2057
      7  C4A      -33.1810  -19.5890    5.8850 C.2   300  FMN300      0.2703
      8  N5       -33.2710  -19.7980    7.2470 N.2   300  FMN300     -0.3882
      9  C5A      -32.2020  -20.3240    7.9420 C.2   300  FMN300      0.1277
     10  C6       -32.3050  -20.5270    9.3120 C.3   300  FMN300      0.0820
     11  C7       -31.2310  -21.0550   10.0170 C.2   300  FMN300     -0.0408
     12  C7M      -31.3350  -21.2780   11.4980 C.3   300  FMN300      0.0265
     13  C8       -30.0570  -21.3780    9.3500 C.2   300  FMN300     -0.0280
     14  C8M      -28.9030  -21.9440   10.1200 C.3   300  FMN300      0.0304
     15  C9       -29.9520  -21.1750    7.9780 C.2   300  FMN300      0.0123
     16  C9A      -31.0260  -20.6470    7.2720 C.2   300  FMN300      0.0793
     17  N10      -30.9330  -20.4350    5.9090 N.pl3 300  FMN300     -0.2545
     18  C10      -32.0070  -19.9140    5.2180 C.2   300  FMN300      0.2449
     19  C1'      -29.6850  -20.7810    5.1510 C.3   300  FMN300      0.1336
     20  C2'      -28.6710  -19.6460    5.1650 C.3   300  FMN300      0.2048
     21  O2'      -28.8920  -18.7820    4.0690 O.3   300  FMN300     -0.2185
     22  C3'      -27.2690  -20.2440    5.1050 C.3   300  FMN300      0.2165
     23  O3'      -26.4860  -19.7050    6.1430 O.3   300  FMN300     -0.2175
     24  C4'      -26.5860  -19.9880    3.7650 C.3   300  FMN300      0.2147
     25  O4'      -25.5430  -20.9200    3.5900 O.3   300  FMN300     -0.2176
     26  C5'      -26.0100  -18.5800    3.6900 C.3   300  FMN300      0.1892
     27  O5'      -24.9610  -18.4490    4.6210 O.3   300  FMN300     -0.2674
     28  P        -23.4460  -18.2850    4.1100 P.3   300  FMN300      0.5327
     29  O1P      -23.4640  -18.3230    2.6040 O.2   300  FMN300     -0.2224
     30  O2P      -22.8870  -16.9630    4.5710 O.3   300  FMN300     -0.1145
     31  O3P      -22.6120  -19.4210    4.6470 O.3   300  FMN300     -0.1145
@<TRIPOS>BOND
     1     3     2    2
     2    29    28    2
     3     2     4    2
     4     2     1    2
     5    25    24    1
     6    26    24    1
     7    26    27    1
     8    24    22    1
     9     4     5    2
    10     1    18    2
    11    21    20    1
    12    28    30    1
    13    28    27    1
    14    28    31    1
    15    22    20    1
    16    22    23    1
    17    19    20    1
    18    19    17    1
    19     5     6    2
    20     5     7    1
    21    18     7    1
    22    18    17    1
    23     7     8    2
    24    17    16    1
    25     8     9    2
    26    16     9    1
    27    16    15    2
    28     9    10    1
    29    15    13    1
    30    10    11    1
    31    13    11    2
    32    13    14    1
    33    11    12    1
