@<TRIPOS>MOLECULE
2yj0_420_A_1.pdb
 23 24 0 0 0
SMALL
GASTEIGER

@<TRIPOS>ATOM
      1  C1       -40.9130   -9.1130   16.9430 C.3   100  420100      0.0964
      2  C2       -41.4750   -8.1530   17.9550 C.2   100  420100      0.2419
      3  O3       -40.7630   -7.3230   18.5220 O.2   100  420100     -0.2733
      4  N4       -42.8290   -8.2760   18.1740 N.am  100  420100     -0.2038
      5  C5       -43.4920   -7.4120   19.1270 C.3   100  420100      0.1359
      6  C6       -44.2140   -6.2370   18.4630 C.3   100  420100      0.1388
      7  N7       -43.3650   -5.0360   18.2690 N.3   100  420100     -0.0759
      8  S8       -43.5120   -4.1120   16.8660 S.O2  100  420100      0.0769
      9  O9       -44.8470   -4.3320   16.3400 O.2   100  420100     -0.1516
     10  O10      -42.3350   -4.4150   16.0710 O.2   100  420100     -0.1516
     11  C11      -43.4200   -2.3940   17.3600 C.ar  100  420100      0.1236
     12  C12      -42.5680   -1.5620   16.6270 C.ar  100  420100      0.0200
     13  C13      -42.4400   -0.2200   16.9540 C.ar  100  420100      0.0014
     14  C14      -43.1660    0.3180   18.0100 C.ar  100  420100      0.0013
     15  C15      -44.0420   -0.4680   18.7940 C.ar  100  420100      0.0146
     16  C16      -44.1710   -1.8520   18.4580 C.ar  100  420100      0.0199
     17  C17      -45.0520   -2.6320   19.2460 C.ar  100  420100      0.0014
     18  C18      -45.7640   -2.0790   20.3000 C.ar  100  420100      0.0013
     19  C19      -45.6260   -0.7320   20.6130 C.ar  100  420100      0.0145
     20  C20      -44.7700    0.1140   19.8800 C.ar  100  420100      0.0479
     21  N21      -44.7040    1.4540   20.2800 N.pl3 100  420100     -0.3041
     22  C22      -45.4970    1.9190   21.4030 C.3   100  420100      0.1122
     23  C23      -43.8440    2.3770   19.5700 C.3   100  420100      0.1122
@<TRIPOS>BOND
     1    10     8    2
     2     9     8    2
     3    12    13   ar
     4    12    11   ar
     5     8    11    1
     6     8     7    1
     7     1     2    1
     8    13    14   ar
     9    11    16   ar
    10     2     4   am
    11     2     3    2
    12    14    15   ar
    13     4     5    1
    14     7     6    1
    15    16    15   ar
    16    16    17   ar
    17     6     5    1
    18    15    20   ar
    19    17    18   ar
    20    23    21    1
    21    20    21    1
    22    20    19   ar
    23    21    22    1
    24    18    19   ar
