@<TRIPOS>MOLECULE
2yj0_COA_A_1.pdb
 48 50 0 0 0
SMALL
GASTEIGER

@<TRIPOS>ATOM
      1  N1A      -19.6810  -10.0100   11.5130 N.2   200  COA200      0.0021
      2  C2A      -18.9540   -9.3780   12.5050 C.3   200  COA200      0.5254
      3  N3A      -18.9760   -7.9990   12.6090 N.2   200  COA200     -0.0055
      4  C4A      -19.7100   -7.2640   11.7350 C.2   200  COA200      0.3518
      5  C5A      -20.4430   -7.8890   10.7310 C.2   200  COA200      0.2526
      6  C6A      -20.4270   -9.2750   10.6130 C.2   200  COA200      0.4393
      7  N6A      -20.7200   -9.8170    9.4350 N.pl3 200  COA200      0.2180
      8  N7A      -21.0690   -6.9310   10.0220 N.2   200  COA200     -0.2095
      9  C8A      -20.7540   -5.7280   10.5450 C.3   200  COA200      0.3377
     10  N9A      -19.9110   -5.9150   11.6050 N.pl3 200  COA200     -0.1439
     11  C1B      -19.5190   -4.9080   12.6010 C.3   200  COA200      0.3185
     12  C2B      -19.0220   -3.5970   11.9940 C.3   200  COA200      0.2543
     13  O2B      -17.6730   -3.6340   11.5860 O.3   200  COA200     -0.2131
     14  C3B      -19.2420   -2.6790   13.1690 C.3   200  COA200      0.1928
     15  O3B      -18.2510   -2.9620   14.1270 O.3   200  COA200     -0.2673
     16  P3B      -17.4220   -1.8540   14.9460 P.3   200  COA200      0.5327
     17  O7A      -16.5140   -1.1070   13.9950 O.2   200  COA200     -0.2224
     18  O8A      -16.6240   -2.5790   16.0130 O.3   200  COA200     -0.1145
     19  O9A      -18.3940   -0.8840   15.5800 O.3   200  COA200     -0.1145
     20  C4B      -20.5800   -3.1620   13.6950 C.3   200  COA200      0.1795
     21  O4B      -20.6190   -4.5530   13.4220 O.3   200  COA200     -0.3136
     22  C5B      -21.7460   -2.4670   13.0060 C.3   200  COA200      0.1812
     23  O5B      -21.8230   -1.1300   13.4340 O.3   200  COA200     -0.3112
     24  P1A      -23.0180   -0.6640   14.4000 P.3   200  COA200      0.2189
     25  O1A      -22.6460    0.6200   15.0950 O.2   200  COA200     -0.5170
     26  O2A      -23.3360   -1.7470   15.4040 O.3   200  COA200     -0.4371
     27  O3A      -24.2250   -0.4250   13.3630 O.3   200  COA200     -0.2703
     28  P2A      -25.6330    0.1520   13.8660 P.3   200  COA200      0.2188
     29  O4A      -26.7340   -0.2370   12.9060 O.2   200  COA200     -0.5170
     30  O5A      -25.5730    1.6450   14.0580 O.3   200  COA200     -0.4371
     31  O6A      -25.8890   -0.5760   15.2760 O.3   200  COA200     -0.3138
     32  CBP      -26.4630   -0.6250   17.6030 C.3   200  COA200      0.0645
     33  CCP      -25.7200    0.1060   16.4980 C.3   200  COA200      0.1519
     34  CDP      -26.0680   -0.0020   18.9360 C.3   200  COA200      0.0056
     35  CEP      -27.9530   -0.4300   17.3510 C.3   200  COA200      0.0056
     36  CAP      -26.1320   -2.1180   17.6050 C.3   200  COA200      0.2312
     37  OAP      -24.7370   -2.3290   17.5750 O.3   200  COA200     -0.2131
     38  C9P      -26.7320   -2.7800   18.8100 C.2   200  COA200      0.2719
     39  O9P      -28.1220   -2.7240   19.0300 O.2   200  COA200     -0.2706
     40  N8P      -25.9050   -3.4050   19.6360 N.am  200  COA200     -0.2028
     41  C7P      -26.4070   -4.0760   20.8100 C.3   200  COA200      0.1248
     42  C6P      -26.4670   -3.1290   21.9990 C.3   200  COA200      0.1102
     43  C5P      -26.9990   -3.8600   23.2050 C.2   200  COA200      0.2432
     44  O5P      -26.9530   -5.0930   23.2790 O.2   200  COA200     -0.2733
     45  N4P      -27.5130   -3.1070   24.1650 N.am  200  COA200     -0.2044
     46  C3P      -27.0340   -3.2130   25.5250 C.3   200  COA200      0.1276
     47  C2P      -27.9970   -2.5700   26.5120 C.3   200  COA200      0.0920
     48  S1P      -28.2110   -3.5800   27.9950 S.3   200  COA200     -0.0802
@<TRIPOS>BOND
     1     7     6    1
     2     8     9    1
     3     8     5    2
     4     9    10    1
     5     6     5    1
     6     6     1    2
     7     5     4    1
     8     1     2    1
     9    13    12    1
    10    10     4    1
    11    10    11    1
    12     4     3    2
    13    12    11    1
    14    12    14    1
    15     2     3    1
    16    11    21    1
    17    29    28    2
    18    22    23    1
    19    22    20    1
    20    14    20    1
    21    14    15    1
    22    27    28    1
    23    27    24    1
    24    21    20    1
    25    23    24    1
    26    28    30    1
    27    28    31    1
    28    17    16    2
    29    15    16    1
    30    24    25    2
    31    24    26    1
    32    16    19    1
    33    16    18    1
    34    31    33    1
    35    33    32    1
    36    35    32    1
    37    37    36    1
    38    32    36    1
    39    32    34    1
    40    36    38    1
    41    38    39    2
    42    38    40   am
    43    40    41    1
    44    41    42    1
    45    42    43    1
    46    43    44    2
    47    43    45   am
    48    45    46    1
    49    46    47    1
    50    47    48    1
