@<TRIPOS>MOLECULE
2yj4_AMP_A_1.pdb
 23 25 0 0 0
SMALL
GASTEIGER

@<TRIPOS>ATOM
      1  P        -33.6850   -6.7120   31.5000 P.3   1635  AMP1635     0.5327
      2  O1P      -34.2360   -5.6190   30.6120 O.2   1635  AMP1635    -0.2224
      3  O2P      -34.7030   -7.0520   32.5680 O.3   1635  AMP1635    -0.1145
      4  O3P      -33.1410   -7.8360   30.6420 O.3   1635  AMP1635    -0.1145
      5  O5'      -32.4770   -5.9080   32.1560 O.3   1635  AMP1635    -0.2675
      6  C5'      -31.5260   -5.2360   31.3470 C.3   1635  AMP1635     0.1860
      7  C4'      -30.2210   -5.0520   32.0730 C.3   1635  AMP1635     0.1823
      8  O4'      -30.4800   -4.6570   33.4440 O.3   1635  AMP1635    -0.3135
      9  C3'      -29.3570   -6.2960   32.2100 C.3   1635  AMP1635     0.2184
     10  O3'      -28.6100   -6.5850   31.0410 O.3   1635  AMP1635    -0.2174
     11  C2'      -28.4960   -5.9780   33.4300 C.3   1635  AMP1635     0.2570
     12  O2'      -27.4100   -5.1310   33.0800 O.3   1635  AMP1635    -0.2130
     13  C1'      -29.4730   -5.1740   34.2920 C.3   1635  AMP1635     0.3186
     14  N9       -30.1120   -6.0060   35.3320 N.pl3 1635  AMP1635    -0.1439
     15  C8       -31.4200   -6.3380   35.3820 C.3   1635  AMP1635     0.3377
     16  N7       -31.6920   -7.1030   36.4700 N.2   1635  AMP1635    -0.2095
     17  C5       -30.5330   -7.2630   37.1400 C.2   1635  AMP1635     0.2526
     18  C6       -30.1130   -7.9520   38.3770 C.2   1635  AMP1635     0.4393
     19  N6       -31.0160   -8.6300   39.1100 N.pl3 1635  AMP1635     0.2180
     20  N1       -28.8120   -7.8900   38.7300 N.2   1635  AMP1635     0.0021
     21  C2       -27.9100   -7.2140   37.9940 C.3   1635  AMP1635     0.5254
     22  N3       -28.2200   -6.5600   36.8590 N.2   1635  AMP1635    -0.0055
     23  C4       -29.4930   -6.5410   36.3900 C.2   1635  AMP1635     0.3518
@<TRIPOS>BOND
     1     2     1    2
     2     4     1    1
     3    10     9    1
     4     6     7    1
     5     6     5    1
     6     1     5    1
     7     1     3    1
     8     7     9    1
     9     7     8    1
    10     9    11    1
    11    12    11    1
    12    11    13    1
    13     8    13    1
    14    13    14    1
    15    14    15    1
    16    14    23    1
    17    15    16    1
    18    23    22    2
    19    23    17    1
    20    16    17    2
    21    22    21    1
    22    17    18    1
    23    21    20    1
    24    18    20    2
    25    18    19    1
