@<TRIPOS>MOLECULE
2yj4_ATP_B_1.pdb
 31 33 0 0 0
SMALL
GASTEIGER

@<TRIPOS>ATOM
      1  PG         0.0500    1.8290   19.9330 P.3   1636  ATP1636     0.5373
      2  O1G        1.2950    2.6430   20.1550 O.3   1636  ATP1636    -0.1143
      3  O2G        0.3720    0.5560   19.1830 O.2   1636  ATP1636    -0.2221
      4  O3G       -1.1870    2.5890   19.4820 O.3   1636  ATP1636    -0.1143
      5  PB         0.5980    0.9630   22.5360 P.3   1636  ATP1636     0.2277
      6  O1B        0.0760    1.4360   23.8660 O.3   1636  ATP1636    -0.4368
      7  O2B        1.9890    1.3180   22.0810 O.2   1636  ATP1636    -0.5168
      8  O3B       -0.4500    1.3580   21.3930 O.3   1636  ATP1636    -0.2258
      9  PA         1.5750   -1.3480   23.5040 P.3   1636  ATP1636     0.2189
     10  O1A        2.0510   -2.5690   22.7440 O.2   1636  ATP1636    -0.5170
     11  O2A        2.5600   -0.3690   24.1070 O.3   1636  ATP1636    -0.4371
     12  O3A        0.5300   -0.6170   22.5280 O.3   1636  ATP1636    -0.2700
     13  O5'        0.4740   -1.7270   24.6040 O.3   1636  ATP1636    -0.3112
     14  C5'       -0.7850   -2.0600   24.0290 C.3   1636  ATP1636     0.1813
     15  C4'       -1.6790   -2.5430   25.1310 C.3   1636  ATP1636     0.1821
     16  O4'       -0.8490   -3.2340   26.0520 O.3   1636  ATP1636    -0.3135
     17  C3'       -2.2370   -1.3840   25.9230 C.3   1636  ATP1636     0.2184
     18  O3'       -3.4140   -0.8470   25.3200 O.3   1636  ATP1636    -0.2174
     19  C2'       -2.5170   -2.0700   27.2330 C.3   1636  ATP1636     0.2570
     20  O2'       -3.7330   -2.8290   27.0840 O.3   1636  ATP1636    -0.2130
     21  C1'       -1.3520   -3.0350   27.3640 C.3   1636  ATP1636     0.3186
     22  N9        -0.2260   -2.5240   28.1780 N.pl3 1636  ATP1636    -0.1439
     23  C8         0.9790   -2.1710   27.7100 C.3   1636  ATP1636     0.3377
     24  N7         1.7940   -1.7770   28.7220 N.2   1636  ATP1636    -0.2095
     25  C5         1.1110   -1.8930   29.8720 C.2   1636  ATP1636     0.2526
     26  C6         1.3640   -1.6440   31.3110 C.2   1636  ATP1636     0.4393
     27  N6         2.5530   -1.1730   31.7550 N.pl3 1636  ATP1636     0.2180
     28  N1         0.3610   -1.9020   32.1830 N.2   1636  ATP1636     0.0021
     29  C2        -0.8300   -2.3670   31.7740 C.3   1636  ATP1636     0.5254
     30  N3        -1.1260   -2.6030   30.4810 N.2   1636  ATP1636    -0.0055
     31  C4        -0.2190   -2.3920   29.5050 C.2   1636  ATP1636     0.3518
@<TRIPOS>BOND
     1     3     1    2
     2     4     1    1
     3     1     2    1
     4     1     8    1
     5     8     5    1
     6     7     5    2
     7    12     5    1
     8    12     9    1
     9     5     6    1
    10    10     9    2
    11     9    11    1
    12     9    13    1
    13    14    13    1
    14    14    15    1
    15    15    17    1
    16    15    16    1
    17    18    17    1
    18    17    19    1
    19    16    21    1
    20    20    19    1
    21    19    21    1
    22    21    22    1
    23    23    22    1
    24    23    24    1
    25    22    31    1
    26    24    25    2
    27    31    25    1
    28    31    30    2
    29    25    26    1
    30    30    29    1
    31    26    27    1
    32    26    28    2
    33    29    28    1
