@<TRIPOS>MOLECULE
2yj5_A99_A_1.pdb
 42 45 0 0 0
SMALL
GASTEIGER

@<TRIPOS>ATOM
      1  PG        31.0670   -8.5440  -30.4500 P.3   1636  A991636     0.2191
      2  O1G       29.9910   -7.4790  -30.5700 O.2   1636  A991636    -0.5170
      3  O2G       30.5050   -9.8460  -31.2240 O.3   1636  A991636    -0.3118
      4  O3G       31.6240   -8.9210  -29.0930 O.3   1636  A991636    -0.4371
      5  PB        33.0580   -6.7170  -31.1200 P.3   1636  A991636     0.2237
      6  O1B       34.5550   -6.9540  -31.0990 O.2   1636  A991636    -0.5168
      7  O2B       32.3530   -5.9860  -29.9930 O.3   1636  A991636    -0.4369
      8  O3B       32.3050   -8.1110  -31.3850 O.3   1636  A991636    -0.2701
      9  PA        33.5180   -4.7350  -33.0210 P.3   1636  A991636     0.2189
     10  O1A       34.0700   -3.9540  -31.8490 O.3   1636  A991636    -0.4371
     11  O2A       34.4340   -5.2900  -34.0960 O.2   1636  A991636    -0.5170
     12  O3A       32.6600   -5.9750  -32.4860 O.3   1636  A991636    -0.2701
     13  O5'       32.3580   -3.8750  -33.7450 O.3   1636  A991636    -0.3112
     14  C5B       31.4260   -3.1040  -32.9960 C.3   1636  A991636     0.1813
     15  C4B       30.0680   -3.2660  -33.6650 C.3   1636  A991636     0.1821
     16  O4'       30.1260   -2.9240  -35.0630 O.3   1636  A991636    -0.3135
     17  C3B       29.5500   -4.6920  -33.6410 C.3   1636  A991636     0.2184
     18  O3'       28.9300   -5.0530  -32.4060 O.3   1636  A991636    -0.2174
     19  C2B       28.5760   -4.6700  -34.8000 C.3   1636  A991636     0.2570
     20  O2'       27.3540   -3.9840  -34.4980 O.3   1636  A991636    -0.2130
     21  C1B       29.3080   -3.8330  -35.8230 C.3   1636  A991636     0.3186
     22  N9        30.1300   -4.7070  -36.7160 N.pl3 1636  A991636    -0.1439
     23  C8        31.4610   -4.8930  -36.6650 C.3   1636  A991636     0.3377
     24  N7        31.8710   -5.7460  -37.6490 N.2   1636  A991636    -0.2095
     25  C5        30.7900   -6.1270  -38.3600 C.2   1636  A991636     0.2526
     26  C6        30.5080   -7.0060  -39.5380 C.2   1636  A991636     0.4393
     27  N1        29.2150   -7.1040  -39.9400 N.2   1636  A991636     0.0021
     28  C2        28.2210   -6.4380  -39.3240 C.3   1636  A991636     0.5254
     29  N3        28.4130   -5.6310  -38.2590 N.2   1636  A991636    -0.0055
     30  C4        29.6490   -5.4250  -37.7420 C.2   1636  A991636     0.3518
     31  CM'       32.3790  -11.2510  -30.5200 C.3   1636  A991636     0.0375
     32  C1'       29.1230  -13.3410  -28.2880 C.ar  1636  A991636     0.0238
     33  C2'       30.2000  -12.7950  -28.9840 C.ar  1636  A991636     0.1412
     34  N2'       31.5080  -13.1590  -28.5790 N.pl3 1636  A991636     0.0574
     35  O'L       32.1050  -12.4920  -27.7410 O.2   1636  A991636    -0.1261
     36  O'M       32.0720  -14.1330  -29.0580 O.2   1636  A991636    -0.1261
     37  C3'       29.9040  -11.8590  -30.1270 C.ar  1636  A991636     0.0274
     38  C4'       28.5710  -11.5850  -30.4290 C.ar  1636  A991636    -0.0003
     39  C5'       27.5390  -12.1570  -29.6900 C.ar  1636  A991636    -0.0001
     40  C6'       27.8100  -13.0250  -28.6350 C.ar  1636  A991636     0.0017
     41  C'        30.9270  -11.1960  -31.0020 C.3   1636  A991636     0.1457
     42  N6        31.4800   -7.6900  -40.2050 N.pl3 1636  A991636     0.2180
@<TRIPOS>BOND
     1    42    26    1
     2    27    26    2
     3    27    28    1
     4    26    25    1
     5    28    29    1
     6    25    30    1
     7    25    24    2
     8    29    30    2
     9    30    22    1
    10    24    23    1
    11    22    23    1
    12    22    21    1
    13    21    16    1
    14    21    19    1
    15    16    15    1
    16    19    20    1
    17    19    17    1
    18    11     9    2
    19    13     9    1
    20    13    14    1
    21    15    17    1
    22    15    14    1
    23    17    18    1
    24     9    12    1
    25     9    10    1
    26    12     5    1
    27     8     5    1
    28     8     1    1
    29     3    41    1
    30     3     1    1
    31     5     6    2
    32     5     7    1
    33    41    31    1
    34    41    37    1
    35     2     1    2
    36     1     4    1
    37    38    37   ar
    38    38    39   ar
    39    37    33   ar
    40    39    40   ar
    41    36    34    2
    42    33    34    1
    43    33    32   ar
    44    40    32   ar
    45    34    35    2
