@<TRIPOS>MOLECULE
2yj5_ATP_B_1.pdb
 31 33 0 0 0
SMALL
GASTEIGER

@<TRIPOS>ATOM
      1  PG        -2.5560    2.3010  -22.0930 P.3   1636  ATP1636     0.5373
      2  O1G       -2.9360    3.5530  -22.8650 O.2   1636  ATP1636    -0.2221
      3  O2G       -3.7330    1.3750  -21.8630 O.3   1636  ATP1636    -0.1143
      4  O3G       -1.6940    2.5550  -20.8770 O.3   1636  ATP1636    -0.1143
      5  PB        -0.1800    0.8330  -22.9490 P.3   1636  ATP1636     0.2277
      6  O1B       -0.2010   -0.0200  -21.7020 O.3   1636  ATP1636    -0.4368
      7  O2B        0.8960    1.8910  -23.0950 O.2   1636  ATP1636    -0.5168
      8  O3B       -1.6250    1.5260  -23.1840 O.3   1636  ATP1636    -0.2258
      9  PA        -1.1070   -1.2870  -24.6300 P.3   1636  ATP1636     0.2189
     10  O1A       -1.3050   -2.1650  -23.4120 O.3   1636  ATP1636    -0.4371
     11  O2A       -2.3010   -0.7590  -25.3890 O.2   1636  ATP1636    -0.5170
     12  O3A       -0.0790   -0.0890  -24.2730 O.3   1636  ATP1636    -0.2700
     13  O5'       -0.1800   -2.0780  -25.6850 O.3   1636  ATP1636    -0.3112
     14  C5'        0.7720   -3.0300  -25.2130 C.3   1636  ATP1636     0.1813
     15  C4'        1.7750   -3.2740  -26.3300 C.3   1636  ATP1636     0.1821
     16  O4'        1.1370   -3.9210  -27.4340 O.3   1636  ATP1636    -0.3135
     17  C3'        2.3430   -1.9750  -26.8800 C.3   1636  ATP1636     0.2184
     18  O3'        3.5260   -1.5790  -26.1660 O.3   1636  ATP1636    -0.2174
     19  C2'        2.6420   -2.3240  -28.3210 C.3   1636  ATP1636     0.2570
     20  O2'        3.9640   -2.8880  -28.4070 O.3   1636  ATP1636    -0.2130
     21  C1'        1.6290   -3.4010  -28.6740 C.3   1636  ATP1636     0.3186
     22  N9         0.4550   -2.8550  -29.4060 N.pl3 1636  ATP1636    -0.1439
     23  C8        -0.7410   -2.6220  -28.8430 C.3   1636  ATP1636     0.3377
     24  N7        -1.6230   -2.1480  -29.7570 N.2   1636  ATP1636    -0.2095
     25  C5        -0.9940   -2.0790  -30.9350 C.2   1636  ATP1636     0.2526
     26  C6        -1.3580   -1.6590  -32.3090 C.2   1636  ATP1636     0.4393
     27  N6        -2.6090   -1.2130  -32.5930 N.pl3 1636  ATP1636     0.2180
     28  N1        -0.4020   -1.7380  -33.2620 N.2   1636  ATP1636     0.0021
     29  C2         0.8340   -2.1810  -32.9890 C.3   1636  ATP1636     0.5254
     30  N3         1.2260   -2.5800  -31.7600 N.2   1636  ATP1636    -0.0055
     31  C4         0.3770   -2.5530  -30.7040 C.2   1636  ATP1636     0.3518
@<TRIPOS>BOND
     1    28    29    1
     2    28    26    2
     3    29    30    1
     4    27    26    1
     5    26    25    1
     6    30    31    2
     7    25    31    1
     8    25    24    2
     9    31    22    1
    10    24    23    1
    11    22    23    1
    12    22    21    1
    13    21    19    1
    14    21    16    1
    15    20    19    1
    16    19    17    1
    17    16    15    1
    18    17    15    1
    19    17    18    1
    20    15    14    1
    21    13    14    1
    22    13     9    1
    23    11     9    2
    24     9    12    1
    25     9    10    1
    26    12     5    1
    27     8     5    1
    28     8     1    1
    29     7     5    2
    30     5     6    1
    31     2     1    2
    32     1     3    1
    33     1     4    1
