@<TRIPOS>MOLECULE
2yj6_A99_A_1.pdb
 42 45 0 0 0
SMALL
GASTEIGER

@<TRIPOS>ATOM
      1  C'         1.2210    8.8430   26.2950 C.3   1636  A991636     0.1457
      2  N1        -6.3330    7.9780   20.5700 N.2   1636  A991636     0.0021
      3  C2        -5.7450    9.0580   20.0210 C.3   1636  A991636     0.5254
      4  N3        -4.4620    9.0750   19.6360 N.2   1636  A991636    -0.0055
      5  C4        -3.6810    7.9690   19.7790 C.2   1636  A991636     0.3518
      6  C5        -4.2570    6.7520   20.3760 C.2   1636  A991636     0.2526
      7  C6        -5.6790    6.8100   20.7840 C.2   1636  A991636     0.4393
      8  N6        -6.3090    5.7400   21.3390 N.pl3 1636  A991636     0.2180
      9  N7        -3.2750    5.8320   20.4040 N.2   1636  A991636    -0.2095
     10  C8        -2.1680    6.4080   19.8760 C.3   1636  A991636     0.3377
     11  N9        -2.4060    7.6800   19.5120 N.pl3 1636  A991636    -0.1439
     12  PA         2.1010    5.0470   20.7650 P.3   1636  A991636     0.2189
     13  PB         2.6170    5.9560   23.3570 P.3   1636  A991636     0.2237
     14  PG         3.2440    8.4600   24.5290 P.3   1636  A991636     0.2191
     15  O'L        1.7430   11.5930   26.4300 O.2   1636  A991636    -0.1261
     16  O'M        1.4410   12.5680   28.2860 O.2   1636  A991636    -0.1261
     17  C1'        2.2810   10.4000   29.6600 C.ar  1636  A991636     0.0238
     18  O1A        3.5240    5.4930   20.5170 O.2   1636  A991636    -0.5170
     19  C1B       -1.4300    8.5960   18.8850 C.3   1636  A991636     0.3186
     20  O1B        2.1020    5.1610   24.5390 O.3   1636  A991636    -0.4369
     21  O1G        4.0000    7.5880   25.5080 O.3   1636  A991636    -0.4371
     22  C2'        1.8780   10.3470   28.3350 C.ar  1636  A991636     0.1412
     23  N2'        1.6800   11.5500   27.6490 N.pl3 1636  A991636     0.0574
     24  O2'       -0.4640   10.6930   19.5160 O.3   1636  A991636    -0.2130
     25  O2A        1.7400    3.5840   20.7420 O.3   1636  A991636    -0.4371
     26  C2B       -0.6780    9.3490   19.9630 C.3   1636  A991636     0.2570
     27  O2B        4.0490    5.7930   22.8910 O.2   1636  A991636    -0.5168
     28  O2G        2.1660    9.3640   25.3380 O.3   1636  A991636    -0.3118
     29  C3'        1.6680    9.0180   27.7020 C.ar  1636  A991636     0.0274
     30  O3'        1.6850    9.5170   20.4700 O.3   1636  A991636    -0.2174
     31  O3A        1.5990    5.6620   22.1530 O.3   1636  A991636    -0.2701
     32  C3B        0.6350    8.6110   20.1050 C.3   1636  A991636     0.2184
     33  O3B        2.3100    7.5260   23.6020 O.3   1636  A991636    -0.2701
     34  O3G        4.0320    9.3780   23.6170 O.2   1636  A991636    -0.5170
     35  C4'        1.8700    7.8790   28.4700 C.ar  1636  A991636    -0.0003
     36  O4'       -0.4630    7.8190   18.1620 O.3   1636  A991636    -0.3135
     37  C4B        0.8430    8.0020   18.7240 C.3   1636  A991636     0.1821
     38  C5'        2.2840    7.9850   29.7910 C.ar  1636  A991636    -0.0001
     39  O5'        1.1080    5.8380   19.7740 O.3   1636  A991636    -0.3112
     40  C5B        1.6240    6.6910   18.7510 C.3   1636  A991636     0.1813
     41  C6'        2.4820    9.2290   30.3750 C.ar  1636  A991636     0.0017
     42  CM'        0.8950    7.3680   26.0740 C.3   1636  A991636     0.0375
@<TRIPOS>BOND
     1    36    37    1
     2    36    19    1
     3    37    40    1
     4    37    32    1
     5    40    39    1
     6    19    11    1
     7    19    26    1
     8    11     5    1
     9    11    10    1
    10    24    26    1
    11     4     5    2
    12     4     3    1
    13    39    12    1
    14     5     6    1
    15    10     9    1
    16    26    32    1
    17     3     2    1
    18    32    30    1
    19     6     9    2
    20     6     7    1
    21    18    12    2
    22     2     7    2
    23    25    12    1
    24    12    31    1
    25     7     8    1
    26    31    13    1
    27    27    13    2
    28    13    33    1
    29    13    20    1
    30    33    14    1
    31    34    14    2
    32    14    28    1
    33    14    21    1
    34    28     1    1
    35    42     1    1
    36     1    29    1
    37    15    23    2
    38    23    16    2
    39    23    22    1
    40    29    22   ar
    41    29    35   ar
    42    22    17   ar
    43    35    38   ar
    44    17    41   ar
    45    38    41   ar
