@<TRIPOS>MOLECULE
2yja_EST_B_1.pdb
 20 23 0 0 0
SMALL
GASTEIGER

@<TRIPOS>ATOM
      1  C1        21.6660   12.0110    8.1270 C.ar  1550  EST1550    -0.0013
      2  C2        21.2280   13.2170    7.4460 C.ar  1550  EST1550     0.0417
      3  C3        21.6680   14.5230    7.9350 C.ar  1550  EST1550     0.1954
      4  O3        21.2780   15.7080    7.2820 O.3   1550  EST1550    -0.2866
      5  C4        22.5070   14.6160    9.0660 C.ar  1550  EST1550     0.0375
      6  C5        22.9080   13.4580    9.7710 C.ar  1550  EST1550    -0.0230
      7  C6        23.7680   13.6690   11.0250 C.3   1550  EST1550     0.0261
      8  C7        24.1660   12.3960   11.8140 C.3   1550  EST1550     0.0050
      9  C8        24.2820   11.1180   10.9490 C.3   1550  EST1550     0.0044
     10  C9        22.9940   10.8470   10.0560 C.3   1550  EST1550     0.0220
     11  C10       22.5080   12.1000    9.2940 C.ar  1550  EST1550    -0.0263
     12  C11       23.4180    9.6590    9.1060 C.3   1550  EST1550     0.0044
     13  C12       23.7860    8.3720    9.9150 C.3   1550  EST1550     0.0028
     14  C13       24.8610    8.6530   10.9760 C.3   1550  EST1550     0.0282
     15  C14       24.4390    9.8710   11.8890 C.3   1550  EST1550     0.0028
     16  C15       25.5370    9.8870   12.9650 C.3   1550  EST1550     0.0027
     17  C16       25.8540    8.3640   13.1840 C.3   1550  EST1550     0.0329
     18  C17       25.0260    7.6060   12.0970 C.3   1550  EST1550     0.1519
     19  O17       25.8320    6.4870   11.7490 O.3   1550  EST1550    -0.2232
     20  C18       26.2390    8.9520   10.2480 C.3   1550  EST1550     0.0025
@<TRIPOS>BOND
     1     4     3    1
     2     2     3   ar
     3     2     1   ar
     4     3     5   ar
     5     1    11   ar
     6     5     6   ar
     7    12    13    1
     8    12    10    1
     9    11     6   ar
    10    11    10    1
    11     6     7    1
    12    13    14    1
    13    10     9    1
    14    20    14    1
    15     9     8    1
    16     9    15    1
    17    14    15    1
    18    14    18    1
    19     7     8    1
    20    19    18    1
    21    15    16    1
    22    18    17    1
    23    16    17    1
