@<TRIPOS>MOLECULE
2yjc_424_A_1.pdb
 35 39 0 0 0
SMALL
GASTEIGER

@<TRIPOS>ATOM
      1  S1         8.4290   32.9700   19.4430 S.O2  1221  4241221     0.0095
      2  N2         8.5100   36.3610   19.5850 N.am  1221  4241221    -0.2709
      3 CL2        11.0140   31.3330   18.3710 Cl    1221  4241221    -0.0809
      4  C3         8.0660   37.8340   17.6890 C.3   1221  4241221     0.0878
      5 CL3        13.5670   40.1270   17.1090 Cl    1221  4241221    -0.0822
      6  C4         9.6380   34.2780   19.7540 C.3   1221  4241221     0.1557
      7  C5         7.8100   37.3830   19.0890 C.2   1221  4241221     0.2289
      8  C6         8.2870   35.8810   20.9370 C.3   1221  4241221     0.1553
      9  C7         8.6850   32.4980   17.7470 C.ar  1221  4241221     0.1162
     10  C8         9.4880   35.5340   18.8550 C.3   1221  4241221     0.1178
     11  C9         9.3690   34.8110   21.1830 C.3   1221  4241221     0.0550
     12  C10        8.4580   36.9300   21.9960 C.2   1221  4241221     0.2597
     13  C11        7.4280   37.0230   16.5610 C.3   1221  4241221     0.0135
     14  C12        6.8840   38.4120   16.9210 C.3   1221  4241221     0.0135
     15  C13        7.4100   37.9140   23.9920 C.3   1221  4241221     0.1166
     16  N14        7.4130   37.0330   22.8380 N.am  1221  4241221    -0.2016
     17  C15        7.9010   37.2620   25.2250 C.2   1221  4241221     0.1150
     18  N16        7.8680   37.8280   26.3960 N.2   1221  4241221    -0.1496
     19  C17        9.4430   38.4020   17.4930 C.ar  1221  4241221    -0.0146
     20  O18        8.7830   31.8780   20.3040 O.2   1221  4241221    -0.1686
     21  O19        7.1130   33.5310   19.4330 O.2   1221  4241221    -0.1686
     22  C20        7.6410   39.4080   23.7770 C.3   1221  4241221     0.0279
     23  C21        6.2260   38.8860   24.0880 C.3   1221  4241221     0.0279
     24  O22        7.0100   37.9600   19.7990 O.2   1221  4241221    -0.2745
     25  C23        9.7910   31.8210   17.2970 C.ar  1221  4241221     0.0747
     26  O24        9.4960   37.5960   22.1360 O.2   1221  4241221    -0.2715
     27  C25       10.3550   37.7690   16.6610 C.ar  1221  4241221    -0.0030
     28  C26        9.7980   39.5450   18.1940 C.ar  1221  4241221    -0.0030
     29  C27       11.9800   39.4360   17.2400 C.ar  1221  4241221     0.0577
     30  C29        7.7330   32.8680   16.8310 C.ar  1221  4241221     0.0192
     31  C30       11.6260   38.3030   16.5150 C.ar  1221  4241221     0.0111
     32  C31       11.0630   40.0680   18.0680 C.ar  1221  4241221     0.0111
     33  C33        9.9450   31.4670   15.9640 C.ar  1221  4241221     0.0127
     34  C34        7.8810   32.5290   15.5010 C.ar  1221  4241221     0.0014
     35  C35        8.9830   31.8360   15.0470 C.ar  1221  4241221     0.0009
@<TRIPOS>BOND
     1    35    34   ar
     2    35    33   ar
     3    34    30   ar
     4    33    25   ar
     5    31    27   ar
     6    31    29   ar
     7    13    14    1
     8    13     4    1
     9    27    19   ar
    10    30     9   ar
    11    14     4    1
    12     5    29    1
    13    29    32   ar
    14    25     9   ar
    15    25     3    1
    16    19     4    1
    17    19    28   ar
    18     4     7    1
    19     9     1    1
    20    32    28   ar
    21    10     2    1
    22    10     6    1
    23     7     2   am
    24     7    24    2
    25    21     1    2
    26     1     6    1
    27     1    20    2
    28     2     8    1
    29     6    11    1
    30     8    11    1
    31     8    12    1
    32    12    26    2
    33    12    16   am
    34    16    15    1
    35    22    15    1
    36    22    23    1
    37    15    23    1
    38    15    17    1
    39    17    18    2
