@<TRIPOS>MOLECULE
2yjd_YJD_A_1.pdb
 20 22 0 0 0
SMALL
GASTEIGER

@<TRIPOS>ATOM
      1  CA       -15.2100  -22.2670    4.6840 C.ar  1498  YJD1498     0.1958
      2  CB       -16.1040  -21.7610    3.6820 C.ar  1498  YJD1498     0.0433
      3  CC       -15.8560  -20.5060    3.1000 C.ar  1498  YJD1498     0.0186
      4  CD       -14.7020  -19.7410    3.4940 C.ar  1498  YJD1498     0.0610
      5  CE       -13.8040  -20.2770    4.4910 C.ar  1498  YJD1498     0.0186
      6  CF       -14.0450  -21.5210    5.0940 C.ar  1498  YJD1498     0.0433
      7  N1       -13.3910  -16.9300    1.6150 N.2   1498  YJD1498    -0.3572
      8  C6       -13.3040  -18.1340    2.1620 C.2   1498  YJD1498     0.3506
      9  O2       -12.2700  -18.9860    2.0340 O.2   1498  YJD1498    -0.4441
     10  O4       -15.4970  -23.4750    5.2490 O.3   1498  YJD1498    -0.2866
     11  C2       -14.5900  -16.4020    1.9080 C.2   1498  YJD1498     0.1321
     12  C3       -15.1750  -15.1650    1.5960 C.3   1498  YJD1498     0.0864
     13  C7       -16.4780  -14.9020    2.0470 C.2   1498  YJD1498    -0.0186
     14  C8       -17.1820  -15.8430    2.8140 C.2   1498  YJD1498    -0.0028
     15  C20      -10.8450  -18.7460    2.1870 C.3   1498  YJD1498     0.1701
     16  C9       -16.5950  -17.0820    3.1290 C.2   1498  YJD1498     0.0173
     17  C10      -15.2960  -17.3760    2.6960 C.2   1498  YJD1498     0.0864
     18  C11      -10.0480  -19.5350    1.1380 C.3   1498  YJD1498     0.0474
     19  N13      -14.4590  -18.4730    2.8430 N.pl3 1498  YJD1498    -0.2090
     20  C13      -10.3300  -17.3240    2.3050 C.3   1498  YJD1498     0.0474
@<TRIPOS>BOND
     1    18    15    1
     2    12    11    1
     3    12    13    1
     4     7    11    2
     5     7     8    2
     6    11    17    1
     7     9     8    1
     8     9    15    1
     9    13    14    2
    10     8    19    1
    11    15    20    1
    12    17    19    1
    13    17    16    2
    14    14    16    1
    15    19     4    1
    16     3     4   ar
    17     3     2   ar
    18     4     5   ar
    19     2     1   ar
    20     5     6   ar
    21     1     6   ar
    22     1    10    1
