@<TRIPOS>MOLECULE
2yje_ATP_A_1.pdb
 31 33 0 0 0
SMALL
GASTEIGER

@<TRIPOS>ATOM
      1  PG        26.0190  -25.8390  -13.2190 P.3   377  ATP377      0.5373
      2  O1G       25.7650  -25.7750  -14.7090 O.2   377  ATP377     -0.2221
      3  O2G       26.0940  -27.2850  -12.8320 O.3   377  ATP377     -0.1143
      4  O3G       24.9550  -25.0830  -12.4500 O.3   377  ATP377     -0.1143
      5  PB        27.9860  -23.9570  -13.6770 P.3   377  ATP377      0.2277
      6  O1B       26.9900  -23.4990  -14.7290 O.2   377  ATP377     -0.5168
      7  O2B       28.2380  -22.8480  -12.6940 O.3   377  ATP377     -0.4368
      8  O3B       27.4560  -25.2670  -12.9900 O.3   377  ATP377     -0.2258
      9  PA        29.8690  -23.5800  -15.6460 P.3   377  ATP377      0.2189
     10  O1A       29.9890  -22.1320  -15.2270 O.3   377  ATP377     -0.4371
     11  O2A       28.9490  -23.7240  -16.8600 O.2   377  ATP377     -0.5170
     12  O3A       29.3250  -24.3910  -14.4030 O.3   377  ATP377     -0.2700
     13  O5'       31.3090  -24.1090  -15.9720 O.3   377  ATP377     -0.3112
     14  C5'       32.0080  -24.9310  -15.1070 C.3   377  ATP377      0.1813
     15  C4'       32.8870  -25.9930  -15.6290 C.3   377  ATP377      0.1821
     16  O4'       33.3690  -25.6550  -16.8780 O.3   377  ATP377     -0.3135
     17  C3'       34.0710  -26.1240  -14.7750 C.3   377  ATP377      0.2184
     18  O3'       34.2050  -27.4560  -14.3660 O.3   377  ATP377     -0.2174
     19  C2'       35.1620  -25.8240  -15.5810 C.3   377  ATP377      0.2570
     20  O2'       36.2270  -26.6620  -15.2280 O.3   377  ATP377     -0.2130
     21  C1'       34.6620  -26.1230  -16.9230 C.3   377  ATP377      0.3186
     22  N9        35.3730  -25.4240  -17.9630 N.pl3 377  ATP377     -0.1439
     23  C8        35.5040  -24.0950  -18.0600 C.3   377  ATP377      0.3377
     24  N7        36.2100  -23.8070  -19.1610 N.2   377  ATP377     -0.2095
     25  C5        36.5270  -24.9670  -19.7820 C.2   377  ATP377      0.2526
     26  C6        37.2260  -25.2980  -20.9400 C.2   377  ATP377      0.4393
     27  N6        37.7910  -24.2570  -21.7310 N.pl3 377  ATP377      0.2180
     28  N1        37.3660  -26.5860  -21.2910 N.2   377  ATP377      0.0021
     29  C2        36.8330  -27.5500  -20.5260 C.3   377  ATP377      0.5254
     30  N3        36.1540  -27.2780  -19.4040 N.2   377  ATP377     -0.0055
     31  C4        35.9920  -25.9950  -19.0160 C.2   377  ATP377      0.3518
@<TRIPOS>BOND
     1    27    26    1
     2    28    26    2
     3    28    29    1
     4    26    25    1
     5    29    30    1
     6    25    24    2
     7    25    31    1
     8    30    31    2
     9    24    23    1
    10    31    22    1
    11    23    22    1
    12    22    21    1
    13    21    16    1
    14    21    19    1
    15    16    15    1
    16    11     9    2
    17    13     9    1
    18    13    14    1
    19     9    10    1
    20     9    12    1
    21    15    14    1
    22    15    17    1
    23    19    20    1
    24    19    17    1
    25    17    18    1
    26     6     5    2
    27     2     1    2
    28    12     5    1
    29     5     8    1
    30     5     7    1
    31     1     8    1
    32     1     3    1
    33     1     4    1
