@<TRIPOS>MOLECULE
2yje_LAB_A_1.pdb
 27 29 0 0 0
SMALL
GASTEIGER

@<TRIPOS>ATOM
      1  O5        36.9420  -28.9060  -11.8320 O.2   376  LAB376     -0.2155
      2  C18       36.6180  -28.4910  -10.7340 C.1   376  LAB376      0.1790
      3  N1        35.6460  -27.6310  -10.4900 N.2   376  LAB376     -0.1932
      4  C16       35.5250  -27.0960   -9.1250 C.3   376  LAB376      0.1810
      5  C17       36.4580  -27.9130   -8.2270 C.3   376  LAB376      0.1042
      6  S1        37.3840  -28.9410   -9.3430 S.3   376  LAB376     -0.0192
      7  C15       35.8650  -25.6110   -9.0710 C.3   376  LAB376      0.2448
      8  O4        37.1730  -25.4520   -9.6190 O.3   376  LAB376     -0.1930
      9  C14       34.8860  -24.7860   -9.8650 C.3   376  LAB376      0.1048
     10  C13       35.2300  -23.3010   -9.7790 C.3   376  LAB376      0.1766
     11  O2        36.6090  -23.1060  -10.0840 O.3   376  LAB376     -0.4490
     12  C12       35.0780  -22.9190   -8.3350 C.3   376  LAB376      0.0734
     13  C11       36.0800  -23.7370   -7.5470 C.3   376  LAB376      0.1214
     14  O3        35.8400  -25.1360   -7.7160 O.3   376  LAB376     -0.3329
     15  C10       35.9810  -23.3360   -6.0760 C.3   376  LAB376      0.0301
     16  C9        37.3130  -23.5540   -5.3720 C.3   376  LAB376      0.0068
     17  C8        38.3340  -22.7390   -6.1490 C.3   376  LAB376      0.0218
     18  C20       39.6970  -22.8290   -5.4730 C.3   376  LAB376      0.0047
     19  C7        37.8100  -21.3040   -6.1540 C.2   376  LAB376     -0.0310
     20  C6        37.7760  -20.5530   -7.2680 C.2   376  LAB376     -0.0304
     21  C5        38.2670  -21.0900   -8.6130 C.3   376  LAB376      0.0300
     22  C4        37.6880  -20.2480   -9.7610 C.3   376  LAB376      0.0269
     23  C3        38.3860  -20.6700  -11.0380 C.2   376  LAB376     -0.0372
     24  C19       39.6190  -19.9400  -11.4930 C.3   376  LAB376      0.0266
     25  C2        37.9400  -21.7130  -11.7770 C.2   376  LAB376      0.0734
     26  C1        36.7210  -22.4590  -11.3790 C.2   376  LAB376      0.3407
     27  O1        35.7800  -22.5750  -12.1630 O.2   376  LAB376     -0.2449
@<TRIPOS>BOND
     1    27    26    2
     2     1     2    2
     3    25    26    1
     4    25    23    2
     5    24    23    1
     6    26    11    1
     7    23    22    1
     8     2     3    2
     9     2     6    1
    10     3     4    1
    11    11    10    1
    12     9    10    1
    13     9     7    1
    14    10    12    1
    15    22    21    1
    16     8     7    1
    17     6     5    1
    18     4     7    1
    19     4     5    1
    20     7    14    1
    21    21    20    1
    22    12    13    1
    23    14    13    1
    24    13    15    1
    25    20    19    2
    26    19    17    1
    27    17    18    1
    28    17    16    1
    29    15    16    1
