@<TRIPOS>MOLECULE
2yjf_LAB_A_1.pdb
 27 29 0 0 0
SMALL
GASTEIGER

@<TRIPOS>ATOM
      1  O5       -33.2970  -29.4360   18.0030 O.2   1376  LAB1376    -0.2155
      2  C18      -33.0250  -28.3940   17.4210 C.1   1376  LAB1376     0.1790
      3  N1       -31.8990  -27.7110   17.5620 N.2   1376  LAB1376    -0.1932
      4  C16      -31.9670  -26.3000   17.2100 C.3   1376  LAB1376     0.1810
      5  C17      -33.2650  -26.0460   16.4320 C.3   1376  LAB1376     0.1042
      6  S1       -34.0650  -27.6180   16.3880 S.3   1376  LAB1376    -0.0192
      7  C15      -31.9430  -25.4960   18.5010 C.3   1376  LAB1376     0.2448
      8  O4       -33.1160  -25.8460   19.2510 O.3   1376  LAB1376    -0.1930
      9  C14      -30.6850  -25.8630   19.2840 C.3   1376  LAB1376     0.1048
     10  C13      -30.6500  -25.0940   20.5890 C.3   1376  LAB1376     0.1766
     11  O2       -31.8800  -25.3020   21.2800 O.3   1376  LAB1376    -0.4490
     12  C12      -30.5720  -23.6340   20.1850 C.3   1376  LAB1376     0.0734
     13  C11      -31.8210  -23.2550   19.3860 C.3   1376  LAB1376     0.1214
     14  O3       -31.9590  -24.0850   18.2220 O.3   1376  LAB1376    -0.3329
     15  C10      -31.7750  -21.7760   18.9960 C.3   1376  LAB1376     0.0301
     16  C9       -33.1620  -21.1790   18.7550 C.3   1376  LAB1376     0.0068
     17  C8       -34.0670  -21.2780   19.9840 C.3   1376  LAB1376     0.0218
     18  C20      -35.3680  -20.5260   19.7220 C.3   1376  LAB1376     0.0047
     19  C7       -33.3970  -20.6650   21.1930 C.2   1376  LAB1376    -0.0310
     20  C6       -33.1490  -21.3360   22.3240 C.2   1376  LAB1376    -0.0304
     21  C5       -33.4880  -22.8010   22.5370 C.3   1376  LAB1376     0.0300
     22  C4       -32.4830  -23.3770   23.5400 C.3   1376  LAB1376     0.0269
     23  C3       -32.9570  -24.6780   24.1590 C.2   1376  LAB1376    -0.0372
     24  C19      -33.8450  -24.6230   25.3680 C.3   1376  LAB1376     0.0266
     25  C2       -32.6120  -25.8860   23.6630 C.2   1376  LAB1376     0.0734
     26  C1       -31.7330  -26.0950   22.4880 C.2   1376  LAB1376     0.3407
     27  O1       -30.8870  -26.9760   22.5030 O.2   1376  LAB1376    -0.2449
@<TRIPOS>BOND
     1     6     5    1
     2     6     2    1
     3     5     4    1
     4     4     3    1
     5     4     7    1
     6     2     3    2
     7     2     1    2
     8    14     7    1
     9    14    13    1
    10     7     8    1
    11     7     9    1
    12    16    15    1
    13    16    17    1
    14    15    13    1
    15     9    10    1
    16    13    12    1
    17    18    17    1
    18    17    19    1
    19    12    10    1
    20    10    11    1
    21    19    20    2
    22    11    26    1
    23    20    21    1
    24    26    27    2
    25    26    25    1
    26    21    22    1
    27    22    23    1
    28    25    23    2
    29    23    24    1
