@<TRIPOS>MOLECULE
2yjf_ATP_A_1.pdb
 31 33 0 0 0
SMALL
GASTEIGER

@<TRIPOS>ATOM
      1  PG       -22.0110  -29.8810   20.1340 P.3   1377  ATP1377     0.5373
      2  O1G      -22.2490  -30.9790   21.1390 O.3   1377  ATP1377    -0.1143
      3  O2G      -21.5850  -30.4680   18.8090 O.2   1377  ATP1377    -0.2221
      4  O3G      -20.9670  -28.9710   20.7250 O.3   1377  ATP1377    -0.1143
      5  PB       -24.1640  -28.6620   20.9640 P.3   1377  ATP1377     0.2277
      6  O1B      -23.2240  -28.7550   22.1690 O.3   1377  ATP1377    -0.4368
      7  O2B      -24.6680  -27.2540   20.7310 O.2   1377  ATP1377    -0.5168
      8  O3B      -23.3480  -29.1620   19.7470 O.3   1377  ATP1377    -0.2258
      9  PA       -25.4170  -30.4800   22.6010 P.3   1377  ATP1377     0.2189
     10  O1A      -25.4190  -29.4250   23.6730 O.3   1377  ATP1377    -0.4371
     11  O2A      -24.3180  -31.4940   22.8210 O.2   1377  ATP1377    -0.5170
     12  O3A      -25.3280  -29.7100   21.2240 O.3   1377  ATP1377    -0.2700
     13  O5'      -26.8280  -31.1090   22.5930 O.3   1377  ATP1377    -0.3112
     14  C5'      -27.8000  -30.4620   21.8820 C.3   1377  ATP1377     0.1813
     15  C4'      -28.8610  -31.2800   21.3000 C.3   1377  ATP1377     0.1821
     16  O4'      -29.1930  -32.2820   22.1920 O.3   1377  ATP1377    -0.3135
     17  C3'      -30.0610  -30.4610   21.1040 C.3   1377  ATP1377     0.2184
     18  O3'      -30.4690  -30.5760   19.7680 O.3   1377  ATP1377    -0.2174
     19  C2'      -31.0440  -31.0110   21.9310 C.3   1377  ATP1377     0.2570
     20  O2'      -32.3110  -30.9910   21.3250 O.3   1377  ATP1377    -0.2130
     21  C1'      -30.5700  -32.3850   22.1790 C.3   1377  ATP1377     0.3186
     22  N9       -31.0840  -32.8900   23.4380 N.pl3 1377  ATP1377    -0.1439
     23  C8       -31.0820  -32.2410   24.6050 C.3   1377  ATP1377     0.3377
     24  N7       -31.6430  -33.0160   25.5390 N.2   1377  ATP1377    -0.2095
     25  C5       -32.0120  -34.1740   24.9670 C.2   1377  ATP1377     0.2526
     26  C6       -32.6290  -35.3270   25.4260 C.2   1377  ATP1377     0.4393
     27  N6       -32.9980  -35.4310   26.7930 N.pl3 1377  ATP1377     0.2180
     28  N1       -32.8660  -36.3290   24.5760 N.2   1377  ATP1377     0.0021
     29  C2       -32.5020  -36.2040   23.2920 C.3   1377  ATP1377     0.5254
     30  N3       -31.9030  -35.1140   22.8050 N.2   1377  ATP1377    -0.0055
     31  C4       -31.6550  -34.0870   23.6330 C.2   1377  ATP1377     0.3518
@<TRIPOS>BOND
     1     3     1    2
     2     8     1    1
     3     8     5    1
     4    18    17    1
     5     1     4    1
     6     1     2    1
     7     7     5    2
     8     5    12    1
     9     5     6    1
    10    17    15    1
    11    17    19    1
    12    12     9    1
    13    15    14    1
    14    15    16    1
    15    20    19    1
    16    14    13    1
    17    19    21    1
    18    21    16    1
    19    21    22    1
    20    13     9    1
    21     9    11    2
    22     9    10    1
    23    30    29    1
    24    30    31    2
    25    29    28    1
    26    22    31    1
    27    22    23    1
    28    31    25    1
    29    28    26    2
    30    23    24    1
    31    25    26    1
    32    25    24    2
    33    26    27    1
