@<TRIPOS>MOLECULE
2yjq_OXZ_A_1.pdb
 10 10 0 0 0
SMALL
GASTEIGER

@<TRIPOS>ATOM
      1  C6        12.3840  -24.1220   12.3620 C.3   1518  OXZ1518     0.2163
      2  C5        12.8440  -25.5200   11.9400 C.3   1518  OXZ1518     0.2048
      3  C4        14.3950  -25.7150   11.9840 C.3   1518  OXZ1518     0.2152
      4  C3        14.8370  -27.0570   11.4010 C.3   1518  OXZ1518     0.2046
      5  C2        14.2970  -27.2940    9.9620 C.3   1518  OXZ1518     0.1569
      6  O6        13.0750  -23.1640   11.5160 O.3   1518  OXZ1518    -0.2175
      7  O5        12.4930  -25.6950   10.5610 O.3   1518  OXZ1518    -0.2633
      8  O4        14.8410  -25.6310   13.3380 O.3   1518  OXZ1518    -0.2176
      9  O3        16.2760  -27.2530   11.4410 O.3   1518  OXZ1518    -0.2187
     10  N1        12.8670  -26.9110    9.9740 N.4   1518  OXZ1518    -0.0808
@<TRIPOS>BOND
     1     5    10    1
     2     5     4    1
     3    10     7    1
     4     7     2    1
     5     4     9    1
     6     4     3    1
     7     6     1    1
     8     2     3    1
     9     2     1    1
    10     3     8    1
