@<TRIPOS>MOLECULE
2yjq_BGC_A_1.pdb
 11 11 0 0 0
SMALL
GASTEIGER

@<TRIPOS>ATOM
      1  C2        16.0740  -24.2390   14.9090 C.3   1519  BGC1519     0.2141
      2  C3        17.4230  -23.6090   15.2250 C.3   1519  BGC1519     0.2173
      3  C4        18.4820  -24.7140   15.2030 C.3   1519  BGC1519     0.2142
      4  C5        18.4210  -25.6250   13.9800 C.3   1519  BGC1519     0.1810
      5  C6        19.3160  -26.8360   14.1700 C.3   1519  BGC1519     0.2141
      6  C1        16.1340  -25.0090   13.5740 C.3   1519  BGC1519     0.1777
      7  O2        15.0670  -23.2310   14.8120 O.3   1519  BGC1519    -0.2176
      8  O3        17.3630  -23.2110   16.5930 O.3   1519  BGC1519    -0.2175
      9  O4        19.7460  -24.1800   15.1250 O.3   1519  BGC1519    -0.2176
     10  O5        17.0810  -26.0790   13.7470 O.3   1519  BGC1519    -0.3481
     11  O6        19.2080  -27.5500   12.9320 O.3   1519  BGC1519    -0.2176
@<TRIPOS>BOND
     1    11     5    1
     2     6    10    1
     3     6     1    1
     4    10     4    1
     5     4     5    1
     6     4     3    1
     7     7     1    1
     8     1     2    1
     9     9     3    1
    10     3     2    1
    11     2     8    1
