@<TRIPOS>MOLECULE
2yjw_YJW_A_1.pdb
 20 22 0 0 0
SMALL
GASTEIGER

@<TRIPOS>ATOM
      1  N2         2.4800   34.4780   27.0150 N.ar  1224  YJW1224    -0.0773
      2  C3         1.6850   34.7600   25.9700 C.ar  1224  YJW1224     0.1256
      3  C4         0.9950   35.9710   26.1200 C.ar  1224  YJW1224     0.0538
      4  C5         1.3410   36.4930   27.3210 C.ar  1224  YJW1224     0.1547
      5  C6         1.6100   33.9110   24.8230 C.ar  1224  YJW1224     0.0600
      6  C7         0.0730   36.6500   25.2550 C.ar  1224  YJW1224     0.0043
      7  C8         0.8550   37.7570   27.8960 C.3   1224  YJW1224     0.0754
      8  C12        0.6070   37.1520   24.0620 C.ar  1224  YJW1224     0.0001
      9  C13       -0.2350   37.8600   23.1200 C.ar  1224  YJW1224     0.0000
     10  C14       -1.6020   38.0390   23.3830 C.ar  1224  YJW1224     0.0000
     11  C15       -2.1870   37.5500   24.6040 C.ar  1224  YJW1224     0.0000
     12  C16       -1.3330   36.8560   25.5630 C.ar  1224  YJW1224     0.0001
     13  C21        2.8770   33.4960   24.1770 C.ar  1224  YJW1224     0.2004
     14  C22        2.7760   32.7210   22.9910 C.ar  1224  YJW1224     0.0841
     15  C23        1.4540   32.3860   22.4810 C.ar  1224  YJW1224     0.1989
     16  C24        0.2170   32.7550   23.1130 C.ar  1224  YJW1224     0.0423
     17  C25        0.3310   33.5830   24.2690 C.ar  1224  YJW1224     0.0081
     18  O29        1.4220   31.6850   21.3160 O.3   1224  YJW1224    -0.2865
     19  O30        4.0900   33.8750   24.7420 O.3   1224  YJW1224    -0.2864
     20  O11        2.2360   35.6750   27.9430 O.2   1224  YJW1224    -0.3578
@<TRIPOS>BOND
     1    18    15    1
     2    15    14   ar
     3    15    16   ar
     4    14    13   ar
     5    16    17   ar
     6     9    10   ar
     7     9     8   ar
     8    10    11   ar
     9     8     6   ar
    10    13    19    1
    11    13     5   ar
    12    17     5   ar
    13    11    12   ar
    14     5     2    1
    15     6    12   ar
    16     6     3    1
    17     2     3   ar
    18     2     1   ar
    19     3     4   ar
    20     1    20   ar
    21     4     7    1
    22     4    20   ar
