@<TRIPOS>MOLECULE
2yjx_YJX_A_1.pdb
 23 27 0 0 0
SMALL
GASTEIGER

@<TRIPOS>ATOM
      1  C15        8.5930   10.3540  -26.1000 C.ar  1224  YJX1224     0.0000
      2  C19        7.4600    9.7000  -26.6960 C.ar  1224  YJX1224     0.0001
      3  C8         8.5970   11.5500  -25.3120 C.ar  1224  YJX1224     0.0014
      4  C14        6.2220   10.3510  -26.5000 C.ar  1224  YJX1224     0.0046
      5  C20       12.3170   14.3420  -23.9350 C.ar  1224  YJX1224     0.0564
      6  C22       13.3010   14.5510  -22.9340 C.ar  1224  YJX1224     0.1017
      7  C21       11.6170   14.7500  -21.1430 C.ar  1224  YJX1224     0.1345
      8  C3         7.3230   12.2160  -25.1160 C.ar  1224  YJX1224     0.0185
      9  C7         6.1160   11.5930  -25.7120 C.ar  1224  YJX1224     0.0551
     10  C17       10.9060   14.3590  -23.4610 C.ar  1224  YJX1224     0.1772
     11  C18       10.6260   14.5770  -22.0740 C.ar  1224  YJX1224     0.1931
     12  C5         8.8370   14.3080  -23.2510 C.1   1224  YJX1224     0.1350
     13  C1         6.8490   13.3440  -24.3510 C.2   1224  YJX1224     0.0614
     14  C9         4.9360   12.3660  -25.3640 C.2   1224  YJX1224     0.2528
     15  C2         7.4370   14.2420  -23.5200 C.2   1224  YJX1224     0.0770
     16  C6         6.5130   15.2610  -22.7520 C.3   1224  YJX1224     0.0417
     17  C13        5.2180   15.6320  -23.4950 C.3   1224  YJX1224     0.0274
     18  C10        4.4790   14.4090  -24.0040 C.3   1224  YJX1224     0.0989
     19  N23       12.9900   14.7400  -21.5420 N.ar  1224  YJX1224    -0.2394
     20  N11        9.7730   14.2050  -24.2000 N.2   1224  YJX1224    -0.3373
     21  N12        9.2760   14.5380  -21.9430 N.2   1224  YJX1224    -0.3358
     22  N4         5.4220   13.3660  -24.5740 N.am  1224  YJX1224    -0.2548
     23  O16        3.7100   12.2050  -25.6800 O.2   1224  YJX1224    -0.2696
@<TRIPOS>BOND
     1     2     4   ar
     2     2     1   ar
     3     4     9   ar
     4     1     3   ar
     5     9    14    1
     6     9     8   ar
     7    23    14    2
     8    14    22   am
     9     3     8   ar
    10     8    13    1
    11    22    13    1
    12    22    18    1
    13    13    15    2
    14    20    10    2
    15    20    12    2
    16    18    17    1
    17     5    10   ar
    18     5     6   ar
    19    15    12    1
    20    15    16    1
    21    17    16    1
    22    10    11   ar
    23    12    21    2
    24     6    19   ar
    25    11    21    2
    26    11     7   ar
    27    19     7   ar
