@<TRIPOS>MOLECULE
2yjz_NAP_A_1.pdb
 48 52 0 0 0
SMALL
GASTEIGER

@<TRIPOS>ATOM
      1  PA        50.7790   42.7870   47.2080 P.3   1200  NAP1200     0.2189
      2  O1A       50.5170   42.8720   48.6570 O.3   1200  NAP1200    -0.4371
      3  O2A       52.0920   43.1120   46.6600 O.2   1200  NAP1200    -0.5170
      4  O5B       50.3520   41.2800   46.7590 O.3   1200  NAP1200    -0.3112
      5  C5B       50.4900   40.9790   45.3910 C.3   1200  NAP1200     0.1813
      6  C4B       50.3340   39.4770   45.2610 C.3   1200  NAP1200     0.1820
      7  O4B       50.6090   39.1640   43.9280 O.3   1200  NAP1200    -0.3136
      8  C3B       51.3520   38.6610   46.0590 C.3   1200  NAP1200     0.2157
      9  O3B       50.9140   38.3740   47.3700 O.3   1200  NAP1200    -0.2175
     10  C2B       51.5070   37.4180   45.2010 C.3   1200  NAP1200     0.2314
     11  O2B       50.8110   36.3310   45.8260 O.3   1200  NAP1200    -0.2630
     12  C1B       50.9000   37.7920   43.8420 C.3   1200  NAP1200     0.3158
     13  N9A       51.8130   37.5980   42.7310 N.pl3 1200  NAP1200    -0.1439
     14  C8A       51.6270   36.8280   41.6280 C.3   1200  NAP1200     0.3377
     15  N7A       52.7290   36.9280   40.8730 N.2   1200  NAP1200    -0.2095
     16  C5A       53.6160   37.7540   41.4670 C.2   1200  NAP1200     0.2526
     17  C6A       54.9010   38.2020   41.1140 C.2   1200  NAP1200     0.4393
     18  N6A       55.5500   37.8140   40.0030 N.pl3 1200  NAP1200     0.2180
     19  N1A       55.5150   39.0740   41.9620 N.2   1200  NAP1200     0.0021
     20  C2A       54.9170   39.4940   43.1520 C.3   1200  NAP1200     0.5254
     21  N3A       53.6570   39.0590   43.4750 N.2   1200  NAP1200    -0.0055
     22  C4A       53.0270   38.1970   42.6300 C.2   1200  NAP1200     0.3518
     23  O3        49.6960   43.7190   46.4930 O.3   1200  NAP1200    -0.2703
     24  PN        48.3080   44.1030   47.1350 P.3   1200  NAP1200     0.2189
     25  O1N       48.3380   45.3780   47.9130 O.3   1200  NAP1200    -0.4371
     26  O2N       47.5320   42.9720   47.6750 O.2   1200  NAP1200    -0.5170
     27  O5D       47.5630   44.4130   45.7380 O.3   1200  NAP1200    -0.3112
     28  C5D       47.0610   43.4450   44.8750 C.3   1200  NAP1200     0.1813
     29  C4D       46.0430   44.1060   43.9520 C.3   1200  NAP1200     0.1799
     30  O4D       45.0110   44.7340   44.7150 O.3   1200  NAP1200    -0.3327
     31  C3D       46.6640   45.2170   43.1050 C.3   1200  NAP1200     0.2158
     32  O3D       46.1850   45.0960   41.8010 O.3   1200  NAP1200    -0.2175
     33  C2D       46.2320   46.5230   43.7620 C.3   1200  NAP1200     0.2309
     34  O2D       46.3250   47.6250   42.8820 O.3   1200  NAP1200    -0.2158
     35  C1D       44.8340   46.0690   44.2160 C.3   1200  NAP1200     0.2263
     36  N1N       44.3330   46.8900   45.3120 N.pl3 1200  NAP1200    -0.2787
     37  C2N       45.1320   46.9880   46.4320 C.3   1200  NAP1200     0.1244
     38  C3N       44.7030   47.7580   47.4980 C.2   1200  NAP1200     0.0544
     39  C7N       45.5420   47.8900   48.7480 C.2   1200  NAP1200     0.2818
     40  O7N       45.0550   48.7580   49.7330 O.2   1200  NAP1200    -0.2670
     41  N7N       46.6510   47.1760   48.9600 N.am  1200  NAP1200    -0.0839
     42  C4N       43.4830   48.4480   47.3960 C.2   1200  NAP1200     0.0033
     43  C5N       42.7160   48.3680   46.2470 C.2   1200  NAP1200     0.0157
     44  C6N       43.1430   47.5620   45.1840 C.2   1200  NAP1200     0.0633
     45  P2B       51.6040   34.9140   45.9810 P.3   1200  NAP1200     0.5328
     46  O1X       51.7220   34.3310   44.5740 O.2   1200  NAP1200    -0.2224
     47  O2X       50.8420   34.0450   46.9510 O.3   1200  NAP1200    -0.1145
     48  O3X       52.9500   35.2070   46.4250 O.3   1200  NAP1200    -0.1145
@<TRIPOS>BOND
     1    18    17    1
     2    15    16    2
     3    15    14    1
     4    17    16    1
     5    17    19    2
     6    16    22    1
     7    14    13    1
     8    32    31    1
     9    19    20    1
    10    22    13    1
    11    22    21    2
    12    13    12    1
    13    34    33    1
    14    31    33    1
    15    31    29    1
    16    20    21    1
    17    33    35    1
    18    12     7    1
    19    12    10    1
    20     7     6    1
    21    29    30    1
    22    29    28    1
    23    35    30    1
    24    35    36    1
    25    46    45    2
    26    28    27    1
    27    44    36    1
    28    44    43    2
    29    10    11    1
    30    10     8    1
    31     6     5    1
    32     6     8    1
    33    36    37    1
    34     5     4    1
    35    27    24    1
    36    11    45    1
    37    45    48    1
    38    45    47    1
    39     8     9    1
    40    43    42    1
    41    37    38    1
    42    23    24    1
    43    23     1    1
    44     3     1    2
    45     4     1    1
    46    24    26    2
    47    24    25    1
    48     1     2    1
    49    42    38    2
    50    38    39    1
    51    39    41   am
    52    39    40    2
