@<TRIPOS>MOLECULE
2yk1_NCT_H_1.pdb
 12 13 0 0 0
SMALL
GASTEIGER

@<TRIPOS>ATOM
      1  N1       -20.4710    5.1740   -0.2320 N.ar  300  NCT300     -0.2426
      2  C1       -20.2640    3.8980    0.0490 C.ar  300  NCT300      0.0959
      3  C2       -21.3020    3.0360    0.3630 C.ar  300  NCT300      0.0114
      4  C3       -22.6140    3.5480    0.3990 C.ar  300  NCT300      0.0002
      5  C4       -22.8070    4.8910    0.1100 C.ar  300  NCT300      0.0204
      6  C5       -21.7010    5.6960   -0.2000 C.ar  300  NCT300      0.0989
      7  N2       -21.9710    0.8160    1.4390 N.3   300  NCT300     -0.2691
      8  C6       -20.9690    1.5820    0.6460 C.3   300  NCT300      0.0817
      9  C7       -20.9020    0.7260   -0.6510 C.3   300  NCT300      0.0220
     10  C8       -20.7680   -0.6920   -0.0430 C.3   300  NCT300      0.0191
     11  C9       -21.4880   -0.5700    1.3220 C.3   300  NCT300      0.0724
     12  C10      -21.8490    1.1890    2.8630 C.3   300  NCT300      0.0899
@<TRIPOS>BOND
     1     9    10    1
     2     9     8    1
     3     1     6   ar
     4     1     2   ar
     5     6     5   ar
     6    10    11    1
     7     2     3   ar
     8     5     4   ar
     9     3     4   ar
    10     3     8    1
    11     8     7    1
    12    11     7    1
    13     7    12    1
