@<TRIPOS>MOLECULE
2yk2_YJW_A_1.pdb
 20 22 0 0 0
SMALL
GASTEIGER

@<TRIPOS>ATOM
      1  N2         1.2150  -27.3350  -10.6180 N.ar  1224  YJW1224    -0.0773
      2  C3         0.4470  -26.2790  -10.4070 C.ar  1224  YJW1224     0.1256
      3  C4        -0.3260  -26.4350   -9.1950 C.ar  1224  YJW1224     0.0538
      4  C5         0.0280  -27.6580   -8.7240 C.ar  1224  YJW1224     0.1547
      5  C6         0.5070  -25.0780  -11.2780 C.ar  1224  YJW1224     0.0600
      6  C7        -1.2320  -25.4340   -8.5660 C.ar  1224  YJW1224     0.0043
      7  C8        -0.3730  -28.4550   -7.5380 C.3   1224  YJW1224     0.0754
      8  C12       -0.7100  -24.3700   -7.8270 C.ar  1224  YJW1224     0.0001
      9  C13       -1.5600  -23.4630   -7.1930 C.ar  1224  YJW1224     0.0000
     10  C14       -2.9350  -23.5970   -7.3140 C.ar  1224  YJW1224     0.0000
     11  C15       -3.4630  -24.6390   -8.0750 C.ar  1224  YJW1224     0.0000
     12  C16       -2.6170  -25.5520   -8.6970 C.ar  1224  YJW1224     0.0001
     13  C21        1.7390  -24.4840  -11.6160 C.ar  1224  YJW1224     0.2004
     14  C22        1.7790  -23.2990  -12.3410 C.ar  1224  YJW1224     0.0841
     15  C23        0.5950  -22.7010  -12.7570 C.ar  1224  YJW1224     0.1989
     16  C24       -0.6260  -23.3010  -12.4770 C.ar  1224  YJW1224     0.0423
     17  C25       -0.6670  -24.4680  -11.7340 C.ar  1224  YJW1224     0.0081
     18  O29        0.6230  -21.4860  -13.3880 O.3   1224  YJW1224    -0.2865
     19  O11        0.9540  -28.2240   -9.5380 O.2   1224  YJW1224    -0.3578
     20  O30        2.9160  -25.0580  -11.2260 O.3   1224  YJW1224    -0.2864
@<TRIPOS>BOND
     1    18    15    1
     2    15    16   ar
     3    15    14   ar
     4    16    17   ar
     5    14    13   ar
     6    17     5   ar
     7    13     5   ar
     8    13    20    1
     9     5     2    1
    10     1     2   ar
    11     1    19   ar
    12     2     3   ar
    13    19     4   ar
    14     3     4   ar
    15     3     6    1
    16     4     7    1
    17    12     6   ar
    18    12    11   ar
    19     6     8   ar
    20    11    10   ar
    21     8     9   ar
    22    10     9   ar
