@<TRIPOS>MOLECULE
2yk2_YJX_A_1.pdb
 23 27 0 0 0
SMALL
GASTEIGER

@<TRIPOS>ATOM
      1  C15       -8.6280  -23.5660  -10.0440 C.ar  1225  YJX1225     0.0000
      2  C19       -7.5640  -22.8880   -9.4500 C.ar  1225  YJX1225     0.0001
      3  C8        -8.4490  -24.2520  -11.2410 C.ar  1225  YJX1225     0.0014
      4  C14       -6.3040  -22.8890  -10.0430 C.ar  1225  YJX1225     0.0046
      5  C20      -11.4810  -28.1300  -14.5840 C.ar  1225  YJX1225     0.0564
      6  C22      -12.7850  -27.6650  -14.5820 C.ar  1225  YJX1225     0.1017
      7  C21      -12.1400  -25.4990  -14.2000 C.ar  1225  YJX1225     0.1345
      8  C3        -7.1810  -24.2730  -11.8280 C.ar  1225  YJX1225     0.0185
      9  C7        -6.1220  -23.5940  -11.2320 C.ar  1225  YJX1225     0.0551
     10  C17      -10.4700  -27.1880  -14.3730 C.ar  1225  YJX1225     0.1772
     11  C18      -10.7890  -25.8410  -14.1710 C.ar  1225  YJX1225     0.1931
     12  C5        -8.6090  -26.1550  -14.0740 C.1   1225  YJX1225     0.1350
     13  C1        -6.6340  -24.9870  -12.9770 C.2   1225  YJX1225     0.0614
     14  C9        -4.8940  -23.8400  -12.0250 C.2   1225  YJX1225     0.2528
     15  C2        -7.1770  -25.8520  -13.9210 C.2   1225  YJX1225     0.0770
     16  C6        -6.3310  -26.5640  -14.9510 C.3   1225  YJX1225     0.0417
     17  C13       -5.1020  -25.7540  -15.3470 C.3   1225  YJX1225     0.0274
     18  C10       -4.3800  -25.1870  -14.1340 C.3   1225  YJX1225     0.0989
     19  N23      -13.1260  -26.3820  -14.4020 N.ar  1225  YJX1225    -0.2394
     20  N11       -9.0920  -27.3630  -14.3090 N.2   1225  YJX1225    -0.3373
     21  N12       -9.5730  -25.2030  -13.9780 N.2   1225  YJX1225    -0.3358
     22  N4        -5.2740  -24.6800  -13.0690 N.am  1225  YJX1225    -0.2548
     23  O16       -3.7540  -23.4380  -11.8300 O.2   1225  YJX1225    -0.2696
@<TRIPOS>BOND
     1    17    16    1
     2    17    18    1
     3    16    15    1
     4     5     6   ar
     5     5    10   ar
     6     6    19   ar
     7    19     7   ar
     8    10    20    2
     9    10    11   ar
    10    20    12    2
    11     7    11   ar
    12    11    21    2
    13    18    22    1
    14    12    21    2
    15    12    15    1
    16    15    13    2
    17    22    13    1
    18    22    14   am
    19    13     8    1
    20    14    23    2
    21    14     9    1
    22     8     3   ar
    23     8     9   ar
    24     3     1   ar
    25     9     4   ar
    26     1     2   ar
    27     4     2   ar
