@<TRIPOS>MOLECULE
2yk3_HEM_A_1.pdb
 43 50 0 0 0
SMALL
GASTEIGER

@<TRIPOS>ATOM
      1  CHA       16.5200   23.8490   12.1000 C.2   200  HEM200      0.0000
      2  CHB       13.5980   20.5340   10.0730 C.2   200  HEM200      0.0000
      3  CHC        9.8800   22.9790   12.0630 C.2   200  HEM200      0.0000
      4  CHD       12.6950   26.8690   12.4220 C.2   200  HEM200      0.0000
      5  C1A       16.0850   22.6340   11.4330 C.ar  200  HEM200      0.0000
      6  C2A       16.9450   21.6020   11.0770 C.ar  200  HEM200      0.0000
      7  C3A       16.1030   20.6610   10.4970 C.ar  200  HEM200      0.0000
      8  C4A       14.8140   21.1780   10.5810 C.ar  200  HEM200      0.0000
      9  CMA       16.4850   19.3250    9.9310 C.3   200  HEM200      0.0000
     10  CAA       18.4460   21.5020   11.2180 C.3   200  HEM200      0.0000
     11  CBA       19.1260   22.1300   10.0280 C.3   200  HEM200      0.0000
     12  CGA       20.6430   21.9560    9.9860 C.2   200  HEM200      0.0000
     13  O1A       21.2370   21.4020   10.9710 O.co2 200  HEM200      0.0000
     14  O2A       21.2680   22.3770    9.0110 O.co2 200  HEM200      0.0000
     15  C1B       12.2470   20.8620   10.4800 C.2   200  HEM200      0.0000
     16  C2B       11.1520   20.0590   10.2530 C.2   200  HEM200      0.0000
     17  C3B       10.0140   20.7260   10.8400 C.2   200  HEM200      0.0000
     18  C4B       10.6630   21.9500   11.3960 C.2   200  HEM200      0.0000
     19  CMB       11.2090   18.7370    9.5120 C.3   200  HEM200      0.0000
     20  CAB        8.5620   20.3510   11.0160 C.3   200  HEM200      0.0000
     21  CBB        8.0150   19.0860   10.4000 C.3   200  HEM200      0.0000
     22  C1C       10.3030   24.3760   12.2790 C.ar  200  HEM200      0.0000
     23  C2C        9.4190   25.4170   12.5910 C.ar  200  HEM200      0.0000
     24  C3C       10.2040   26.5650   12.6870 C.ar  200  HEM200      0.0000
     25  C4C       11.4840   26.0610   12.4260 C.ar  200  HEM200      0.0000
     26  CMC        7.9350   25.2820   12.7870 C.3   200  HEM200      0.0000
     27  CAC        9.8170   28.0110   12.9440 C.3   200  HEM200      0.0000
     28  CBC        8.8580   28.2490   14.0860 C.3   200  HEM200      0.0000
     29  C1D       14.0440   26.3460   12.4760 C.2   200  HEM200      0.0000
     30  C2D       15.1680   27.1770   12.8570 C.2   200  HEM200      0.0000
     31  C3D       16.3170   26.3330   12.7400 C.2   200  HEM200      0.0000
     32  C4D       15.7380   25.0420   12.3260 C.2   200  HEM200      0.0000
     33  CMD       15.1950   28.5900   13.3070 C.3   200  HEM200      0.0000
     34  CAD       17.7200   26.6760   13.1090 C.3   200  HEM200      0.0000
     35  CBD       17.8420   26.2140   14.5640 C.3   200  HEM200      0.0000
     36  CGD       19.1320   26.6590   15.2510 C.2   200  HEM200      0.0000
     37  O1D       20.0280   27.2200   14.6150 O.co2 200  HEM200      0.0000
     38  O2D       19.1800   26.3330   16.4730 O.co2 200  HEM200      0.0000
     39  NA        14.7920   22.3900   11.2020 N.ar  200  HEM200      0.0000
     40  NB        11.9350   22.0340   11.1240 N.2   200  HEM200      0.0000
     41  NC        11.5530   24.7640   12.1330 N.ar  200  HEM200      0.0000
     42  ND        14.4210   25.0910   12.1660 N.2   200  HEM200      0.0000
     43 FE         13.1840   23.5800   11.6590 Fe    200  HEM200      0.0000
@<TRIPOS>BOND
     1    14    12   ar
     2    19    16    1
     3     9     7    1
     4    12    11    1
     5    12    13   ar
     6    11    10    1
     7     2    15    1
     8     2     8    2
     9    16    15    1
    10    16    17    2
    11    21    20    1
    12    15    40    2
    13     7     8   ar
    14     7     6   ar
    15     8    39   ar
    16    17    20    1
    17    17    18    1
    18     6    10    1
    19     6     5   ar
    20    40    18    1
    21    40    43    1
    22    39     5   ar
    23    39    43    1
    24    18     3    2
    25     5     1    2
    26    43    41    1
    27    43    42    1
    28     3    22    1
    29     1    32    1
    30    41    22   ar
    31    41    25   ar
    32    42    32    2
    33    42    29    1
    34    22    23   ar
    35    32    31    1
    36     4    25    1
    37     4    29    2
    38    25    24   ar
    39    29    30    1
    40    23    24   ar
    41    23    26    1
    42    24    27    1
    43    31    30    2
    44    31    34    1
    45    30    33    1
    46    27    28    1
    47    34    35    1
    48    35    36    1
    49    37    36   ar
    50    36    38   ar
