@<TRIPOS>MOLECULE
2yk4_EGC_A_1.pdb
 42 42 0 0 0
SMALL
GASTEIGER

@<TRIPOS>ATOM
      1  O1        40.8290   60.8480    8.8580 O.3   1374  EGC1374    -0.2176
      2  C2        41.2630   61.6060    7.7440 C.3   1374  EGC1374     0.2140
      3  C3        40.1780   62.6250    7.3680 C.3   1374  EGC1374     0.1777
      4  O4        39.3430   63.0690    8.4680 O.3   1374  EGC1374    -0.3483
      5  C5        38.0000   63.3840    7.9700 C.3   1374  EGC1374     0.1742
      6  C6        37.7450   64.7360    8.6010 C.3   1374  EGC1374     0.1742
      7  O7        36.8530   64.6020    9.6800 O.3   1374  EGC1374    -0.3484
      8  C8        37.2600   65.1670   10.9300 C.3   1374  EGC1374     0.1742
      9  C9        36.2630   66.2250   11.2010 C.3   1374  EGC1374     0.1742
     10  O10       36.7110   67.2690   10.3520 O.3   1374  EGC1374    -0.3484
     11  C11       35.8740   68.4220   10.4800 C.3   1374  EGC1374     0.1742
     12  C12       36.6410   69.6190    9.9120 C.3   1374  EGC1374     0.1742
     13  C14       37.3530   70.7930    8.0320 C.3   1374  EGC1374     0.1742
     14  C15       37.5230   70.6960    6.5620 C.3   1374  EGC1374     0.1742
     15  C17       38.9560   69.7700    4.9460 C.3   1374  EGC1374     0.1742
     16  C18       40.2840   69.0250    4.8750 C.3   1374  EGC1374     0.1743
     17  C20       41.2460   66.7930    4.9150 C.3   1374  EGC1374     0.1894
     18  C21       40.9160   65.3120    5.1500 C.3   1374  EGC1374     0.2376
     19  C23       41.2900   63.1440    4.0190 C.2   1374  EGC1374     0.2124
     20  C24       41.7040   61.6610    4.3590 C.2   1374  EGC1374     0.2125
     21  C26       40.1540   59.8840    5.1140 C.3   1374  EGC1374     0.2528
     22  C27       39.2250   58.7290    4.7220 C.3   1374  EGC1374     0.2525
     23  C29       37.5390   58.3970    3.0290 C.ar  1374  EGC1374     0.1387
     24  C30       37.1020   58.0750    1.7280 C.ar  1374  EGC1374     0.0366
     25  C31       35.7530   57.7520    1.4700 C.ar  1374  EGC1374    -0.0012
     26  C32       34.8010   57.7390    2.5130 C.ar  1374  EGC1374    -0.0226
     27  C33       35.2560   58.0660    3.7910 C.ar  1374  EGC1374    -0.0012
     28  C34       36.5940   58.3890    4.0520 C.ar  1374  EGC1374     0.0366
     29  C35       33.2860   57.3680    2.3100 C.3   1374  EGC1374     0.0189
     30  C36       32.4040   57.7060    3.5340 C.3   1374  EGC1374     0.0044
     31  C37       33.2540   55.8440    2.1860 C.3   1374  EGC1374     0.0044
     32  C38       32.7750   57.9730    0.9870 C.3   1374  EGC1374     0.0040
     33  C39       32.2950   59.4470    0.9480 C.3   1374  EGC1374     0.0003
     34  C40       33.2350   60.3870    1.7090 C.3   1374  EGC1374     0.0000
     35  C41       30.8560   59.5600    1.4680 C.3   1374  EGC1374     0.0000
     36  C42       32.2940   59.8360   -0.5190 C.3   1374  EGC1374     0.0000
     37  O13       36.6900   69.5830    8.5030 O.3   1374  EGC1374    -0.3484
     38  O16       38.6750   69.9660    6.3210 O.3   1374  EGC1374    -0.3484
     39  O19       40.0710   67.6230    5.0880 O.3   1374  EGC1374    -0.3471
     40  O22       41.9200   64.3090    4.7260 O.2   1374  EGC1374    -0.4666
     41  O25       40.7950   60.5440    3.9850 O.2   1374  EGC1374    -0.4652
     42  O28       38.8530   58.7320    3.3020 O.3   1374  EGC1374    -0.4714
@<TRIPOS>BOND
     1    36    33    1
     2    33    32    1
     3    33    35    1
     4    33    34    1
     5    32    29    1
     6    25    24   ar
     7    25    26   ar
     8    24    23   ar
     9    31    29    1
    10    29    26    1
    11    29    30    1
    12    26    27   ar
    13    23    42    1
    14    23    28   ar
    15    42    22    1
    16    27    28   ar
    17    41    20    1
    18    41    21    1
    19    19    20    2
    20    19    40    1
    21    22    21    1
    22    40    18    1
    23    16    15    1
    24    16    39    1
    25    17    39    1
    26    17    18    1
    27    15    38    1
    28    38    14    1
    29    14    13    1
    30     3     2    1
    31     3     4    1
    32     2     1    1
    33     5     4    1
    34     5     6    1
    35    13    37    1
    36    37    12    1
    37     6     7    1
    38     7     8    1
    39    12    11    1
    40    10    11    1
    41    10     9    1
    42     8     9    1
