@<TRIPOS>MOLECULE
2yk5_C_A_1.pdb
 21 22 0 0 0
SMALL
GASTEIGER

@<TRIPOS>ATOM
      1  OP3       55.8010   43.2100    1.1020 O.2   1375  C1375      -0.2224
      2  P         55.7830   41.7510    1.7040 P.3   1375  C1375       0.5327
      3  OP1       55.4060   41.7570    3.1480 O.3   1375  C1375      -0.1145
      4  OP2       57.1850   41.2850    1.3720 O.3   1375  C1375      -0.1145
      5  O5'       54.7900   40.9420    0.7640 O.3   1375  C1375      -0.2675
      6  C5'       53.3700   41.2200    0.9030 C.3   1375  C1375       0.1859
      7  C4'       52.5900   40.4780   -0.1920 C.3   1375  C1375       0.1801
      8  O4'       53.0750   41.0220   -1.4350 O.3   1375  C1375      -0.3320
      9  C3'       53.0080   38.9990   -0.2950 C.3   1375  C1375       0.2158
     10  O3'       52.3070   38.1990    0.6540 O.3   1375  C1375      -0.2175
     11  C2'       52.5350   38.7010   -1.6920 C.3   1375  C1375       0.2319
     12  O2'       51.1120   38.5890   -1.7850 O.3   1375  C1375      -0.2157
     13  C1'       52.9020   39.9640   -2.4280 C.3   1375  C1375       0.2400
     14  N1        54.1920   39.7880   -3.1120 N.am  1375  C1375      -0.1778
     15  C2        54.1650   39.3110   -4.4340 C.1   1375  C1375       0.2756
     16  O2        53.0890   39.0170   -4.9670 O.2   1375  C1375      -0.1925
     17  N3        55.3690   39.1540   -5.1070 N.2   1375  C1375      -0.3024
     18  C4        56.5870   39.4590   -4.5280 C.2   1375  C1375       0.2346
     19  N4        57.7160   39.3230   -5.2490 N.pl3 1375  C1375      -0.0921
     20  C5        56.6200   39.9170   -3.2230 C.2   1375  C1375       0.0687
     21  C6        55.4260   40.0950   -2.5240 C.2   1375  C1375       0.0836
@<TRIPOS>BOND
     1    19    18    1
     2    17    18    2
     3    17    15    2
     4    16    15    2
     5    18    20    1
     6    15    14   am
     7    20    21    2
     8    14    21    1
     9    14    13    1
    10    13    11    1
    11    13     8    1
    12    12    11    1
    13    11     9    1
    14     8     7    1
    15     9     7    1
    16     9    10    1
    17     7     6    1
    18     5     6    1
    19     5     2    1
    20     1     2    2
    21     4     2    1
    22     2     3    1
