@<TRIPOS>MOLECULE
2yk6_CDP_A_1.pdb
 25 26 0 0 0
SMALL
GASTEIGER

@<TRIPOS>ATOM
      1  O3B       54.1610   43.4970    2.6240 O.3   1374  CDP1374    -0.1143
      2  PB        55.0380   43.9400    1.3070 P.3   1374  CDP1374     0.5373
      3  O1B       54.5560   43.0200    0.1640 O.2   1374  CDP1374    -0.2221
      4  O2B       54.7690   45.3340    0.8610 O.3   1374  CDP1374    -0.1143
      5  O3A       56.6040   43.5770    1.6020 O.3   1374  CDP1374    -0.2261
      6  PA        56.9520   42.0170    1.7460 P.3   1374  CDP1374     0.2231
      7  O1A       58.4150   41.9070    1.0220 O.2   1374  CDP1374    -0.5169
      8  O2A       56.9060   41.5340    3.1770 O.3   1374  CDP1374    -0.4370
      9  O5'       55.8030   41.2550    0.7260 O.3   1374  CDP1374    -0.3111
     10  C5'       54.4010   40.7480    1.1320 C.3   1374  CDP1374     0.1813
     11  C4'       53.4160   40.3280   -0.0490 C.3   1374  CDP1374     0.1799
     12  O4'       53.8560   40.7730   -1.3340 O.3   1374  CDP1374    -0.3320
     13  C3'       53.3860   38.8210   -0.2000 C.3   1374  CDP1374     0.2158
     14  O3'       52.4300   38.2460    0.6770 O.3   1374  CDP1374    -0.2175
     15  C2'       53.0480   38.5720   -1.6780 C.3   1374  CDP1374     0.2319
     16  O2'       51.6680   38.4800   -2.0230 O.3   1374  CDP1374    -0.2157
     17  C1'       53.4740   39.8340   -2.3240 C.3   1374  CDP1374     0.2400
     18  N1        54.6780   39.6000   -3.1090 N.am  1374  CDP1374    -0.1778
     19  C2        54.5710   39.1840   -4.4100 C.1   1374  CDP1374     0.2756
     20  O2        53.4590   38.9510   -4.8960 O.2   1374  CDP1374    -0.1925
     21  N3        55.7360   39.0250   -5.1580 N.2   1374  CDP1374    -0.3024
     22  C4        56.9830   39.2800   -4.6380 C.2   1374  CDP1374     0.2346
     23  N4        58.0650   39.1410   -5.3720 N.pl3 1374  CDP1374    -0.0921
     24  C5        57.0940   39.6950   -3.3430 C.2   1374  CDP1374     0.0687
     25  C6        55.9380   39.8720   -2.5820 C.2   1374  CDP1374     0.0836
@<TRIPOS>BOND
     1    23    22    1
     2    21    22    2
     3    21    19    2
     4    20    19    2
     5    22    24    1
     6    19    18   am
     7    24    25    2
     8    18    25    1
     9    18    17    1
    10    17    15    1
    11    17    12    1
    12    16    15    1
    13    15    13    1
    14    12    11    1
    15    13    11    1
    16    13    14    1
    17    11    10    1
    18     3     2    2
    19     9    10    1
    20     9     6    1
    21     4     2    1
    22     7     6    2
    23     2     5    1
    24     2     1    1
    25     5     6    1
    26     6     8    1
