@<TRIPOS>MOLECULE
2yk7_CSF_A_1.pdb
 42 44 0 0 0
SMALL
GASTEIGER

@<TRIPOS>ATOM
      1  C5A       -6.6790   -5.7710   18.0270 C.3   1371  CSF1371     0.1582
      2  C4A       -8.1430   -5.6750   18.3830 C.3   1371  CSF1371     0.2121
      3  C2A       -6.9240   -6.6630   20.5160 C.3   1371  CSF1371     0.3216
      4  O6A       -5.7440   -6.0170   19.9690 O.3   1371  CSF1371    -0.3217
      5  C6A       -6.1340   -4.8780   19.1200 C.3   1371  CSF1371     0.1735
      6  C3A       -8.1490   -6.7610   19.4500 C.3   1371  CSF1371     0.2551
      7  O4A       -9.0270   -5.9280   17.2660 O.3   1371  CSF1371    -0.2181
      8  N5A       -6.2850   -5.5600   16.6110 N.am  1371  CSF1371    -0.2019
      9  C7A       -5.2720   -3.6460   18.8800 C.3   1371  CSF1371     0.2135
     10  C8A       -6.1540   -2.4890   19.2720 C.3   1371  CSF1371     0.2173
     11  C9A       -5.5790   -1.1000   18.9210 C.3   1371  CSF1371     0.2175
     12  O9A       -4.6690   -0.5880   19.9210 O.3   1371  CSF1371    -0.2175
     13  O8A       -7.4300   -2.7290   18.6520 O.3   1371  CSF1371    -0.2175
     14  O7A       -4.1710   -3.6690   19.7610 O.3   1371  CSF1371    -0.2176
     15  C1A       -6.4800   -7.9270   20.9960 C.2   1371  CSF1371     0.4183
     16  OBA       -5.2970   -7.9900   21.4360 O.co2 1371  CSF1371    -0.2401
     17  OAA       -7.3810   -8.7130   21.2280 O.co2 1371  CSF1371    -0.2401
     18  O1A       -7.4750   -6.0220   21.7970 O.3   1371  CSF1371    -0.2813
     19  O2A       -7.7410   -6.3430   24.4520 O.3   1371  CSF1371    -0.4372
     20  N1       -10.8620   -2.5170   24.1600 N.am  1371  CSF1371    -0.1778
     21  C2       -12.1090   -2.1110   24.6770 C.1   1371  CSF1371     0.2756
     22  N3       -12.7660   -3.0130   25.5310 N.2   1371  CSF1371    -0.3024
     23  C4       -12.2710   -4.2900   25.8270 C.2   1371  CSF1371     0.2346
     24  C5       -11.0340   -4.7040   25.3150 C.2   1371  CSF1371     0.0687
     25  C6       -10.3210   -3.8290   24.4800 C.2   1371  CSF1371     0.0836
     26  C3'       -7.8260   -1.3640   23.8780 C.3   1371  CSF1371     0.2158
     27  C2'       -9.1800   -0.6370   23.9600 C.3   1371  CSF1371     0.2319
     28  C1'      -10.1130   -1.5900   23.2540 C.3   1371  CSF1371     0.2400
     29  O4'       -9.2750   -2.4490   22.3940 O.3   1371  CSF1371    -0.3320
     30  C4'       -7.9160   -1.9560   22.4670 C.3   1371  CSF1371     0.1799
     31  PA        -6.8400   -5.6210   23.3100 P.3   1371  CSF1371     0.2163
     32  O5'       -7.2330   -4.1040   23.4550 O.3   1371  CSF1371    -0.3113
     33  C5'       -7.0470   -3.2310   22.3190 C.3   1371  CSF1371     0.1813
     34  O3'       -6.7350   -0.4250   24.0540 O.3   1371  CSF1371    -0.2175
     35  O2'       -9.1680    0.6220   23.2250 O.3   1371  CSF1371    -0.2157
     36  N4       -13.0020   -5.0940   26.5710 N.pl3 1371  CSF1371    -0.0921
     37  O2       -12.5730   -0.9710   24.4530 O.2   1371  CSF1371    -0.1925
     38  O3A       -5.3450   -5.7600   23.5290 O.2   1371  CSF1371    -0.5171
     39  C10       -6.0390   -6.6440   15.8410 C.2   1371  CSF1371     0.2420
     40  O10       -6.1300   -7.8270   16.2260 O.2   1371  CSF1371    -0.2733
     41  C11       -5.6400   -6.3110   14.3840 C.3   1371  CSF1371     0.0964
     42  F3A       -8.3150   -7.9800   18.7990 F     1371  CSF1371    -0.2285
@<TRIPOS>BOND
     1    41    39    1
     2    39    40    2
     3    39     8   am
     4     8     1    1
     5     7     2    1
     6     1     2    1
     7     1     5    1
     8     2     6    1
     9    13    10    1
    10    42     6    1
    11     9     5    1
    12     9    10    1
    13     9    14    1
    14    11    10    1
    15    11    12    1
    16     5     4    1
    17     6     3    1
    18     4     3    1
    19     3    15    1
    20     3    18    1
    21    15    17   ar
    22    15    16   ar
    23    18    31    1
    24    33    30    1
    25    33    32    1
    26    29    30    1
    27    29    28    1
    28    30    26    1
    29    35    27    1
    30    28    27    1
    31    28    20    1
    32    31    32    1
    33    31    38    2
    34    31    19    1
    35    26    27    1
    36    26    34    1
    37    20    25    1
    38    20    21   am
    39    37    21    2
    40    25    24    2
    41    21    22    2
    42    24    23    1
    43    22    23    2
    44    23    36    1
