@<TRIPOS>MOLECULE
2yk9_YK9_A_1.pdb
 23 27 0 0 0
SMALL
GASTEIGER

@<TRIPOS>ATOM
      1  C15        8.5650   10.3360   23.4420 C.ar  1224  YK91224     0.0000
      2  C19        7.4890    9.7420   22.7970 C.ar  1224  YK91224     0.0001
      3  C8         8.4020   11.5240   24.1480 C.ar  1224  YK91224     0.0001
      4  C14        6.2270   10.3040   22.8680 C.ar  1224  YK91224     0.0032
      5  C20       11.5690   14.6830   28.1450 C.ar  1224  YK91224     0.0564
      6  C22       12.8560   14.7080   27.6500 C.ar  1224  YK91224     0.1017
      7  C21       12.1460   14.4460   25.4870 C.ar  1224  YK91224     0.1345
      8  C3         7.1370   12.1100   24.2230 C.ar  1224  YK91224     0.0039
      9  C7         6.0390   11.4810   23.5950 C.ar  1224  YK91224     0.0390
     10  C17       10.5450   14.5280   27.2130 C.ar  1224  YK91224     0.1772
     11  C18       10.8000   14.3880   25.8500 C.ar  1224  YK91224     0.1931
     12  C5         8.6590   14.3160   26.0820 C.1   1224  YK91224     0.1380
     13  C1         6.6390   13.3040   24.9400 C.ar  1224  YK91224     0.0145
     14  C9         4.7970   12.2440   23.8900 C.2   1224  YK91224     0.1956
     15  C2         7.2080   14.2690   25.7920 C.ar  1224  YK91224     0.0857
     16  C6         6.4000   15.2490   26.3950 C.ar  1224  YK91224     0.0120
     17  C13        5.0280   15.2860   26.1720 C.ar  1224  YK91224     0.0009
     18  C10        4.4410   14.3620   25.3290 C.ar  1224  YK91224     0.0032
     19  N23       13.1530   14.5980   26.3500 N.ar  1224  YK91224    -0.2394
     20  N11        9.1650   14.4930   27.3340 N.2   1224  YK91224    -0.3371
     21  C30        5.2310   13.3810   24.7390 C.ar  1224  YK91224     0.0397
     22  N12        9.6050   14.2430   25.1550 N.2   1224  YK91224    -0.3356
     23  O16        3.6480   11.9920   23.5050 O.2   1224  YK91224    -0.2866
@<TRIPOS>BOND
     1     2     4   ar
     2     2     1   ar
     3     4     9   ar
     4     1     3   ar
     5    23    14    2
     6     9    14    1
     7     9     8   ar
     8    14    21    1
     9     3     8   ar
    10     8    13    1
    11    21    13   ar
    12    21    18   ar
    13    13    15   ar
    14    22    11    2
    15    22    12    2
    16    18    17   ar
    17     7    11   ar
    18     7    19   ar
    19    15    12    1
    20    15    16   ar
    21    11    10   ar
    22    12    20    2
    23    17    16   ar
    24    19     6   ar
    25    10    20    2
    26    10     5   ar
    27     6     5   ar
