@<TRIPOS>MOLECULE
2ykb_YKB_A_1.pdb
 30 34 0 0 0
SMALL
GASTEIGER

@<TRIPOS>ATOM
      1  C1         8.2200   35.1260  -23.4230 C.ar  1224  YKB1224    -0.0000
      2  C2         7.0120   35.7570  -22.8600 C.ar  1224  YKB1224    -0.0003
      3  C3         5.8640   34.9580  -23.1320 C.ar  1224  YKB1224    -0.0023
      4  C4         8.2580   33.9250  -24.2090 C.ar  1224  YKB1224    -0.0002
      5  C5         6.9960   33.2260  -24.4240 C.ar  1224  YKB1224    -0.0016
      6  C6         5.8490   33.7790  -23.8610 C.ar  1224  YKB1224     0.0016
      7  C7         4.6470   32.9740  -24.1270 C.3   1224  YKB1224     0.1397
      8  C8         6.5690   31.9700  -25.1500 C.ar  1224  YKB1224     0.0090
      9  C9         5.2020   31.8060  -24.9920 C.ar  1224  YKB1224     0.0023
     10  C10        4.4060   30.7670  -25.5010 C.ar  1224  YKB1224    -0.0023
     11  C11        5.0520   29.7250  -26.2950 C.ar  1224  YKB1224     0.0005
     12  C12        6.5000   29.9160  -26.4800 C.ar  1224  YKB1224     0.0120
     13  C13        7.2510   30.9760  -25.9230 C.ar  1224  YKB1224     0.0853
     14  C14        8.7520   30.9720  -26.1890 C.1   1224  YKB1224     0.1373
     15  N15        9.6750   31.0700  -25.2800 N.2   1224  YKB1224    -0.3415
     16  N16        9.2610   30.8090  -27.5130 N.2   1224  YKB1224    -0.3399
     17  C17       10.5360   30.8030  -27.4640 C.2   1224  YKB1224     0.1723
     18  C18       10.8100   30.9530  -26.0730 C.2   1224  YKB1224     0.1554
     19  C19       12.2090   30.9840  -25.6030 C.3   1224  YKB1224     0.1088
     20  C20       13.1580   30.8320  -26.4940 C.2   1224  YKB1224     0.0748
     21  N21       12.8530   30.7030  -27.8620 N.2   1224  YKB1224    -0.2654
     22  C22       11.6090   30.6970  -28.3740 C.3   1224  YKB1224     0.1869
     23  N23        3.4680   33.4420  -24.7570 N.am  1224  YKB1224    -0.1981
     24  C24        2.2520   33.6730  -24.1110 C.2   1224  YKB1224     0.2424
     25  C25        1.0500   34.1750  -24.9400 C.3   1224  YKB1224     0.0965
     26  O26        2.1630   33.4940  -22.8890 O.2   1224  YKB1224    -0.2733
     27  C27       -0.1400   34.6140  -24.1480 C.3   1224  YKB1224     0.0981
     28  C28       -1.4250   34.4990  -24.8330 C.2   1224  YKB1224     0.2612
     29  O29       -1.5400   34.7230  -26.1600 O.2   1224  YKB1224    -0.2716
     30  N30       -2.3200   34.0430  -24.1240 N.am  1224  YKB1224    -0.0878
@<TRIPOS>BOND
     1    22    21    1
     2    22    17    1
     3    21    20    2
     4    16    17    2
     5    16    14    2
     6    17    18    1
     7    20    19    1
     8    12    11   ar
     9    12    13   ar
    10    11    10   ar
    11    14    13    1
    12    14    15    2
    13    29    28    2
    14    18    19    1
    15    18    15    2
    16    13     8   ar
    17    10     9   ar
    18     8     9   ar
    19     8     5    1
    20     9     7    1
    21    25    27    1
    22    25    24    1
    23    28    27    1
    24    28    30   am
    25    23     7    1
    26    23    24   am
    27     5     4   ar
    28     5     6   ar
    29     4     1   ar
    30     7     6    1
    31    24    26    2
    32     6     3   ar
    33     1     2   ar
    34     3     2   ar
