@<TRIPOS>MOLECULE
2ykc_YKC_A_1.pdb
 31 36 0 0 0
SMALL
GASTEIGER

@<TRIPOS>ATOM
      1  C1         8.0450   10.2400   23.4430 C.ar  1224  YKC1224    -0.0000
      2  C2         6.8490    9.6260   22.9020 C.ar  1224  YKC1224    -0.0003
      3  C3         5.6070   10.2990   23.1110 C.ar  1224  YKC1224    -0.0023
      4  C4         8.0570   11.5060   24.1960 C.ar  1224  YKC1224    -0.0002
      5  C5         6.7960   12.1870   24.3800 C.ar  1224  YKC1224    -0.0016
      6  C6         5.5640   11.5270   23.7950 C.ar  1224  YKC1224     0.0016
      7  C7         4.4300   12.4130   24.1190 C.3   1224  YKC1224     0.1400
      8  C8         6.3680   13.3690   25.0490 C.ar  1224  YKC1224     0.0090
      9  C9         4.9710   13.5210   24.8870 C.ar  1224  YKC1224     0.0023
     10  C10        4.2600   14.6530   25.4940 C.ar  1224  YKC1224    -0.0023
     11  C11        4.9870   15.6060   26.2720 C.ar  1224  YKC1224     0.0005
     12  C12        6.3990   15.4440   26.4370 C.ar  1224  YKC1224     0.0120
     13  C13        7.0920   14.3470   25.8280 C.ar  1224  YKC1224     0.0853
     14  C14        8.5440   14.3430   26.0510 C.1   1224  YKC1224     0.1379
     15  N15        9.4940   14.1550   25.1230 N.2   1224  YKC1224    -0.3371
     16  N16        9.0590   14.5150   27.3110 N.2   1224  YKC1224    -0.3356
     17  C17       10.3920   14.5020   27.1630 C.ar  1224  YKC1224     0.1931
     18  C18       10.6940   14.2780   25.7560 C.ar  1224  YKC1224     0.1772
     19  C19       12.0150   14.2150   25.2850 C.ar  1224  YKC1224     0.0564
     20  C20       12.9960   14.4320   26.2470 C.ar  1224  YKC1224     0.1017
     21  N21       12.7270   14.6150   27.6080 N.ar  1224  YKC1224    -0.2394
     22  C22       11.4290   14.6570   28.0620 C.ar  1224  YKC1224     0.1345
     23  N23        3.2480   11.9200   24.7620 N.am  1224  YKC1224    -0.1944
     24  C24        2.1080   11.6650   24.0310 C.2   1224  YKC1224     0.2654
     25  C25        0.8960   11.2280   24.7890 C.ar  1224  YKC1224     0.0581
     26  O26        2.1010   11.8230   22.8070 O.2   1224  YKC1224    -0.2683
     27  C27       -0.3950   11.6650   24.2140 C.ar  1224  YKC1224     0.0252
     28  C28       -1.5650   11.3290   24.9430 C.ar  1224  YKC1224     0.0990
     29  C40        0.9930   10.5200   26.0470 C.ar  1224  YKC1224     0.0252
     30  N30       -1.4590   10.6080   26.1560 N.ar  1224  YKC1224    -0.2423
     31  C60       -0.2360   10.1910   26.7380 C.ar  1224  YKC1224     0.0990
@<TRIPOS>BOND
     1    26    24    2
     2     2     3   ar
     3     2     1   ar
     4     3     6   ar
     5     1     4   ar
     6     6     7    1
     7     6     5   ar
     8    24    23   am
     9    24    25    1
    10     7    23    1
    11     7     9    1
    12     4     5   ar
    13    27    25   ar
    14    27    28   ar
    15     5     8    1
    16    25    29   ar
    17     9     8   ar
    18     9    10   ar
    19    28    30   ar
    20     8    13   ar
    21    15    18    2
    22    15    14    2
    23    19    18   ar
    24    19    20   ar
    25    10    11   ar
    26    18    17   ar
    27    13    14    1
    28    13    12   ar
    29    29    31   ar
    30    14    16    2
    31    30    31   ar
    32    20    21   ar
    33    11    12   ar
    34    17    16    2
    35    17    22   ar
    36    21    22   ar
