@<TRIPOS>MOLECULE
2yke_YKE_A_1.pdb
 35 41 0 0 0
SMALL
GASTEIGER

@<TRIPOS>ATOM
      1  C1         8.4630   10.4070   23.5140 C.2   1224  YKE1224    -0.0214
      2  C2         7.3650    9.7460   22.9790 C.2   1224  YKE1224    -0.0042
      3  C3         6.0960   10.2860   23.1210 C.2   1224  YKE1224     0.0007
      4  C4         8.3350   11.5930   24.2370 C.3   1224  YKE1224     0.0524
      5  C5         7.0630   12.1610   24.3720 C.2   1224  YKE1224    -0.0158
      6  C6         5.9700   11.5320   23.7090 C.2   1224  YKE1224     0.0117
      7  C7         4.8690   12.1990   24.4130 C.2   1224  YKE1224     0.0733
      8  C8         6.5840   13.3880   25.0870 C.ar  1224  YKE1224     0.0090
      9  C9         5.2130   13.5490   24.8690 C.ar  1224  YKE1224     0.0158
     10  C10        4.4610   14.5390   25.4730 C.ar  1224  YKE1224     0.0013
     11  C11        5.1110   15.4900   26.2490 C.ar  1224  YKE1224     0.0008
     12  C12        6.4770   15.4050   26.4540 C.ar  1224  YKE1224     0.0120
     13  C13        7.2310   14.3760   25.8720 C.ar  1224  YKE1224     0.0853
     14  C14        8.6730   14.3890   26.1500 C.1   1224  YKE1224     0.1379
     15  N15        9.2020   14.5590   27.3600 N.2   1224  YKE1224    -0.3371
     16  N16        9.6390   14.2750   25.2150 N.2   1224  YKE1224    -0.3356
     17  C17       10.8470   14.4230   25.8780 C.ar  1224  YKE1224     0.1931
     18  C18       10.5500   14.5960   27.2480 C.ar  1224  YKE1224     0.1772
     19  C19       11.6000   14.7550   28.1760 C.ar  1224  YKE1224     0.0564
     20  C20       12.8870   14.7720   27.6800 C.ar  1224  YKE1224     0.1017
     21  N21       13.1230   14.6260   26.3780 N.ar  1224  YKE1224    -0.2394
     22  C22       12.1760   14.4240   25.4690 C.ar  1224  YKE1224     0.1345
     23  N23        3.5190   11.7230   24.6080 N.am  1224  YKE1224    -0.1755
     24  C24        2.7750   10.6720   24.2640 C.2   1224  YKE1224     0.2690
     25  C25        1.6740   10.3720   25.2240 C.ar  1224  YKE1224     0.0568
     26  O26        2.8840   10.1230   23.1770 O.2   1224  YKE1224    -0.2680
     27  C27        2.0090    9.6510   26.3830 C.ar  1224  YKE1224     0.0047
     28  C28       -0.2850    9.6100   27.1520 C.ar  1224  YKE1224     0.0191
     29  C29        1.0350    9.2810   27.3250 C.ar  1224  YKE1224     0.0017
     30  C30        0.3090   10.7340   25.0010 C.ar  1224  YKE1224     0.0221
     31  C31       -0.6630   10.3320   25.9690 C.ar  1224  YKE1224     0.0814
     32  N32       -1.9420   10.6700   25.7710 N.ar  1224  YKE1224    -0.2438
     33  C33       -2.3260   11.2620   24.6640 C.ar  1224  YKE1224     0.0988
     34  C34       -1.4630   11.7010   23.6730 C.ar  1224  YKE1224     0.0207
     35  C35       -0.1060   11.4660   23.8600 C.ar  1224  YKE1224     0.0032
@<TRIPOS>BOND
     1     2     3    1
     2     2     1    2
     3     3     6    2
     4    26    24    2
     5     1     4    1
     6    34    35   ar
     7    34    33   ar
     8     6     5    1
     9     6     7    1
    10    35    30   ar
    11     4     5    1
    12    24    23   am
    13    24    25    1
    14     5     8    2
    15     7    23    1
    16     7     9    2
    17    33    32   ar
    18     9     8   ar
    19     9    10   ar
    20    30    25   ar
    21    30    31   ar
    22     8    13   ar
    23    16    17    2
    24    16    14    2
    25    25    27   ar
    26    22    17   ar
    27    22    21   ar
    28    10    11   ar
    29    32    31   ar
    30    13    14    1
    31    13    12   ar
    32    17    18   ar
    33    31    28   ar
    34    14    15    2
    35    11    12   ar
    36    21    20   ar
    37    27    29   ar
    38    28    29   ar
    39    18    15    2
    40    18    19   ar
    41    20    19   ar
