@<TRIPOS>MOLECULE
2yki_YKI_A_1.pdb
 34 40 0 0 0
SMALL
GASTEIGER

@<TRIPOS>ATOM
      1  C1        13.3100   14.4050   26.4850 C.ar  1224  YKI1224     0.1017
      2  N1        13.0260   14.6140   27.8340 N.ar  1224  YKI1224    -0.2394
      3  C2        11.7160   14.6960   28.2950 C.ar  1224  YKI1224     0.1345
      4  N2         9.2910   14.5930   27.4880 N.2   1224  YKI1224    -0.3356
      5  C3        12.2830   14.2610   25.5220 C.ar  1224  YKI1224     0.0564
      6  N3         9.7400   14.2580   25.3430 N.2   1224  YKI1224    -0.3371
      7  C4         8.7580   14.4110   26.2680 C.1   1224  YKI1224     0.1379
      8  N4         3.5690   11.9560   24.6550 N.am  1224  YKI1224    -0.1976
      9  C5        10.9530   14.3440   25.9690 C.ar  1224  YKI1224     0.1772
     10  N5        -1.1620   10.2670   26.1340 N.2   1224  YKI1224    -0.1932
     11  C6        10.6580   14.5590   27.3740 C.ar  1224  YKI1224     0.1931
     12  N6        -2.3590   11.5620   24.3860 N.2   1224  YKI1224    -0.2154
     13  C7         7.3310   14.4050   26.0300 C.ar  1224  YKI1224     0.0853
     14  C8         4.4750   14.5760   25.6390 C.ar  1224  YKI1224    -0.0023
     15  C9         5.1590   15.5770   26.3920 C.ar  1224  YKI1224     0.0005
     16  C10        6.5780   15.4750   26.5770 C.ar  1224  YKI1224     0.0120
     17  C11        2.4440   11.4850   24.0790 C.2   1224  YKI1224     0.2504
     18  C12        1.2430   11.0110   24.8590 C.3   1224  YKI1224     0.1330
     19  O13        2.4240   11.4800   22.8390 O.2   1224  YKI1224    -0.2726
     20  C14        1.2920   10.1820   26.0380 C.2   1224  YKI1224     0.0092
     21  C15        0.0470    9.8260   26.6640 C.2   1224  YKI1224     0.1058
     22  C16        4.5710   12.3870   24.2720 C.3   1224  YKI1224     0.1397
     23  C17        5.1960   13.4650   25.0650 C.ar  1224  YKI1224     0.0023
     24  C18        6.5850   13.3350   25.2300 C.ar  1224  YKI1224     0.0090
     25  C19        5.8240   11.5170   23.9560 C.ar  1224  YKI1224     0.0016
     26  C20        7.0090   12.1050   24.5250 C.ar  1224  YKI1224    -0.0016
     27  C21        8.2930   11.4330   24.3260 C.ar  1224  YKI1224    -0.0002
     28  C22        8.3700   10.2140   23.5750 C.ar  1224  YKI1224    -0.0000
     29  C23        7.1600    9.6370   23.0090 C.ar  1224  YKI1224    -0.0003
     30  C24        5.8960   10.2880   23.1980 C.ar  1224  YKI1224    -0.0023
     31  C25       -0.0800   11.4560   24.3250 C.2   1224  YKI1224     0.0501
     32  C26       -1.2240   11.0730   24.9920 C.1   1224  YKI1224     0.0275
     33  C27       -1.9350   12.2990   23.2940 C.3   1224  YKI1224     0.1628
     34  C28       -0.5270   12.2640   23.2210 C.2   1224  YKI1224     0.0073
@<TRIPOS>BOND
     1    19    17    2
     2    29    30   ar
     3    29    28   ar
     4    30    25   ar
     5    34    33    1
     6    34    31    2
     7    33    12    1
     8    28    27   ar
     9    25    22    1
    10    25    26   ar
    11    17     8   am
    12    17    18    1
    13    22     8    1
    14    22    23    1
    15    31    18    1
    16    31    32    1
    17    27    26   ar
    18    12    32    2
    19    26    24    1
    20    18    20    1
    21    32    10    2
    22    23    24   ar
    23    23    14   ar
    24    24    13   ar
    25     6     9    2
    26     6     7    2
    27     5     9   ar
    28     5     1   ar
    29    14    15   ar
    30     9    11   ar
    31    13     7    1
    32    13    16   ar
    33    20    21    2
    34    10    21    1
    35     7     4    2
    36    15    16   ar
    37     1     2   ar
    38    11     4    2
    39    11     3   ar
    40     2     3   ar
