@<TRIPOS>MOLECULE
2ykj_YKJ_A_1.pdb
 32 37 0 0 0
SMALL
GASTEIGER

@<TRIPOS>ATOM
      1  C1        13.1630   14.5080   26.3330 C.2   1224  YKJ1224     0.0748
      2  N1        12.9200   14.6840   27.6900 N.2   1224  YKJ1224    -0.2654
      3  C2        11.5990   14.7380   28.1430 C.3   1224  YKJ1224     0.1869
      4  N2         9.1460   14.6310   27.3570 N.2   1224  YKJ1224    -0.3399
      5  C3        12.1340   14.3720   25.3770 C.3   1224  YKJ1224     0.1088
      6  N3         9.6160   14.3480   25.2220 N.2   1224  YKJ1224    -0.3415
      7  C4         8.6090   14.4700   26.1120 C.1   1224  YKJ1224     0.1373
      8  N4         3.3120   11.8590   24.7590 N.am  1224  YKJ1224    -0.1944
      9  C5        10.8140   14.4330   25.8440 C.2   1224  YKJ1224     0.1554
     10  N5        -1.4130   10.5800   26.2210 N.ar  1224  YKJ1224    -0.2259
     11  C6        10.5250   14.6120   27.2460 C.2   1224  YKJ1224     0.1723
     12  N6        -0.0740    9.5580   27.8070 N.pl3 1224  YKJ1224    -0.1072
     13  C7         7.2530   14.4660   25.8850 C.ar  1224  YKJ1224     0.0853
     14  C8         4.3870   14.7330   25.5160 C.ar  1224  YKJ1224    -0.0023
     15  C9         5.0990   15.7030   26.2880 C.ar  1224  YKJ1224     0.0005
     16  C10        6.5120   15.5570   26.4570 C.ar  1224  YKJ1224     0.0120
     17  C11        2.2180   11.7290   24.0010 C.2   1224  YKJ1224     0.2655
     18  C12        0.8680   11.3390   24.7660 C.ar  1224  YKJ1224     0.0595
     19  O13        2.1940   11.8880   22.7780 O.2   1224  YKJ1224    -0.2683
     20  C14       -0.4190   11.6970   24.2800 C.ar  1224  YKJ1224     0.0253
     21  C15       -1.5390   11.2950   25.0410 C.ar  1224  YKJ1224     0.1006
     22  C16        4.5710   12.6170   24.1690 C.3   1224  YKJ1224     0.1400
     23  C17        5.0980   13.6430   24.9460 C.ar  1224  YKJ1224     0.0023
     24  C18        6.5020   13.4600   25.0980 C.ar  1224  YKJ1224     0.0090
     25  C19        5.6260   11.6830   23.7870 C.ar  1224  YKJ1224     0.0016
     26  C20        6.8450   12.2630   24.3910 C.ar  1224  YKJ1224    -0.0016
     27  C21        8.0800   11.5530   24.1790 C.ar  1224  YKJ1224    -0.0002
     28  C22        8.1310   10.3300   23.4080 C.ar  1224  YKJ1224    -0.0000
     29  C23        6.9300    9.7960   22.8360 C.ar  1224  YKJ1224    -0.0003
     30  C24        5.6890   10.4860   23.0320 C.ar  1224  YKJ1224    -0.0023
     31  C25        1.0380   10.5970   25.9870 C.ar  1224  YKJ1224     0.0422
     32  C26       -0.1470   10.2460   26.6690 C.ar  1224  YKJ1224     0.1699
@<TRIPOS>BOND
     1    19    17    2
     2    29    30   ar
     3    29    28   ar
     4    30    25   ar
     5    28    27   ar
     6    25    22    1
     7    25    26   ar
     8    17     8   am
     9    17    18    1
    10    22     8    1
    11    22    23    1
    12    27    26   ar
    13    20    18   ar
    14    20    21   ar
    15    26    24    1
    16    18    31   ar
    17    23    24   ar
    18    23    14   ar
    19    21    10   ar
    20    24    13   ar
    21     6     9    2
    22     6     7    2
    23     5     9    1
    24     5     1    1
    25    14    15   ar
    26     9    11    1
    27    13     7    1
    28    13    16   ar
    29    31    32   ar
    30     7     4    2
    31    10    32   ar
    32    15    16   ar
    33     1     2    2
    34    32    12    1
    35    11     4    2
    36    11     3    1
    37     2     3    1
