@<TRIPOS>MOLECULE
2ykl_NLD_H_1.pdb
 19 20 0 0 0
SMALL
GASTEIGER

@<TRIPOS>ATOM
      1  O19      -19.1750    2.2680    6.6470 O.2   1213  NLD1213    -0.2501
      2  C15      -20.3460    1.8970    6.7020 C.2   1213  NLD1213     0.3170
      3  C16      -21.0610    1.5800    7.9980 C.3   1213  NLD1213     0.1096
      4  C17      -20.0970    1.1450    9.1050 C.3   1213  NLD1213     0.0116
      5  C18      -20.8060    0.2170   10.0800 C.3   1213  NLD1213     0.0006
      6  O14      -21.0840    1.7660    5.4700 O.3   1213  NLD1213    -0.4484
      7  C13      -20.4300    1.9670    4.2320 C.3   1213  NLD1213     0.2100
      8  C7       -21.3570    1.5270    3.1220 C.3   1213  NLD1213     0.0641
      9  C6       -20.7280    1.7560    1.7570 C.3   1213  NLD1213     0.0852
     10  N2       -21.2720    0.6410    0.9470 N.3   1213  NLD1213    -0.2690
     11  C10      -20.4850    0.3610   -0.2710 C.3   1213  NLD1213     0.0899
     12  C9       -21.1790   -0.5220    1.8540 C.3   1213  NLD1213     0.0725
     13  C8       -21.5570    0.0230    3.2260 C.3   1213  NLD1213     0.0227
     14  C2       -20.9350    3.1380    1.2170 C.ar  1213  NLD1213     0.0115
     15  C1       -19.7990    3.8860    0.8910 C.ar  1213  NLD1213     0.0959
     16  N1       -19.9480    5.1260    0.3990 N.ar  1213  NLD1213    -0.2426
     17  C5       -21.1590    5.6920    0.2070 C.ar  1213  NLD1213     0.0989
     18  C4       -22.3300    5.0000    0.5080 C.ar  1213  NLD1213     0.0204
     19  C3       -22.1980    3.7030    1.0130 C.ar  1213  NLD1213     0.0002
@<TRIPOS>BOND
     1    11    10    1
     2    17    16   ar
     3    17    18   ar
     4    16    15   ar
     5    18    19   ar
     6    15    14   ar
     7    10     9    1
     8    10    12    1
     9    19    14   ar
    10    14     9    1
    11     9     8    1
    12    12    13    1
    13     8    13    1
    14     8     7    1
    15     7     6    1
    16     6     2    1
    17     1     2    2
    18     2     3    1
    19     3     4    1
    20     4     5    1
