@<TRIPOS>MOLECULE
2ykm_YKN_A_1.pdb
 20 22 0 0 0
SMALL
GASTEIGER

@<TRIPOS>ATOM
      1  F10       46.6490   65.4910   16.1850 F     1559  YKN1559    -0.1802
      2  C9        46.5670   64.2410   15.7890 C.3   1559  YKN1559     0.3936
      3  F11       45.2600   64.0420   15.7020 F     1559  YKN1559    -0.1802
      4  S12       47.4030   63.8720   14.2200 S.3   1559  YKN1559     0.0437
      5  C13       49.0470   64.1510   14.2840 C.1   1559  YKN1559     0.1207
      6  N15       49.4860   64.6790   15.4370 N.2   1559  YKN1559    -0.3485
      7  C16       50.7870   64.9510   15.6120 C.2   1559  YKN1559     0.1229
      8  C17       51.1730   65.5480   16.9400 C.3   1559  YKN1559     0.0675
      9  C18       51.6970   64.6600   14.5790 C.2   1559  YKN1559     0.0500
     10  C19       51.1960   64.0940   13.3910 C.2   1559  YKN1559     0.1133
     11  N20       49.8760   63.8490   13.2590 N.2   1559  YKN1559    -0.1769
     12  C8        47.0480   63.4410   16.9540 C.2   1559  YKN1559     0.3322
     13  N7        47.4620   64.0390   18.0920 N.2   1559  YKN1559    -0.3629
     14  C6        47.7730   63.0120   18.9320 C.2   1559  YKN1559     0.1685
     15  C1        47.5030   61.8440   18.2190 C.2   1559  YKN1559     0.1735
     16  O14       47.0520   62.0830   17.0070 O.2   1559  YKN1559    -0.4238
     17  C5        48.2580   62.9330   20.2470 C.2   1559  YKN1559     0.0311
     18  C4        48.4660   61.6780   20.8130 C.2   1559  YKN1559    -0.0186
     19  C3        48.1890   60.5420   20.0730 C.3   1559  YKN1559     0.0554
     20  C2        47.7080   60.5930   18.7690 C.2   1559  YKN1559     0.0188
@<TRIPOS>BOND
     1    11    10    1
     2    11     5    2
     3    10     9    2
     4     4     5    1
     5     4     2    1
     6     5     6    2
     7     9     7    1
     8     6     7    2
     9     7     8    1
    10     3     2    1
    11     2     1    1
    12     2    12    1
    13    12    16    1
    14    12    13    2
    15    16    15    1
    16    13    14    2
    17    15    20    2
    18    15    14    1
    19    20    19    1
    20    14    17    1
    21    19    18    1
    22    17    18    2
