@<TRIPOS>MOLECULE
2ykn_YKN_A_1.pdb
 20 22 0 0 0
SMALL
GASTEIGER

@<TRIPOS>ATOM
      1  F10       46.8790   65.9990   16.2580 F     1559  YKN1559    -0.1802
      2  C9        46.5710   64.7830   15.8220 C.3   1559  YKN1559     0.3936
      3  F11       45.2490   64.8400   15.9040 F     1559  YKN1559    -0.1802
      4  S12       47.2780   64.2730   14.1670 S.3   1559  YKN1559     0.0437
      5  C13       48.9670   64.4200   14.3680 C.1   1559  YKN1559     0.1207
      6  N15       49.4170   64.8810   15.5510 N.2   1559  YKN1559    -0.3485
      7  C16       50.7200   65.0790   15.8250 C.2   1559  YKN1559     0.1229
      8  C17       51.0440   65.5860   17.2210 C.3   1559  YKN1559     0.0675
      9  C18       51.6690   64.7900   14.8250 C.2   1559  YKN1559     0.0500
     10  C19       51.1640   64.3070   13.6090 C.2   1559  YKN1559     0.1133
     11  N20       49.8420   64.1210   13.3950 N.2   1559  YKN1559    -0.1769
     12  C8        46.9850   63.9360   16.9790 C.2   1559  YKN1559     0.3319
     13  N7        47.3870   64.4310   18.1680 N.2   1559  YKN1559    -0.3670
     14  C6        47.6310   63.3370   18.9460 C.2   1559  YKN1559     0.1510
     15  C5        48.0990   63.1530   20.2450 C.3   1559  YKN1559     0.0883
     16  C4        48.2690   61.8550   20.7120 C.2   1559  YKN1559    -0.0185
     17  C3        47.9120   60.8140   19.8650 C.2   1559  YKN1559    -0.0009
     18  C2        47.4370   60.9760   18.5990 C.2   1559  YKN1559     0.0396
     19  C1        47.3260   62.2590   18.1610 C.2   1559  YKN1559     0.1736
     20  O14       46.9170   62.6010   16.9710 O.2   1559  YKN1559    -0.4238
@<TRIPOS>BOND
     1    11    10    1
     2    11     5    2
     3    10     9    2
     4     4     5    1
     5     4     2    1
     6     5     6    2
     7     9     7    1
     8     6     7    2
     9     2     3    1
    10     2     1    1
    11     2    12    1
    12     7     8    1
    13    20    12    1
    14    20    19    1
    15    12    13    2
    16    19    18    2
    17    19    14    1
    18    13    14    2
    19    18    17    1
    20    14    15    1
    21    17    16    2
    22    15    16    1
