@<TRIPOS>MOLECULE
2yku_PLP_A_1.pdb
 15 15 0 0 0
SMALL
GASTEIGER

@<TRIPOS>ATOM
      1  O1P       23.3280   79.0110   34.0590 O.3   1280  PLP1280    -0.1145
      2  P         21.8890   78.7310   33.5310 P.3   1280  PLP1280     0.5329
      3  O2P       21.0780   77.6820   34.2480 O.3   1280  PLP1280    -0.1145
      4  O3P       21.3170   79.6040   32.4840 O.2   1280  PLP1280    -0.2224
      5  O4P       21.2560   79.8290   34.5810 O.3   1280  PLP1280    -0.2656
      6  C5A       21.4700   79.7180   35.9490 C.3   1280  PLP1280     0.1779
      7  C5        20.4850   80.2960   37.0310 C.2   1280  PLP1280     0.0118
      8  C6        20.9200   81.3230   37.8730 C.2   1280  PLP1280     0.0929
      9  N1        20.1270   81.8430   38.8120 N.2   1280  PLP1280    -0.2458
     10  C2        18.8780   81.3920   39.0070 C.2   1280  PLP1280     0.0942
     11  C2A       18.0010   82.0100   40.1040 C.3   1280  PLP1280     0.0552
     12  C3        18.3770   80.3720   38.2040 C.2   1280  PLP1280     0.1899
     13  O3        17.2190   79.9850   38.4130 O.2   1280  PLP1280    -0.2898
     14  C4        19.1740   79.8050   37.1870 C.3   1280  PLP1280     0.0852
     15  C4A       18.6590   78.6900   36.2710 C.3   1280  PLP1280     0.0127
@<TRIPOS>BOND
     1     4     2    2
     2     2     1    1
     3     2     3    1
     4     2     5    1
     5     5     6    1
     6     6     7    1
     7    15    14    1
     8     7    14    1
     9     7     8    2
    10    14    12    1
    11     8     9    1
    12    12    13    2
    13    12    10    1
    14     9    10    2
    15    10    11    1
