@<TRIPOS>MOLECULE
2ykv_IK2_A_1.pdb
 21 21 0 0 0
SMALL
GASTEIGER

@<TRIPOS>ATOM
      1  N1        19.8720   80.8180   38.1000 N.ar  1445  IK21445    -0.2452
      2  C2        18.6940   80.2310   38.3700 C.ar  1445  IK21445     0.0978
      3  C2A       17.6820   80.7660   39.3940 C.3   1445  IK21445     0.0555
      4  C3        18.3720   79.0710   37.6970 C.ar  1445  IK21445     0.2063
      5  O3        17.2110   78.4400   37.9320 O.3   1445  IK21445    -0.2856
      6  C4        19.2120   78.5160   36.7510 C.ar  1445  IK21445     0.0379
      7  C4A       18.6130   77.2570   36.1360 C.3   1445  IK21445     0.1508
      8  N4A       19.5310   76.3480   35.5510 N.4   1445  IK21445    -0.0781
      9  OX        18.6920   75.2770   35.0790 O.3   1445  IK21445    -0.2536
     10  C1'       19.3920   74.0560   34.9560 C.3   1445  IK21445     0.2813
     11  C2'       18.8400   73.2580   33.7960 C.2   1445  IK21445     0.3967
     12  O1'       19.5970   72.4060   33.3150 O.co2 1445  IK21445    -0.2428
     13  O2'       17.6650   73.4990   33.4500 O.co2 1445  IK21445    -0.2428
     14  C5        20.4370   79.1550   36.4930 C.ar  1445  IK21445     0.0276
     15  C6        20.7230   80.3260   37.1940 C.ar  1445  IK21445     0.0965
     16  C5A       21.5020   78.6850   35.4800 C.3   1445  IK21445     0.1816
     17  O4P       21.0130   79.0040   34.1710 O.3   1445  IK21445    -0.2653
     18  P         21.5520   78.1290   32.8910 P.3   1445  IK21445     0.5329
     19  O1P       23.1320   78.1650   32.9550 O.3   1445  IK21445    -0.1145
     20  O2P       21.1170   76.6070   33.1070 O.3   1445  IK21445    -0.1145
     21  O3P       21.0730   78.7020   31.6000 O.2   1445  IK21445    -0.2224
@<TRIPOS>BOND
     1    21    18    2
     2    18    19    1
     3    18    20    1
     4    18    17    1
     5    12    11   ar
     6    13    11   ar
     7    11    10    1
     8    17    16    1
     9    10     9    1
    10     9     8    1
    11    16    14    1
    12     8     7    1
    13     7     6    1
    14    14     6   ar
    15    14    15   ar
    16     6     4   ar
    17    15     1   ar
    18     4     5    1
    19     4     2   ar
    20     1     2   ar
    21     2     3    1
