@<TRIPOS>MOLECULE
2ykx_PLP_A_1.pdb
 15 15 0 0 0
SMALL
GASTEIGER

@<TRIPOS>ATOM
      1  N1        20.1270   81.5510   38.5880 N.2   1280  PLP1280    -0.2458
      2  C2        18.8660   81.1170   38.7230 C.2   1280  PLP1280     0.0942
      3  C2A       17.9750   81.7380   39.8090 C.3   1280  PLP1280     0.0552
      4  C3        18.3740   80.1170   37.8820 C.2   1280  PLP1280     0.1899
      5  O3        17.2110   79.7320   38.0200 O.2   1280  PLP1280    -0.2898
      6  C4        19.1920   79.5590   36.8860 C.3   1280  PLP1280     0.0852
      7  C4A       18.7020   78.4600   35.9230 C.3   1280  PLP1280     0.0127
      8  C5        20.5030   80.0480   36.8070 C.2   1280  PLP1280     0.0118
      9  C6        20.9380   81.0500   37.6690 C.2   1280  PLP1280     0.0929
     10  C5A       21.4770   79.5020   35.7520 C.3   1280  PLP1280     0.1779
     11  O4P       21.1990   79.7860   34.4550 O.3   1280  PLP1280    -0.2656
     12  P         21.8020   78.7320   33.3790 P.3   1280  PLP1280     0.5329
     13  O1P       21.2790   77.2580   33.7360 O.3   1280  PLP1280    -0.1145
     14  O2P       23.3940   78.6830   33.5170 O.3   1280  PLP1280    -0.1145
     15  O3P       21.4060   79.1470   32.0060 O.2   1280  PLP1280    -0.2224
@<TRIPOS>BOND
     1    15    12    2
     2    12    14    1
     3    12    13    1
     4    12    11    1
     5    11    10    1
     6    10     8    1
     7     7     6    1
     8     8     6    1
     9     8     9    2
    10     6     4    1
    11     9     1    1
    12     4     5    2
    13     4     2    1
    14     1     2    2
    15     2     3    1
