@<TRIPOS>MOLECULE
2ykx_AKG_A_1.pdb
 10 9 0 0 0
SMALL
GASTEIGER

@<TRIPOS>ATOM
      1  C1        17.1400   74.4080   38.1020 C.2   1445  AKG1445     0.4219
      2  O1        15.9920   74.8810   38.2210 O.co2 1445  AKG1445    -0.2373
      3  O2        17.5400   73.4380   38.7800 O.co2 1445  AKG1445    -0.2373
      4  C2        18.0440   75.0250   37.1420 C.2   1445  AKG1445     0.2526
      5  O5        18.6870   76.0010   37.4750 O.2   1445  AKG1445    -0.2843
      6  C3        18.1730   74.4630   35.7490 C.3   1445  AKG1445     0.0881
      7  C4        19.6470   74.3040   35.3930 C.3   1445  AKG1445     0.1224
      8  C5        19.8280   73.1230   34.4730 C.2   1445  AKG1445     0.3653
      9  O3        18.9040   72.8160   33.6950 O.co2 1445  AKG1445    -0.2456
     10  O4        20.9020   72.4920   34.5250 O.co2 1445  AKG1445    -0.2456
@<TRIPOS>BOND
     1     9     8   ar
     2     8    10   ar
     3     8     7    1
     4     7     6    1
     5     6     4    1
     6     4     5    2
     7     4     1    1
     8     1     2   ar
     9     1     3   ar
