@<TRIPOS>MOLECULE
2yky_SFE_A_1.pdb
 12 12 0 0 0
SMALL
GASTEIGER

@<TRIPOS>ATOM
      1  N         18.3380   76.5490   37.0080 N.3   1546  SFE1546    -0.1275
      2  CA        19.3330   74.7520   35.3880 C.3   1546  SFE1546     0.1375
      3  CD2       19.3300   73.8970   38.2750 C.ar  1546  SFE1546    -0.0029
      4  O         17.6930   73.5350   34.1280 O.co2 1546  SFE1546    -0.2456
      5  OXT       19.7820   72.7630   34.0950 O.co2 1546  SFE1546    -0.2456
      6  CG        18.1650   74.2060   37.5700 C.ar  1546  SFE1546    -0.0044
      7  CD1       16.9400   73.6630   37.9560 C.ar  1546  SFE1546    -0.0029
      8  CE1       16.8950   72.7770   39.0370 C.ar  1546  SFE1546    -0.0003
      9  CZ        18.0660   72.4610   39.7340 C.ar  1546  SFE1546    -0.0000
     10  CE2       19.2860   73.0220   39.3600 C.ar  1546  SFE1546    -0.0003
     11  CB        18.2140   75.1840   36.3960 C.3   1546  SFE1546     0.1252
     12  C         18.8980   73.5810   34.4670 C.2   1546  SFE1546     0.3667
@<TRIPOS>BOND
     1     5    12   ar
     2     4    12   ar
     3    12     2    1
     4     2    11    1
     5    11     1    1
     6    11     6    1
     7     6     7   ar
     8     6     3   ar
     9     7     8   ar
    10     3    10   ar
    11     8     9   ar
    12    10     9   ar
