@<TRIPOS>MOLECULE
2yky_PLP_A_1.pdb
 15 15 0 0 0
SMALL
GASTEIGER

@<TRIPOS>ATOM
      1  C3        18.5740   79.3120   38.1520 C.2   1446  PLP1446     0.1899
      2  C2        18.8680   80.5240   38.7960 C.2   1446  PLP1446     0.0942
      3  N1        20.0040   81.1880   38.5310 N.2   1446  PLP1446    -0.2458
      4  C6        20.8800   80.7350   37.6440 C.2   1446  PLP1446     0.0929
      5  C4        19.4900   78.7910   37.2130 C.3   1446  PLP1446     0.0852
      6  C4A       19.3040   77.4750   36.4160 C.3   1446  PLP1446     0.0127
      7  C5        20.6560   79.5360   36.9750 C.2   1446  PLP1446     0.0118
      8  C5A       21.7390   79.1170   35.9740 C.3   1446  PLP1446     0.1779
      9  O4P       21.2340   79.2990   34.6260 O.3   1446  PLP1446    -0.2656
     10  P         21.8220   78.3120   33.4740 P.3   1446  PLP1446     0.5329
     11  O1P       23.3080   78.4080   33.4420 O.3   1446  PLP1446    -0.1145
     12  O2P       21.2920   76.8640   33.8080 O.3   1446  PLP1446    -0.1145
     13  O3P       21.1480   78.8130   32.1350 O.2   1446  PLP1446    -0.2224
     14  O3        17.5200   78.7110   38.4380 O.2   1446  PLP1446    -0.2898
     15  C2A       17.9050   81.1440   39.8160 C.3   1446  PLP1446     0.0552
@<TRIPOS>BOND
     1    13    10    2
     2    11    10    1
     3    10    12    1
     4    10     9    1
     5     9     8    1
     6     8     7    1
     7     6     5    1
     8     7     5    1
     9     7     4    2
    10     5     1    1
    11     4     3    1
    12     1    14    2
    13     1     2    1
    14     3     2    2
    15     2    15    1
