@<TRIPOS>MOLECULE
2yl8_NAG_A_1.pdb
 14 14 0 0 0
SMALL
GASTEIGER

@<TRIPOS>ATOM
      1  C1        17.0950   27.9060   25.1870 C.3   1626  NAG1626     0.1665
      2  C2        15.7550   27.8820   24.4070 C.3   1626  NAG1626     0.1576
      3  C3        14.8440   29.1060   24.6540 C.3   1626  NAG1626     0.2069
      4  C4        15.1160   29.6680   26.0400 C.3   1626  NAG1626     0.2134
      5  C5        16.5600   30.1870   25.9900 C.3   1626  NAG1626     0.1809
      6  C6        17.0370   30.8620   27.2900 C.3   1626  NAG1626     0.2141
      7  C7        16.6200   28.5300   22.1810 C.2   1626  NAG1626     0.2420
      8  C8        16.5840   28.2540   20.7000 C.3   1626  NAG1626     0.0964
      9  N2        15.8830   27.7260   22.9660 N.am  1626  NAG1626    -0.2019
     10  O3        13.4930   28.7100   24.5320 O.3   1626  NAG1626    -0.2184
     11  O4        14.2310   30.7350   26.3490 O.3   1626  NAG1626    -0.2176
     12  O5        17.5120   29.1890   25.6180 O.3   1626  NAG1626    -0.3489
     13  O6        16.9490   30.0290   28.4500 O.3   1626  NAG1626    -0.2176
     14  O7        17.3030   29.4590   22.6190 O.2   1626  NAG1626    -0.2733
@<TRIPOS>BOND
     1     8     7    1
     2     7    14    2
     3     7     9   am
     4     9     2    1
     5     2     3    1
     6     2     1    1
     7    10     3    1
     8     3     4    1
     9     1    12    1
    10    12     5    1
    11     5     4    1
    12     5     6    1
    13     4    11    1
    14     6    13    1
