@<TRIPOS>MOLECULE
2yl8_MAN_A_1.pdb
 12 12 0 0 0
SMALL
GASTEIGER

@<TRIPOS>ATOM
      1  C1        19.1230   26.3880   26.9760 C.3   1627  MAN1627     0.3024
      2  C2        17.7650   26.9960   27.3710 C.3   1627  MAN1627     0.2434
      3  C3        17.1240   26.2000   28.5300 C.3   1627  MAN1627     0.2199
      4  C4        17.1770   24.6980   28.3120 C.3   1627  MAN1627     0.2144
      5  C5        18.6210   24.2880   27.9940 C.3   1627  MAN1627     0.1836
      6  C6        18.8120   22.7840   27.7910 C.3   1627  MAN1627     0.2142
      7  O1        20.0960   26.5930   27.9820 O.3   1627  MAN1627    -0.1869
      8  O2        16.8350   27.0300   26.2930 O.3   1627  MAN1627    -0.2148
      9  O3        15.7580   26.5170   28.7250 O.3   1627  MAN1627    -0.2174
     10  O4        16.6690   24.0870   29.4780 O.3   1627  MAN1627    -0.2176
     11  O5        19.0050   24.9870   26.8040 O.3   1627  MAN1627    -0.3236
     12  O6        18.1350   22.3860   26.6220 O.3   1627  MAN1627    -0.2176
@<TRIPOS>BOND
     1     8     2    1
     2    12     6    1
     3    11     1    1
     4    11     5    1
     5     1     2    1
     6     1     7    1
     7     2     3    1
     8     6     5    1
     9     5     4    1
    10     4     3    1
    11     4    10    1
    12     3     9    1
