@<TRIPOS>MOLECULE
2yl9_MAN_A_1.pdb
 11 11 0 0 0
SMALL
GASTEIGER

@<TRIPOS>ATOM
      1  C1       -48.2090  -36.2670   -9.4430 C.3   2042  MAN2042     0.1777
      2  C2       -47.0730  -36.6040  -10.4110 C.3   2042  MAN2042     0.2141
      3  C3       -47.4160  -37.8480  -11.2450 C.3   2042  MAN2042     0.2173
      4  C4       -48.0150  -38.9910  -10.4180 C.3   2042  MAN2042     0.2142
      5  C5       -49.0670  -38.4960   -9.4250 C.3   2042  MAN2042     0.1810
      6  C6       -49.4930  -39.5990   -8.4610 C.3   2042  MAN2042     0.2141
      7  O2       -45.8690  -36.8090   -9.6870 O.3   2042  MAN2042    -0.2176
      8  O3       -46.2630  -38.3210  -11.9070 O.3   2042  MAN2042    -0.2175
      9  O4       -48.6010  -39.9370  -11.2860 O.3   2042  MAN2042    -0.2176
     10  O5       -48.5600  -37.4070   -8.6740 O.3   2042  MAN2042    -0.3481
     11  O6       -50.6890  -39.2150   -7.8190 O.3   2042  MAN2042    -0.2176
@<TRIPOS>BOND
     1     8     3    1
     2     9     4    1
     3     3     4    1
     4     3     2    1
     5     4     5    1
     6     2     7    1
     7     2     1    1
     8     1    10    1
     9     5    10    1
    10     5     6    1
    11     6    11    1
