@<TRIPOS>MOLECULE
2yl9_BMA_A_1.pdb
 11 11 0 0 0
SMALL
GASTEIGER

@<TRIPOS>ATOM
      1  C1       -52.3890  -34.3150   -8.3920 C.3   2041  BMA2041     0.1777
      2  C2       -51.4710  -35.3570   -9.0510 C.3   2041  BMA2041     0.2141
      3  C3       -50.0370  -34.8340   -9.2580 C.3   2041  BMA2041     0.2173
      4  C4       -49.9960  -33.3900   -9.7670 C.3   2041  BMA2041     0.2142
      5  C5       -50.9150  -32.5120   -8.9170 C.3   2041  BMA2041     0.1810
      6  C6       -50.9370  -31.0640   -9.3930 C.3   2041  BMA2041     0.2141
      7  O2       -52.0180  -35.7940  -10.2790 O.3   2041  BMA2041    -0.2176
      8  O3       -49.3230  -35.6720  -10.1460 O.3   2041  BMA2041    -0.2175
      9  O4       -48.6670  -32.9110   -9.7320 O.3   2041  BMA2041    -0.2176
     10  O5       -52.2290  -33.0330   -8.9780 O.3   2041  BMA2041    -0.3481
     11  O6       -51.4290  -30.2430   -8.3570 O.3   2041  BMA2041    -0.2176
@<TRIPOS>BOND
     1     7     2    1
     2     8     3    1
     3     4     9    1
     4     4     3    1
     5     4     5    1
     6     6     5    1
     7     6    11    1
     8     3     2    1
     9     2     1    1
    10    10     5    1
    11    10     1    1
