@<TRIPOS>MOLECULE
2yl9_NAG_A_1.pdb
 14 14 0 0 0
SMALL
GASTEIGER

@<TRIPOS>ATOM
      1  C1       -44.8800  -35.7460   -9.7920 C.3   2043  NAG2043     0.1665
      2  C2       -43.4850  -36.4190   -9.7380 C.3   2043  NAG2043     0.1576
      3  C3       -42.7280  -36.4510  -11.0670 C.3   2043  NAG2043     0.2069
      4  C4       -43.6810  -36.2340  -12.2200 C.3   2043  NAG2043     0.2134
      5  C5       -44.2780  -34.8480  -12.0160 C.3   2043  NAG2043     0.1809
      6  C6       -45.0460  -34.3690  -13.2460 C.3   2043  NAG2043     0.2141
      7  C7       -41.9300  -34.7930   -8.6070 C.2   2043  NAG2043     0.2420
      8  C8       -41.0430  -34.6260   -7.4090 C.3   2043  NAG2043     0.0964
      9  N2       -42.5970  -35.9500   -8.6730 N.am  2043  NAG2043    -0.2019
     10  O3       -42.0420  -37.6700  -11.2150 O.3   2043  NAG2043    -0.2184
     11  O4       -42.9830  -36.3380  -13.4360 O.3   2043  NAG2043    -0.2176
     12  O5       -45.1120  -34.8220  -10.8610 O.3   2043  NAG2043    -0.3489
     13  O6       -46.4230  -34.6520  -13.1270 O.3   2043  NAG2043    -0.2176
     14  O7       -42.0130  -33.8890   -9.4340 O.2   2043  NAG2043    -0.2733
@<TRIPOS>BOND
     1    11     4    1
     2     6    13    1
     3     6     5    1
     4     4     5    1
     5     4     3    1
     6     5    12    1
     7    10     3    1
     8     3     2    1
     9    12     1    1
    10     1     2    1
    11     2     9    1
    12    14     7    2
    13     9     7   am
    14     7     8    1
