@<TRIPOS>MOLECULE
2yla_NAG_A_1.pdb
 14 14 0 0 0
SMALL
GASTEIGER

@<TRIPOS>ATOM
      1  C1       -49.5320  -31.1060   -9.8140 C.3   2044  NAG2044     0.1665
      2  C2       -48.8940  -29.9160   -9.0890 C.3   2044  NAG2044     0.1576
      3  C3       -48.7910  -28.7490  -10.0800 C.3   2044  NAG2044     0.2069
      4  C4       -48.1220  -29.1830  -11.3900 C.3   2044  NAG2044     0.2134
      5  C5       -48.6380  -30.5310  -11.9120 C.3   2044  NAG2044     0.1809
      6  C6       -47.7570  -31.0620  -13.0380 C.3   2044  NAG2044     0.2141
      7  C7       -50.5410  -28.8000   -7.4360 C.2   2044  NAG2044     0.2420
      8  C8       -51.2460  -27.9140   -8.4310 C.3   2044  NAG2044     0.0964
      9  N2       -49.5410  -29.6280   -7.7990 N.am  2044  NAG2044    -0.2019
     10  O3       -48.0820  -27.6740   -9.5030 O.3   2044  NAG2044    -0.2184
     11  O4       -48.3420  -28.1840  -12.3620 O.3   2044  NAG2044    -0.2176
     12  O5       -48.6830  -31.4960  -10.8750 O.3   2044  NAG2044    -0.3489
     13  O6       -48.0100  -32.4370  -13.2300 O.3   2044  NAG2044    -0.2176
     14  O7       -50.9070  -28.7460   -6.2610 O.2   2044  NAG2044    -0.2733
@<TRIPOS>BOND
     1    13     6    1
     2     6     5    1
     3    11     4    1
     4     5     4    1
     5     5    12    1
     6     4     3    1
     7    12     1    1
     8     3    10    1
     9     3     2    1
    10     1     2    1
    11     2     9    1
    12     8     7    1
    13     9     7   am
    14     7    14    2
