@<TRIPOS>MOLECULE
2yla_MAN_A_1.pdb
 11 11 0 0 0
SMALL
GASTEIGER

@<TRIPOS>ATOM
      1  C1       -48.5150  -35.4560   -9.4260 C.3   2045  MAN2045     0.1777
      2  C2       -47.3750  -35.7890  -10.3980 C.3   2045  MAN2045     0.2141
      3  C3       -47.7790  -36.9870  -11.2650 C.3   2045  MAN2045     0.2173
      4  C4       -48.2200  -38.1780  -10.4140 C.3   2045  MAN2045     0.2142
      5  C5       -49.2590  -37.7530   -9.3740 C.3   2045  MAN2045     0.1810
      6  C6       -49.5640  -38.8730   -8.3830 C.3   2045  MAN2045     0.2141
      7  O2       -46.2050  -36.1300   -9.6660 O.3   2045  MAN2045    -0.2176
      8  O3       -46.7070  -37.3880  -12.0860 O.3   2045  MAN2045    -0.2175
      9  O4       -48.7500  -39.1810  -11.2520 O.3   2045  MAN2045    -0.2176
     10  O5       -48.8200  -36.6100   -8.6510 O.3   2045  MAN2045    -0.3481
     11  O6       -50.9370  -39.1910   -8.4440 O.3   2045  MAN2045    -0.2176
@<TRIPOS>BOND
     1     8     3    1
     2     3     4    1
     3     3     2    1
     4     9     4    1
     5     4     5    1
     6     2     7    1
     7     2     1    1
     8     1    10    1
     9     5    10    1
    10     5     6    1
    11    11     6    1
