@<TRIPOS>MOLECULE
2ylc_U_A_1.pdb
 30 31 0 0 0
SMALL
GASTEIGER

@<TRIPOS>ATOM
      1  P         -3.0180   -3.4630  -11.9720 P.3   1073  U1073       0.3935
      2  OP1       -2.8910   -2.8630  -13.2730 O.3   1073  U1073      -0.1425
      3  OP2       -2.4130   -2.8100  -10.8090 O.3   1073  U1073      -0.1425
      4  O5'       -2.5600   -4.9820  -12.0710 O.3   1073  U1073      -0.3060
      5  C5'       -2.2800   -5.7070  -10.9210 C.3   1073  U1073       0.0854
      6  C4'       -1.2920   -6.8030  -11.1900 C.3   1073  U1073       0.1166
      7  O4'       -1.8630   -7.8100  -12.0570 O.3   1073  U1073      -0.3455
      8  C3'       -0.0100   -6.4560  -11.9200 C.3   1073  U1073       0.1519
      9  O3'        0.9140   -5.6510  -11.1600 O.3   1073  U1073      -0.2255
     10  C2'        0.5050   -7.8540  -12.2480 C.3   1073  U1073       0.1319
     11  O2'        1.1000   -8.4400  -11.0920 O.3   1073  U1073      -0.3845
     12  C1'       -0.8240   -8.5940  -12.5740 C.3   1073  U1073       0.1681
     13  N1        -1.0180   -8.7680  -14.0360 N.ar  1073  U1073      -0.2715
     14  C2        -0.8060  -10.0330  -14.5610 C.ar  1073  U1073       0.3314
     15  O2        -0.6040  -10.9720  -13.8330 O.2   1073  U1073      -0.2464
     16  N3        -0.9070  -10.1390  -15.9140 N.ar  1073  U1073      -0.2749
     17  C4        -1.1410   -9.1380  -16.8080 C.ar  1073  U1073       0.2539
     18  O4        -1.1530   -9.4080  -18.0110 O.2   1073  U1073      -0.2677
     19  C5        -1.3070   -7.8530  -16.2030 C.ar  1073  U1073       0.0192
     20  C6        -1.2370   -7.7080  -14.8800 C.ar  1073  U1073       0.0171
     21  H5'       -3.1100   -6.1010  -10.5800 H     1073  U1073       0.0591
     22 H5''       -1.9110   -5.1020  -10.2430 H     1073  U1073       0.0591
     23  H4'       -1.0580   -7.2240  -10.3360 H     1073  U1073       0.0648
     24  H3'       -0.2310   -5.9910  -12.7540 H     1073  U1073       0.0683
     25  H2'        1.1150   -7.8480  -13.0140 H     1073  U1073       0.0667
     26 HO2'        0.5300   -9.1720  -10.7760 H     1073  U1073       0.2101
     27  H1'       -0.8270   -9.4710  -12.1360 H     1073  U1073       0.0867
     28  H3        -0.7800  -11.0360  -16.2890 H     1073  U1073       0.1734
     29  H5        -1.4760   -7.0700  -16.7670 H     1073  U1073       0.0686
     30  H6        -1.3360   -6.8110  -14.4980 H     1073  U1073       0.0813
@<TRIPOS>BOND
     1    18    17    2
     2    17    19   ar
     3    17    16   ar
     4    29    19    1
     5    28    16    1
     6    19    20   ar
     7    16    14   ar
     8    20    30    1
     9    20    13   ar
    10    14    13   ar
    11    14    15    2
    12    13    12    1
    13     2     1    1
    14    25    10    1
    15    24     8    1
    16    12    10    1
    17    12    27    1
    18    12     7    1
    19    10     8    1
    20    10    11    1
    21     4     1    1
    22     4     5    1
    23     7     6    1
    24     1     3    1
    25     8     6    1
    26     8     9    1
    27     6     5    1
    28     6    23    1
    29    11    26    1
    30     5    21    1
    31     5    22    1
