@<TRIPOS>MOLECULE
2yld_ASC_A_1.pdb
 20 20 0 0 0
SMALL
GASTEIGER

@<TRIPOS>ATOM
      1  O1        14.3780   31.1100   46.2930 O.2   130  ASC130     -0.2414
      2  C1        14.7050   31.4510   45.1310 C.2   130  ASC130      0.3783
      3  C2        14.1560   32.5090   44.3280 C.2   130  ASC130      0.2437
      4  O2        13.1920   33.2880   44.8530 O.2   130  ASC130     -0.4988
      5  HO2       12.9930   34.0120   44.2430 H     130  ASC130      0.2925
      6  C3        14.7720   32.4790   43.1140 C.2   130  ASC130      0.1863
      7  O3        14.6310   33.2540   42.0050 O.2   130  ASC130     -0.5042
      8  HO3       15.0600   32.8310   41.2500 H     130  ASC130      0.2920
      9  C4        15.7640   31.3360   43.1010 C.3   130  ASC130      0.1912
     10  H4        15.4570   30.5730   42.3720 H     130  ASC130      0.0845
     11  O4        15.7630   30.8080   44.4240 O.3   130  ASC130     -0.4450
     12  C5        17.1540   31.8460   42.7610 C.3   130  ASC130      0.1222
     13  H5        17.1260   32.2750   41.7500 H     130  ASC130      0.0658
     14  O5        17.5080   32.8860   43.6970 O.3   130  ASC130     -0.3854
     15  HO5       18.3990   33.2060   43.5020 H     130  ASC130      0.2101
     16  C6        18.2000   30.7300   42.7490 C.3   130  ASC130      0.0741
     17  H61       17.8780   29.9290   42.0840 H     130  ASC130      0.0584
     18  H62       18.3230   30.3190   43.7530 H     130  ASC130      0.0584
     19  O6        19.4400   31.2930   42.2940 O.3   130  ASC130     -0.3923
     20  HO6       20.1680   30.7030   42.5320 H     130  ASC130      0.2095
@<TRIPOS>BOND
     1     8     7    1
     2    13    12    1
     3     7     6    1
     4    17    16    1
     5    19    20    1
     6    19    16    1
     7    10     9    1
     8    16    12    1
     9    16    18    1
    10    12     9    1
    11    12    14    1
    12     9     6    1
    13     9    11    1
    14     6     3    2
    15    15    14    1
    16     5     4    1
    17     3     4    1
    18     3     2    1
    19    11     2    1
    20     2     1    2
