@<TRIPOS>MOLECULE
2ylg_ASC_A_1.pdb
 20 20 0 0 0
SMALL
GASTEIGER

@<TRIPOS>ATOM
      1  O1        19.8370  -27.8300   16.2880 O.2   130  ASC130     -0.2414
      2  C1        20.0470  -28.2120   15.1470 C.2   130  ASC130      0.3783
      3  C2        21.2530  -28.2090   14.3640 C.2   130  ASC130      0.2437
      4  O2        22.3780  -27.7030   14.8750 O.2   130  ASC130     -0.4988
      5  HO2       23.1200  -27.9020   14.2870 H     130  ASC130      0.2925
      6  C3        20.9530  -28.7060   13.1430 C.2   130  ASC130      0.1863
      7  O3        21.6900  -28.8880   12.0600 O.2   130  ASC130     -0.5042
      8  HO3       21.1220  -29.0620   11.2980 H     130  ASC130      0.2920
      9  C4        19.4890  -29.0630   13.0980 C.3   130  ASC130      0.1912
     10  H4        18.9850  -28.4500   12.3380 H     130  ASC130      0.0845
     11  O4        18.9760  -28.7520   14.4020 O.3   130  ASC130     -0.4450
     12  C5        19.2610  -30.5300   12.7820 C.3   130  ASC130      0.1222
     13  H5        19.6070  -30.7190   11.7560 H     130  ASC130      0.0658
     14  O5        19.9830  -31.3640   13.6770 O.3   130  ASC130     -0.3854
     15  HO5       19.9130  -32.2840   13.3890 H     130  ASC130      0.2101
     16  C6        17.7840  -30.9140   12.8530 C.3   130  ASC130      0.0741
     17  H61       17.2000  -30.2220   12.2460 H     130  ASC130      0.0584
     18  H62       17.4340  -30.8330   13.8840 H     130  ASC130      0.0584
     19  O6        17.5850  -32.2530   12.3930 O.3   130  ASC130     -0.3923
     20  HO6       16.6520  -32.4910   12.4870 H     130  ASC130      0.2095
@<TRIPOS>BOND
     1     8     7    1
     2    13    12    1
     3     7     6    1
     4    17    16    1
     5    10     9    1
     6    19    20    1
     7    19    16    1
     8    12    16    1
     9    12     9    1
    10    12    14    1
    11    16    18    1
    12     9     6    1
    13     9    11    1
    14     6     3    2
    15    15    14    1
    16     5     4    1
    17     3     4    1
    18     3     2    1
    19    11     2    1
    20     2     1    2
