@<TRIPOS>MOLECULE
2yli_HEC_A_1.pdb
 43 50 0 0 0
SMALL
GASTEIGER

@<TRIPOS>ATOM
      1 FE          6.7960   38.8960   21.7280 Fe    128  HEC128      0.0000
      2  CHA        8.4440   35.8870   21.5870 C.2   128  HEC128      0.0000
      3  CHB        6.9180   39.1010   18.3320 C.2   128  HEC128      0.0000
      4  CHC        4.6170   41.5900   21.8220 C.2   128  HEC128      0.0000
      5  CHD        6.4850   38.5540   25.0810 C.2   128  HEC128      0.0000
      6  NA         7.5450   37.7400   20.2650 N.ar  128  HEC128      0.0000
      7  C1A        8.1660   36.5230   20.4000 C.ar  128  HEC128      0.0000
      8  C2A        8.5230   35.9830   19.0960 C.ar  128  HEC128      0.0000
      9  C3A        8.1010   36.8730   18.1890 C.ar  128  HEC128      0.0000
     10  C4A        7.4890   37.9790   18.8910 C.ar  128  HEC128      0.0000
     11  CMA        8.2170   36.8040   16.6380 C.3   128  HEC128      0.0000
     12  CAA        9.2300   34.6670   18.8390 C.3   128  HEC128      0.0000
     13  CBA        8.2320   33.5400   18.7340 C.3   128  HEC128      0.0000
     14  CGA        8.8630   32.2340   18.3210 C.2   128  HEC128      0.0000
     15  O1A        9.4830   31.5470   19.1610 O.co2 128  HEC128      0.0000
     16  O2A        8.7320   31.8620   17.1120 O.co2 128  HEC128      0.0000
     17  NB         5.9390   40.1460   20.3230 N.2   128  HEC128      0.0000
     18  C1B        6.1730   40.0850   18.9590 C.2   128  HEC128      0.0000
     19  C2B        5.5180   41.2240   18.3270 C.2   128  HEC128      0.0000
     20  C3B        4.8930   41.9220   19.3140 C.2   128  HEC128      0.0000
     21  C4B        5.1070   41.2030   20.5630 C.2   128  HEC128      0.0000
     22  CMB        5.6280   41.5870   16.8230 C.3   128  HEC128      0.0000
     23  CAB        4.0350   43.1950   19.2460 C.3   128  HEC128      0.0000
     24  CBB        3.1000   43.2740   18.0230 C.3   128  HEC128      0.0000
     25  NC         5.7400   39.8870   23.1820 N.ar  128  HEC128      0.0000
     26  C1C        4.9070   40.9510   23.0110 C.ar  128  HEC128      0.0000
     27  C2C        4.3870   41.3890   24.2880 C.ar  128  HEC128      0.0000
     28  C3C        4.9090   40.5520   25.2010 C.ar  128  HEC128      0.0000
     29  C4C        5.7660   39.5830   24.5280 C.ar  128  HEC128      0.0000
     30  CMC        3.4860   42.6000   24.4680 C.3   128  HEC128      0.0000
     31  CAC        4.7030   40.5500   26.7080 C.3   128  HEC128      0.0000
     32  CBC        3.4930   41.2810   27.3090 C.3   128  HEC128      0.0000
     33  ND         7.4070   37.5090   23.0880 N.2   128  HEC128      0.0000
     34  C1D        7.1690   37.5770   24.4720 C.2   128  HEC128      0.0000
     35  C2D        7.7380   36.4640   25.1310 C.2   128  HEC128      0.0000
     36  C3D        8.3540   35.6290   24.0780 C.2   128  HEC128      0.0000
     37  C4D        8.0740   36.3260   22.8340 C.2   128  HEC128      0.0000
     38  CMD        7.7530   36.2150   26.6700 C.3   128  HEC128      0.0000
     39  CAD        9.0520   34.3020   24.2810 C.3   128  HEC128      0.0000
     40  CBD        8.0240   33.1700   24.1250 C.3   128  HEC128      0.0000
     41  CGD        8.6210   31.8110   24.3830 C.2   128  HEC128      0.0000
     42  O1D        8.0840   31.0340   25.2510 O.co2 128  HEC128      0.0000
     43  O2D        9.6650   31.5090   23.7510 O.co2 128  HEC128      0.0000
@<TRIPOS>BOND
     1    11     9    1
     2    22    19    1
     3    16    14   ar
     4    24    23    1
     5     9    10   ar
     6     9     8   ar
     7    14    13    1
     8    14    15   ar
     9    19    18    1
    10    19    20    2
    11     3    10    2
    12     3    18    1
    13    13    12    1
    14    12     8    1
    15    10     6   ar
    16    18    17    2
    17     8     7   ar
    18    23    20    1
    19    20    21    1
    20     6     7   ar
    21     6     1    1
    22    17    21    1
    23    17     1    1
    24     7     2    2
    25    21     4    2
    26     2    37    1
    27     1    33    1
    28     1    25    1
    29     4    26    1
    30    37    33    2
    31    37    36    1
    32    26    25   ar
    33    26    27   ar
    34    33    34    1
    35    25    29   ar
    36    43    41   ar
    37    36    39    1
    38    36    35    2
    39    40    39    1
    40    40    41    1
    41    27    30    1
    42    27    28   ar
    43    41    42   ar
    44    34     5    2
    45    34    35    1
    46    29     5    1
    47    29    28   ar
    48    35    38    1
    49    28    31    1
    50    31    32    1
