@<TRIPOS>MOLECULE
2ylj_HEM_A_1.pdb
 43 50 0 0 0
SMALL
GASTEIGER

@<TRIPOS>ATOM
      1 FE         -3.1620    1.7150  -11.6480 Fe    350  HEM350      0.0000
      2  CHA        0.1060    3.1020  -11.7940 C.2   350  HEM350      0.0000
      3  CHB       -2.3600    0.4150   -8.5810 C.2   350  HEM350      0.0000
      4  CHC       -6.4300    0.7780  -11.2340 C.2   350  HEM350      0.0000
      5  CHD       -4.0650    3.6310  -14.3540 C.2   350  HEM350      0.0000
      6  C1A       -0.1920    2.3400  -10.6900 C.2   350  HEM350      0.0000
      7  C2A        0.7100    1.9330   -9.6310 C.2   350  HEM350      0.0000
      8  C3A        0.0180    1.2000   -8.7590 C.2   350  HEM350      0.0000
      9  C4A       -1.3480    1.1020   -9.2210 C.2   350  HEM350      0.0000
     10  CMA        0.5830    0.5570   -7.4730 C.3   350  HEM350      0.0000
     11  CAA        2.2090    2.2810   -9.4970 C.3   350  HEM350      0.0000
     12  CBA        2.3040    3.6920   -8.9220 C.3   350  HEM350      0.0000
     13  CGA        3.6910    3.9570   -8.3920 C.2   350  HEM350      0.0000
     14  O1A        3.8700    4.8760   -7.5510 O.co2 350  HEM350      0.0000
     15  O2A        4.6310    3.2320   -8.7930 O.co2 350  HEM350      0.0000
     16  C1B       -3.6560    0.2410   -9.0140 C.ar  350  HEM350      0.0000
     17  C2B       -4.6660   -0.5810   -8.3830 C.ar  350  HEM350      0.0000
     18  C3B       -5.7860   -0.4740   -9.1130 C.ar  350  HEM350      0.0000
     19  C4B       -5.5370    0.4020  -10.2400 C.ar  350  HEM350      0.0000
     20  CMB       -4.4720   -1.4100   -7.0930 C.3   350  HEM350      0.0000
     21  CAB       -7.1300   -1.1580   -8.8260 C.2   350  HEM350      0.0000
     22  CBB       -8.1950   -0.7590   -9.5230 C.2   350  HEM350      0.0000
     23  C1C       -6.1930    1.6990  -12.2460 C.2   350  HEM350      0.0000
     24  C2C       -7.1660    2.4190  -13.0590 C.2   350  HEM350      0.0000
     25  C3C       -6.5010    3.2260  -13.9070 C.2   350  HEM350      0.0000
     26  C4C       -5.0890    3.0150  -13.6780 C.2   350  HEM350      0.0000
     27  CMC       -8.6960    2.2780  -12.9210 C.3   350  HEM350      0.0000
     28  CAC       -7.0440    4.1780  -15.0040 C.2   350  HEM350      0.0000
     29  CBC       -7.9970    3.7690  -15.8520 C.2   350  HEM350      0.0000
     30  C1D       -2.7340    3.6610  -14.0050 C.ar  350  HEM350      0.0000
     31  C2D       -1.7060    4.2120  -14.8460 C.ar  350  HEM350      0.0000
     32  C3D       -0.4040    4.0450  -14.0600 C.ar  350  HEM350      0.0000
     33  C4D       -0.7740    3.4260  -12.8100 C.ar  350  HEM350      0.0000
     34  CMD       -1.9010    4.8170  -16.2560 C.3   350  HEM350      0.0000
     35  CAD        1.0060    4.4830  -14.4810 C.3   350  HEM350      0.0000
     36  CBD        1.0500    5.9500  -14.0810 C.3   350  HEM350      0.0000
     37  CGD        2.3700    6.5950  -14.3890 C.2   350  HEM350      0.0000
     38  O1D        2.5010    7.8100  -14.0880 O.co2 350  HEM350      0.0000
     39  O2D        3.2800    5.9090  -14.9270 O.co2 350  HEM350      0.0000
     40  NA        -1.4370    1.8120  -10.4000 N.2   350  HEM350      0.0000
     41  NB        -4.2250    0.8150  -10.1340 N.ar  350  HEM350      0.0000
     42  NC        -4.9450    2.1030  -12.6590 N.2   350  HEM350      0.0000
     43  ND        -2.1550    3.2140  -12.8190 N.ar  350  HEM350      0.0000
@<TRIPOS>BOND
     1    34    31    1
     2    29    28    2
     3    28    25    1
     4    39    37   ar
     5    31    32   ar
     6    31    30   ar
     7    35    36    1
     8    35    32    1
     9    37    38   ar
    10    37    36    1
    11     5    30    2
    12     5    26    1
    13    32    33   ar
    14    30    43   ar
    15    25    26    1
    16    25    24    2
    17    26    42    2
    18    24    27    1
    19    24    23    1
    20    43    33   ar
    21    43     1    1
    22    33     2    2
    23    42    23    1
    24    42     1    1
    25    23     4    2
    26     2     6    1
    27     1    40    1
    28     1    41    1
    29     4    19    1
    30     6    40    2
    31     6     7    1
    32    40     9    1
    33    19    41   ar
    34    19    18   ar
    35    41    16   ar
    36     7    11    1
    37     7     8    2
    38    22    21    2
    39    11    12    1
    40     9     8    1
    41     9     3    2
    42    18    21    1
    43    18    17   ar
    44    16     3    1
    45    16    17   ar
    46    12    13    1
    47    15    13   ar
    48     8    10    1
    49    13    14   ar
    50    17    20    1
