@<TRIPOS>MOLECULE
2ylo_YLO_A_1.pdb
 29 32 0 0 0
SMALL
GASTEIGER

@<TRIPOS>ATOM
      1  C01      -25.4820   19.6610  -27.7480 C.3   1922  YLO1922     0.0310
      2  C02      -24.4000   19.3000  -28.7640 C.ar  1922  YLO1922    -0.0217
      3  C03      -23.9660   20.2130  -29.7310 C.ar  1922  YLO1922    -0.0011
      4  C04      -22.9970   19.9350  -30.6880 C.ar  1922  YLO1922     0.0366
      5  C05      -22.4310   18.6860  -30.7340 C.ar  1922  YLO1922     0.1386
      6  C06      -22.8600   17.7590  -29.7610 C.ar  1922  YLO1922     0.0366
      7  C07      -23.8260   18.0440  -28.7870 C.ar  1922  YLO1922    -0.0011
      8  O08      -21.4640   18.3890  -31.7080 O.3   1922  YLO1922    -0.4736
      9  C09      -20.8830   17.1320  -31.7450 C.3   1922  YLO1922     0.2272
     10  C10      -19.5040   17.1470  -31.1800 C.3   1922  YLO1922     0.1457
     11  N11      -18.7550   16.0240  -30.5940 N.pl3 1922  YLO1922    -0.2519
     12  C12      -18.0020   16.1000  -29.4370 C.2   1922  YLO1922     0.0800
     13  C13      -17.7530   17.1060  -28.5190 C.2   1922  YLO1922     0.0169
     14  C14      -16.9520   16.9330  -27.4310 C.2   1922  YLO1922    -0.0028
     15  C15      -16.3650   15.7180  -27.2160 C.2   1922  YLO1922    -0.0186
     16  C16      -16.6010   14.7160  -28.1310 C.3   1922  YLO1922     0.0863
     17  C17      -17.4230   14.9030  -29.2500 C.2   1922  YLO1922     0.1291
     18  N18      -17.8030   14.0750  -30.2940 N.2   1922  YLO1922    -0.3833
     19  C19      -18.6060   14.7750  -31.0920 C.2   1922  YLO1922     0.2142
     20  S20      -19.2730   14.1180  -32.5060 S.3   1922  YLO1922    -0.0628
     21  C21      -20.4160   12.7880  -32.2870 C.3   1922  YLO1922     0.1132
     22  C22      -20.3470   11.8000  -33.4460 C.3   1922  YLO1922     0.2175
     23  O23      -21.4760   11.6320  -34.2440 O.3   1922  YLO1922    -0.4745
     24  C24      -21.7260   12.4660  -35.3130 C.ar  1922  YLO1922     0.1386
     25  C25      -20.8520   12.5700  -36.3660 C.ar  1922  YLO1922     0.0369
     26  C26      -21.1240   13.4000  -37.4420 C.ar  1922  YLO1922     0.0031
     27  C27      -22.2970   14.1240  -37.4630 C.ar  1922  YLO1922     0.0002
     28  C28      -23.1700   14.0250  -36.4160 C.ar  1922  YLO1922     0.0031
     29  C29      -22.8990   13.1920  -35.3540 C.ar  1922  YLO1922     0.0369
@<TRIPOS>BOND
     1    27    26   ar
     2    27    28   ar
     3    26    25   ar
     4    28    29   ar
     5    25    24   ar
     6    29    24   ar
     7    24    23    1
     8    23    22    1
     9    22    21    1
    10    20    21    1
    11    20    19    1
    12     9     8    1
    13     9    10    1
    14     8     5    1
    15    10    11    1
    16    19    11    1
    17    19    18    2
    18     5     4   ar
    19     5     6   ar
    20     4     3   ar
    21    11    12    1
    22    18    17    2
    23     6     7   ar
    24     3     2   ar
    25    12    17    1
    26    12    13    2
    27    17    16    1
    28     7     2   ar
    29     2     1    1
    30    13    14    1
    31    16    15    1
    32    14    15    2
