@<TRIPOS>MOLECULE
2ylo_TES_A_1.pdb
 21 24 0 0 0
SMALL
GASTEIGER

@<TRIPOS>ATOM
      1  C1       -27.0970    5.0420   -5.2580 C.3   1920  TES1920     0.0118
      2  C2       -26.2550    6.3360   -5.3460 C.3   1920  TES1920     0.0694
      3  C3       -24.7710    6.1170   -5.1090 C.2   1920  TES1920     0.1725
      4  O3       -24.0310    7.0470   -4.7680 O.2   1920  TES1920    -0.2914
      5  C4       -24.1720    4.7890   -5.2870 C.2   1920  TES1920     0.0289
      6  C5       -24.9090    3.6750   -5.4430 C.2   1920  TES1920    -0.0420
      7  C6       -24.1280    2.3680   -5.3790 C.3   1920  TES1920     0.0221
      8  C7       -24.9540    1.3860   -4.5740 C.3   1920  TES1920     0.0044
      9  C8       -26.3720    1.2460   -5.0900 C.3   1920  TES1920     0.0007
     10  C9       -27.1380    2.5670   -5.0170 C.3   1920  TES1920     0.0035
     11  C10      -26.4230    3.7210   -5.7210 C.3   1920  TES1920     0.0157
     12  C11      -28.6210    2.4540   -5.4920 C.3   1920  TES1920     0.0004
     13  C12      -29.3870    1.3120   -4.8030 C.3   1920  TES1920     0.0025
     14  C13      -28.5880    0.0220   -4.8950 C.3   1920  TES1920     0.0282
     15  C14      -27.1710    0.1920   -4.3180 C.3   1920  TES1920     0.0025
     16  C15      -26.6320   -1.2440   -4.1820 C.3   1920  TES1920     0.0027
     17  C16      -27.8920   -2.0590   -3.8340 C.3   1920  TES1920     0.0329
     18  C17      -29.1110   -1.1150   -4.0280 C.3   1920  TES1920     0.1519
     19  O17      -30.2310   -1.7660   -4.6480 O.3   1920  TES1920    -0.2232
     20  C18      -28.5070   -0.3560   -6.3810 C.3   1920  TES1920     0.0025
     21  C19      -26.6500    3.6140   -7.2220 C.3   1920  TES1920     0.0041
@<TRIPOS>BOND
     1    21    11    1
     2    20    14    1
     3    11     6    1
     4    11     1    1
     5    11    10    1
     6    12    10    1
     7    12    13    1
     8     6     7    1
     9     6     5    2
    10     7     8    1
    11     2     1    1
    12     2     3    1
    13     5     3    1
    14     3     4    2
    15     9    10    1
    16     9     8    1
    17     9    15    1
    18    14    13    1
    19    14    15    1
    20    14    18    1
    21    19    18    1
    22    15    16    1
    23    16    17    1
    24    18    17    1
