@<TRIPOS>MOLECULE
2ylp_056_A_1.pdb
 20 21 0 0 0
SMALL
GASTEIGER

@<TRIPOS>ATOM
      1  O17       15.2720  -17.5170  -27.2950 O.co2 1922  0561922    -0.2406
      2  C16       16.3300  -17.9240  -27.8080 C.2   1922  0561922     0.3877
      3  O18       16.6260  -19.1370  -27.9140 O.co2 1922  0561922    -0.2406
      4  C12       17.2520  -16.8630  -28.2850 C.ar  1922  0561922     0.0795
      5  C11       17.9540  -16.9460  -29.4880 C.ar  1922  0561922     0.0032
      6  C10       18.7890  -15.8990  -29.8430 C.ar  1922  0561922    -0.0111
      7  C15       18.8740  -14.8050  -29.0190 C.ar  1922  0561922    -0.0034
      8  C14       18.1700  -14.7350  -27.8340 C.ar  1922  0561922    -0.0001
      9  C13       17.3460  -15.7650  -27.4640 C.ar  1922  0561922     0.0066
     10  C6        19.9340  -12.2450  -35.7860 C.ar  1922  0561922     0.0225
     11  C1        19.9070  -13.0510  -34.6470 C.ar  1922  0561922     0.0554
     12 CL1        18.6430  -14.3410  -34.5580 Cl    1922  0561922    -0.0825
     13  C2        20.9110  -12.7870  -33.5580 C.ar  1922  0561922    -0.0007
     14  C7        21.0130  -13.5780  -32.2690 C.3   1922  0561922     0.0849
     15  C3        21.8350  -11.7650  -33.7380 C.ar  1922  0561922    -0.0017
     16  C4        21.8060  -11.0040  -34.8990 C.ar  1922  0561922     0.0112
     17  C5        20.8750  -11.2240  -35.9160 C.ar  1922  0561922     0.0585
     18 CL2        20.8870  -10.1860  -37.3970 Cl    1922  0561922    -0.0822
     19  S8        19.4740  -14.1710  -31.6550 S.3   1922  0561922    -0.1306
     20  C9        19.5990  -15.8520  -31.1140 C.3   1922  0561922     0.0841
@<TRIPOS>BOND
     1    18    17    1
     2    17    10   ar
     3    17    16   ar
     4    10    11   ar
     5    16    15   ar
     6    11    12    1
     7    11    13   ar
     8    15    13   ar
     9    13    14    1
    10    14    19    1
    11    19    20    1
    12    20     6    1
    13     6     5   ar
    14     6     7   ar
    15     5     4   ar
    16     7     8   ar
    17     4     2    1
    18     4     9   ar
    19     3     2   ar
    20     8     9   ar
    21     2     1   ar
