@<TRIPOS>MOLECULE
2ylp_TES_A_1.pdb
 21 24 0 0 0
SMALL
GASTEIGER

@<TRIPOS>ATOM
      1  C1        27.4680   -4.8510   -5.0660 C.3   1921  TES1921     0.0118
      2  C2        26.7620   -6.1640   -5.4030 C.3   1921  TES1921     0.0694
      3  C3        25.2980   -6.0490   -5.0260 C.2   1921  TES1921     0.1725
      4  O3        24.6650   -7.0650   -4.7640 O.2   1921  TES1921    -0.2914
      5  C4        24.6580   -4.7070   -5.0160 C.2   1921  TES1921     0.0289
      6  C5        25.3120   -3.5490   -5.2600 C.2   1921  TES1921    -0.0420
      7  C6        24.5090   -2.2270   -5.1990 C.3   1921  TES1921     0.0221
      8  C7        25.3490   -1.0810   -4.5950 C.3   1921  TES1921     0.0044
      9  C8        26.7790   -1.0430   -5.1230 C.3   1921  TES1921     0.0007
     10  C9        27.5280   -2.3900   -4.9430 C.3   1921  TES1921     0.0035
     11  C10       26.8030   -3.5710   -5.6010 C.3   1921  TES1921     0.0157
     12  C11       29.0220   -2.3790   -5.4060 C.3   1921  TES1921     0.0004
     13  C12       29.8200   -1.1640   -4.8690 C.3   1921  TES1921     0.0025
     14  C13       29.0460    0.1590   -5.0130 C.3   1921  TES1921     0.0282
     15  C14       27.6250    0.0380   -4.4580 C.3   1921  TES1921     0.0025
     16  C15       27.0960    1.4760   -4.4040 C.3   1921  TES1921     0.0027
     17  C16       28.3210    2.2460   -3.9030 C.3   1921  TES1921     0.0329
     18  C17       29.5250    1.3170   -4.1170 C.3   1921  TES1921     0.1519
     19  O17       30.6160    2.0780   -4.6340 O.3   1921  TES1921    -0.2232
     20  C18       28.9760    0.5150   -6.5180 C.3   1921  TES1921     0.0025
     21  C19       27.0200   -3.4730   -7.1190 C.3   1921  TES1921     0.0041
@<TRIPOS>BOND
     1    21    11    1
     2    20    14    1
     3    11     6    1
     4    11     1    1
     5    11    10    1
     6    12    10    1
     7    12    13    1
     8     2     1    1
     9     2     3    1
    10     6     7    1
    11     6     5    2
    12     7     8    1
    13     9    10    1
    14     9     8    1
    15     9    15    1
    16     3     5    1
    17     3     4    2
    18    14    13    1
    19    14    15    1
    20    14    18    1
    21    19    18    1
    22    15    16    1
    23    16    17    1
    24    18    17    1
