@<TRIPOS>MOLECULE
2ylq_TES_A_1.pdb
 21 24 0 0 0
SMALL
GASTEIGER

@<TRIPOS>ATOM
      1  C1        27.2830   -4.9270   -5.1400 C.3   1921  TES1921     0.0118
      2  C2        26.5080   -6.1800   -5.5460 C.3   1921  TES1921     0.0694
      3  C3        25.0940   -6.0430   -5.0250 C.2   1921  TES1921     0.1725
      4  O3        24.4720   -7.0300   -4.6190 O.2   1921  TES1921    -0.2914
      5  C4        24.4690   -4.7010   -5.0200 C.2   1921  TES1921     0.0289
      6  C5        25.1650   -3.5880   -5.3610 C.2   1921  TES1921    -0.0420
      7  C6        24.4310   -2.2590   -5.3760 C.3   1921  TES1921     0.0221
      8  C7        25.2330   -1.2500   -4.5870 C.3   1921  TES1921     0.0044
      9  C8        26.6050   -1.0840   -5.1730 C.3   1921  TES1921     0.0007
     10  C9        27.3440   -2.4330   -5.0560 C.3   1921  TES1921     0.0035
     11  C10       26.6340   -3.6330   -5.7030 C.3   1921  TES1921     0.0157
     12  C11       28.8230   -2.3600   -5.5070 C.3   1921  TES1921     0.0004
     13  C12       29.5940   -1.2020   -4.8280 C.3   1921  TES1921     0.0025
     14  C13       28.8470    0.1230   -4.9330 C.3   1921  TES1921     0.0282
     15  C14       27.4300   -0.0500   -4.3950 C.3   1921  TES1921     0.0025
     16  C15       26.9000    1.3670   -4.1370 C.3   1921  TES1921     0.0027
     17  C16       28.1580    2.2030   -3.8690 C.3   1921  TES1921     0.0329
     18  C17       29.3290    1.2320   -3.9900 C.3   1921  TES1921     0.1519
     19  O17       30.5190    1.9150   -4.3890 O.3   1921  TES1921    -0.2232
     20  C18       28.8080    0.5420   -6.4070 C.3   1921  TES1921     0.0025
     21  C19       26.7640   -3.6110   -7.2320 C.3   1921  TES1921     0.0041
@<TRIPOS>BOND
     1    21    11    1
     2    20    14    1
     3    11     6    1
     4    11     1    1
     5    11    10    1
     6     2     1    1
     7     2     3    1
     8    12    10    1
     9    12    13    1
    10     7     6    1
    11     7     8    1
    12     6     5    2
    13     9    10    1
    14     9     8    1
    15     9    15    1
    16     3     5    1
    17     3     4    2
    18    14    13    1
    19    14    15    1
    20    14    18    1
    21    15    16    1
    22    19    18    1
    23    16    17    1
    24    18    17    1
