@<TRIPOS>MOLECULE
2ylq_YLQ_A_1.pdb
 25 27 0 0 0
SMALL
GASTEIGER

@<TRIPOS>ATOM
      1  C01       11.5980  -13.1890  -33.5290 C.3   1922  YLQ1922     0.0310
      2  C02       12.6370  -14.2550  -33.5740 C.ar  1922  YLQ1922    -0.0217
      3  C03       12.4600  -15.4180  -32.8830 C.ar  1922  YLQ1922    -0.0011
      4  C04       13.4700  -16.4470  -32.9520 C.ar  1922  YLQ1922     0.0366
      5  C05       14.6460  -16.2530  -33.7150 C.ar  1922  YLQ1922     0.1386
      6  O06       15.6080  -17.2140  -33.7800 O.3   1922  YLQ1922    -0.4736
      7  C07       16.1260  -17.8270  -32.6480 C.3   1922  YLQ1922     0.2272
      8  C08       17.4860  -17.3990  -32.2430 C.3   1922  YLQ1922     0.1457
      9  N09       17.7230  -16.6840  -30.9540 N.pl3 1922  YLQ1922    -0.2519
     10  C10       18.6970  -15.7680  -30.7000 C.2   1922  YLQ1922     0.2145
     11  S11       19.8340  -15.1870  -31.8810 S.3   1922  YLQ1922    -0.0662
     12  C12       19.6500  -13.3830  -31.7530 C.3   1922  YLQ1922     0.0778
     13  C13       20.1360  -12.4770  -32.8130 C.3   1922  YLQ1922     0.1261
     14  C14       21.5840  -12.1500  -32.9290 C.2   1922  YLQ1922     0.3658
     15  O15       22.4260  -12.7080  -32.2070 O.co2 1922  YLQ1922    -0.2456
     16  O16       21.9490  -11.2930  -33.8030 O.co2 1922  YLQ1922    -0.2456
     17  N17       18.6440  -15.3350  -29.4340 N.2   1922  YLQ1922    -0.3793
     18  C18       17.6020  -15.9890  -28.8360 C.2   1922  YLQ1922     0.1466
     19  C19       17.1020  -15.9210  -27.5210 C.2   1922  YLQ1922     0.0292
     20  C20       16.0200  -16.7200  -27.2120 C.2   1922  YLQ1922    -0.0187
     21  C21       15.4470  -17.5730  -28.1370 C.3   1922  YLQ1922     0.0535
     22  C22       15.9410  -17.6510  -29.4520 C.2   1922  YLQ1922    -0.0039
     23  C23       17.0260  -16.8360  -29.7780 C.2   1922  YLQ1922     0.0799
     24  C24       14.8180  -15.0550  -34.4210 C.ar  1922  YLQ1922     0.0366
     25  C25       13.8350  -14.0660  -34.3570 C.ar  1922  YLQ1922    -0.0011
@<TRIPOS>BOND
     1    24    25   ar
     2    24     5   ar
     3    25     2   ar
     4    16    14   ar
     5     6     5    1
     6     6     7    1
     7     5     4   ar
     8     2     1    1
     9     2     3   ar
    10     4     3   ar
    11    14    13    1
    12    14    15   ar
    13    13    12    1
    14     7     8    1
    15     8     9    1
    16    11    12    1
    17    11    10    1
    18     9    10    1
    19     9    23    1
    20    10    17    2
    21    23    22    2
    22    23    18    1
    23    22    21    1
    24    17    18    2
    25    18    19    1
    26    21    20    1
    27    19    20    2
