@<TRIPOS>MOLECULE
2ylr_NAP_A_1.pdb
 48 52 0 0 0
SMALL
GASTEIGER

@<TRIPOS>ATOM
      1  PA       -50.0960   28.3840   42.2580 P.3   701  NAP701      0.2189
      2  O1A      -48.9890   29.3500   42.0920 O.2   701  NAP701     -0.5170
      3  O2A      -49.8640   27.1060   43.2370 O.3   701  NAP701     -0.4371
      4  O5B      -51.4890   29.1660   42.4990 O.3   701  NAP701     -0.3112
      5  C5B      -52.6890   28.3650   42.6300 C.3   701  NAP701      0.1813
      6  C4B      -53.7910   29.4630   42.8130 C.3   701  NAP701      0.1820
      7  O4B      -55.1200   28.9440   43.1510 O.3   701  NAP701     -0.3136
      8  C3B      -53.5670   30.5410   43.8780 C.3   701  NAP701      0.2157
      9  O3B      -54.3720   31.6600   43.4780 O.3   701  NAP701     -0.2175
     10  C2B      -54.2460   29.9530   45.1620 C.3   701  NAP701      0.2314
     11  O2B      -54.7790   30.9470   46.0430 O.3   701  NAP701     -0.2630
     12  C1B      -55.5170   29.4440   44.4430 C.3   701  NAP701      0.3158
     13  N9A      -56.1590   28.4370   45.2960 N.pl3 701  NAP701     -0.1439
     14  C8A      -55.6670   27.1850   45.7510 C.3   701  NAP701      0.3377
     15  N7A      -56.6140   26.6440   46.4890 N.2   701  NAP701     -0.2095
     16  C5A      -57.7260   27.5020   46.4970 C.2   701  NAP701      0.2526
     17  C6A      -58.9900   27.4590   47.1020 C.2   701  NAP701      0.4393
     18  N6A      -59.2600   26.3240   47.8680 N.pl3 701  NAP701      0.2180
     19  N1A      -59.8720   28.4710   46.9520 N.2   701  NAP701      0.0021
     20  C2A      -59.5490   29.5450   46.2040 C.3   701  NAP701      0.5254
     21  N3A      -58.3450   29.6290   45.6070 N.2   701  NAP701     -0.0055
     22  C4A      -57.4480   28.6510   45.7640 C.2   701  NAP701      0.3518
     23  O3       -50.2890   27.4990   40.9070 O.3   701  NAP701     -0.2703
     24  PN       -49.9230   28.0080   39.4220 P.3   701  NAP701      0.2189
     25  O1N      -50.4840   29.3850   39.0650 O.3   701  NAP701     -0.4371
     26  O2N      -50.4110   26.8090   38.6170 O.2   701  NAP701     -0.5170
     27  O5D      -48.3210   27.9920   39.2020 O.3   701  NAP701     -0.3112
     28  C5D      -47.5530   27.1070   40.0720 C.3   701  NAP701      0.1813
     29  C4D      -46.0490   27.3220   39.7520 C.3   701  NAP701      0.1799
     30  O4D      -45.8880   26.7660   38.4390 O.3   701  NAP701     -0.3327
     31  C3D      -45.6770   28.8220   39.4740 C.3   701  NAP701      0.2158
     32  O3D      -45.5050   29.5330   40.7000 O.3   701  NAP701     -0.2175
     33  C2D      -44.3970   28.6680   38.6240 C.3   701  NAP701      0.2309
     34  O2D      -43.3120   28.0820   39.3590 O.3   701  NAP701     -0.2158
     35  C1D      -44.9620   27.5560   37.6490 C.3   701  NAP701      0.2263
     36  N1N      -45.6750   28.2130   36.5110 N.pl3 701  NAP701     -0.2787
     37  C2N      -44.9650   29.1120   35.7980 C.3   701  NAP701      0.1244
     38  C3N      -45.4850   29.8290   34.7340 C.2   701  NAP701      0.0544
     39  C7N      -44.6090   30.8430   34.0800 C.2   701  NAP701      0.2818
     40  O7N      -43.6330   31.1780   34.7230 O.2   701  NAP701     -0.2670
     41  N7N      -44.8140   31.4830   32.8940 N.am  701  NAP701     -0.0839
     42  C4N      -46.8400   29.5940   34.3960 C.2   701  NAP701      0.0033
     43  C5N      -47.5910   28.6620   35.1640 C.2   701  NAP701      0.0157
     44  C6N      -46.9840   27.9820   36.2240 C.2   701  NAP701      0.0633
     45  P2B      -53.8410   31.4440   47.3180 P.3   701  NAP701      0.5328
     46  O1X      -53.5040   30.0390   48.0300 O.3   701  NAP701     -0.1145
     47  O2X      -54.6010   32.5020   48.1540 O.3   701  NAP701     -0.1145
     48  O3X      -52.4440   32.0140   46.7730 O.2   701  NAP701     -0.2224
@<TRIPOS>BOND
     1    41    39   am
     2    39    40    2
     3    39    38    1
     4    42    38    2
     5    42    43    1
     6    38    37    1
     7    43    44    2
     8    37    36    1
     9    44    36    1
    10    36    35    1
    11    35    30    1
    12    35    33    1
    13    30    29    1
    14    26    24    2
    15    33    34    1
    16    33    31    1
    17    25    24    1
    18    27    24    1
    19    27    28    1
    20    24    23    1
    21    31    29    1
    22    31    32    1
    23    29    28    1
    24    23     1    1
    25     2     1    2
    26     1     4    1
    27     1     3    1
    28     4     5    1
    29     5     6    1
    30     6     7    1
    31     6     8    1
    32     7    12    1
    33     9     8    1
    34     8    10    1
    35    12    10    1
    36    12    13    1
    37    10    11    1
    38    13    14    1
    39    13    22    1
    40    21    22    2
    41    21    20    1
    42    14    15    1
    43    22    16    1
    44    11    45    1
    45    20    19    1
    46    15    16    2
    47    16    17    1
    48    48    45    2
    49    19    17    2
    50    17    18    1
    51    45    46    1
    52    45    47    1
