@<TRIPOS>MOLECULE
2yls_NAP_A_1.pdb
 48 52 0 0 0
SMALL
GASTEIGER

@<TRIPOS>ATOM
      1  PA       -49.6170   29.0650  -42.0440 P.3   701  NAP701      0.2189
      2  O1A      -49.8770   27.6370  -41.8850 O.3   701  NAP701     -0.4371
      3  O2A      -48.5350   29.4770  -43.1290 O.2   701  NAP701     -0.5170
      4  O5B      -50.9890   29.8830  -42.2060 O.3   701  NAP701     -0.3112
      5  C5B      -50.7970   31.2490  -42.4500 C.3   701  NAP701      0.1813
      6  C4B      -52.2770   31.7440  -42.5170 C.3   701  NAP701      0.1820
      7  O4B      -52.2630   33.1440  -42.8640 O.3   701  NAP701     -0.3136
      8  C3B      -53.1520   31.0820  -43.5950 C.3   701  NAP701      0.2157
      9  O3B      -54.5610   31.1360  -43.1970 O.3   701  NAP701     -0.2175
     10  C2B      -52.9490   31.9650  -44.8750 C.3   701  NAP701      0.2314
     11  O2B      -54.0560   31.9140  -45.8290 O.3   701  NAP701     -0.2630
     12  C1B      -52.9750   33.3500  -44.1400 C.3   701  NAP701      0.3158
     13  N9A      -52.3430   34.3580  -45.0150 N.pl3 701  NAP701     -0.1439
     14  C8A      -51.0310   34.4380  -45.4860 C.3   701  NAP701      0.3377
     15  N7A      -50.8870   35.4970  -46.2760 N.2   701  NAP701     -0.2095
     16  C5A      -52.1020   36.1450  -46.3370 C.2   701  NAP701      0.2526
     17  C6A      -52.5770   37.2920  -47.0080 C.2   701  NAP701      0.4393
     18  N6A      -51.6900   38.0260  -47.7990 N.pl3 701  NAP701      0.2180
     19  N1A      -53.8760   37.6490  -46.8220 N.2   701  NAP701      0.0021
     20  C2A      -54.7320   36.9460  -46.0600 C.3   701  NAP701      0.5254
     21  N3A      -54.2970   35.8530  -45.4600 N.2   701  NAP701     -0.0055
     22  C4A      -53.0320   35.4450  -45.5390 C.2   701  NAP701      0.3518
     23  O3       -48.9140   29.6640  -40.7200 O.3   701  NAP701     -0.2703
     24  PN       -49.1060   29.0910  -39.2260 P.3   701  NAP701      0.2189
     25  O1N      -50.5580   29.0060  -38.7220 O.2   701  NAP701     -0.5170
     26  O2N      -48.2760   30.1440  -38.4400 O.3   701  NAP701     -0.4371
     27  O5D      -48.3390   27.7070  -38.9990 O.3   701  NAP701     -0.3112
     28  C5D      -47.2170   27.5100  -39.8640 C.3   701  NAP701      0.1813
     29  C4D      -46.6080   26.1490  -39.4610 C.3   701  NAP701      0.1799
     30  O4D      -45.7930   26.1750  -38.2450 O.3   701  NAP701     -0.3327
     31  C3D      -47.7000   25.0790  -39.1390 C.3   701  NAP701      0.2158
     32  O3D      -48.1790   24.5040  -40.3360 O.3   701  NAP701     -0.2175
     33  C2D      -46.8870   24.0110  -38.3420 C.3   701  NAP701      0.2309
     34  O2D      -45.8810   23.4220  -39.1220 O.3   701  NAP701     -0.2158
     35  C1D      -46.1170   25.0040  -37.4030 C.3   701  NAP701      0.2263
     36  N1N      -47.0460   25.3110  -36.2460 N.pl3 701  NAP701     -0.2787
     37  C2N      -47.5030   24.2870  -35.4390 C.3   701  NAP701      0.1244
     38  C3N      -48.4110   24.5040  -34.3640 C.2   701  NAP701      0.0544
     39  C7N      -48.9120   23.4020  -33.4880 C.2   701  NAP701      0.2818
     40  O7N      -48.1900   22.4320  -33.1940 O.2   701  NAP701     -0.2670
     41  N7N      -50.1810   23.4220  -32.9670 N.am  701  NAP701     -0.0839
     42  C4N      -48.8130   25.8460  -34.1260 C.2   701  NAP701      0.0033
     43  C5N      -48.3430   26.8600  -34.9890 C.2   701  NAP701      0.0157
     44  C6N      -47.4380   26.5810  -36.0250 C.2   701  NAP701      0.0633
     45  P2B      -53.9510   30.8500  -47.1240 P.3   701  NAP701      0.5328
     46  O1X      -52.5450   31.1030  -47.8840 O.2   701  NAP701     -0.2224
     47  O2X      -55.2280   31.1200  -47.8620 O.3   701  NAP701     -0.1145
     48  O3X      -53.7700   29.3730  -46.5200 O.3   701  NAP701     -0.1145
@<TRIPOS>BOND
     1    46    45    2
     2    47    45    1
     3    18    17    1
     4    45    48    1
     5    45    11    1
     6    17    19    2
     7    17    16    1
     8    19    20    1
     9    16    15    2
    10    16    22    1
    11    15    14    1
    12    20    21    1
    13    11    10    1
    14    22    21    2
    15    22    13    1
    16    14    13    1
    17    13    12    1
    18    10    12    1
    19    10     8    1
    20    12     7    1
    21     8     9    1
    22     8     6    1
    23     3     1    2
    24     7     6    1
    25     6     5    1
    26     5     4    1
    27     4     1    1
    28     1     2    1
    29     1    23    1
    30    23    24    1
    31    32    31    1
    32    28    29    1
    33    28    27    1
    34    29    31    1
    35    29    30    1
    36    24    27    1
    37    24    25    2
    38    24    26    1
    39    31    33    1
    40    34    33    1
    41    33    35    1
    42    30    35    1
    43    35    36    1
    44    36    44    1
    45    36    37    1
    46    44    43    2
    47    37    38    1
    48    43    42    1
    49    38    42    2
    50    38    39    1
    51    39    40    2
    52    39    41   am
