@<TRIPOS>MOLECULE
2ylt_NAP_A_1.pdb
 48 52 0 0 0
SMALL
GASTEIGER

@<TRIPOS>ATOM
      1  PA        49.8120  -27.8780  -11.7870 P.3   701  NAP701      0.2189
      2  O1A       48.6930  -28.8330  -11.9140 O.2   701  NAP701     -0.5170
      3  O2A       49.6890  -26.9230  -10.5260 O.3   701  NAP701     -0.4371
      4  O5B       51.1520  -28.7000  -11.7130 O.3   701  NAP701     -0.3112
      5  C5B       52.0600  -28.2120  -10.7830 C.3   701  NAP701      0.1813
      6  C4B       53.2140  -29.1910  -11.0580 C.3   701  NAP701      0.1820
      7  O4B       54.4280  -28.4790  -10.8720 O.3   701  NAP701     -0.3136
      8  C3B       53.2510  -30.3850  -10.0630 C.3   701  NAP701      0.2157
      9  O3B       54.1470  -31.4500  -10.4460 O.3   701  NAP701     -0.2175
     10  C2B       53.9020  -29.7030   -8.8520 C.3   701  NAP701      0.2314
     11  O2B       54.4620  -30.6880   -7.9670 O.3   701  NAP701     -0.2630
     12  C1B       55.0190  -29.0010   -9.6590 C.3   701  NAP701      0.3158
     13  N9A       55.5790  -27.9340   -8.8310 N.pl3 701  NAP701     -0.1439
     14  C8A       55.0060  -26.7150   -8.4710 C.3   701  NAP701      0.3377
     15  N7A       55.8390  -26.0310   -7.7250 N.2   701  NAP701     -0.2095
     16  C5A       56.9880  -26.7750   -7.5920 C.2   701  NAP701      0.2526
     17  C6A       58.2020  -26.5610   -6.9160 C.2   701  NAP701      0.4393
     18  N6A       58.3500  -25.3650   -6.1920 N.pl3 701  NAP701      0.2180
     19  N1A       59.1570  -27.5340   -7.0020 N.2   701  NAP701      0.0021
     20  C2A       58.9340  -28.6560   -7.7060 C.3   701  NAP701      0.5254
     21  N3A       57.8020  -28.9010   -8.3560 N.2   701  NAP701     -0.0055
     22  C4A       56.8450  -27.9910   -8.3080 C.2   701  NAP701      0.3518
     23  O3        49.8950  -26.9460  -13.1370 O.3   701  NAP701     -0.2703
     24  PN        49.5860  -27.6800  -14.5400 P.3   701  NAP701      0.2189
     25  O1N       50.3700  -28.9860  -14.7410 O.3   701  NAP701     -0.4371
     26  O2N       49.9700  -26.5830  -15.5420 O.2   701  NAP701     -0.5170
     27  O5D       48.0110  -27.9190  -14.6580 O.3   701  NAP701     -0.3112
     28  C5D       47.3470  -26.6980  -14.3150 C.3   701  NAP701      0.1813
     29  C4D       45.8460  -26.9720  -14.2970 C.3   701  NAP701      0.1799
     30  O4D       45.3320  -26.2640  -15.4520 O.3   701  NAP701     -0.3327
     31  C3D       45.5160  -28.4620  -14.5740 C.3   701  NAP701      0.2158
     32  O3D       45.1910  -29.2170  -13.4400 O.3   701  NAP701     -0.2175
     33  C2D       44.1640  -28.3330  -15.2580 C.3   701  NAP701      0.2309
     34  O2D       43.1990  -27.8310  -14.3480 O.3   701  NAP701     -0.2158
     35  C1D       44.5420  -27.1910  -16.2470 C.3   701  NAP701      0.2263
     36  N1N       45.2790  -27.8320  -17.3730 N.pl3 701  NAP701     -0.2787
     37  C2N       44.6060  -28.7660  -18.0990 C.3   701  NAP701      0.1244
     38  C3N       45.2190  -29.4490  -19.1890 C.2   701  NAP701      0.0544
     39  C7N       44.4990  -30.5030  -19.9880 C.2   701  NAP701      0.2818
     40  O7N       43.3000  -30.5340  -20.0970 O.2   701  NAP701     -0.2670
     41  N7N       45.1200  -31.5340  -20.5940 N.am  701  NAP701     -0.0839
     42  C4N       46.5740  -29.1270  -19.4660 C.2   701  NAP701      0.0033
     43  C5N       47.2300  -28.1760  -18.6690 C.2   701  NAP701      0.0157
     44  C6N       46.5650  -27.5310  -17.6310 C.2   701  NAP701      0.0633
     45  P2B       53.5700  -30.8540   -6.6180 P.3   701  NAP701      0.5328
     46  O1X       52.9350  -29.4100   -6.2360 O.3   701  NAP701     -0.1145
     47  O2X       54.3060  -31.6750   -5.5940 O.3   701  NAP701     -0.1145
     48  O3X       52.2240  -31.6770   -6.9240 O.2   701  NAP701     -0.2224
@<TRIPOS>BOND
     1    41    39   am
     2    40    39    2
     3    39    38    1
     4    42    38    2
     5    42    43    1
     6    38    37    1
     7    43    44    2
     8    37    36    1
     9    44    36    1
    10    36    35    1
    11    35    30    1
    12    35    33    1
    13    26    24    2
    14    30    29    1
    15    33    31    1
    16    33    34    1
    17    25    24    1
    18    27    24    1
    19    27    28    1
    20    31    29    1
    21    31    32    1
    22    24    23    1
    23    28    29    1
    24    23     1    1
    25     2     1    2
    26     1     4    1
    27     1     3    1
    28     4     5    1
    29     6     7    1
    30     6     5    1
    31     6     8    1
    32     7    12    1
    33     9     8    1
    34     8    10    1
    35    12    10    1
    36    12    13    1
    37    10    11    1
    38    13    14    1
    39    13    22    1
    40    14    15    1
    41    21    22    2
    42    21    20    1
    43    22    16    1
    44    11    45    1
    45    15    16    2
    46    20    19    1
    47    16    17    1
    48    19    17    2
    49    48    45    2
    50    17    18    1
    51    45    46    1
    52    45    47    1
