@<TRIPOS>MOLECULE
2ylw_NAP_A_1.pdb
 48 52 0 0 0
SMALL
GASTEIGER

@<TRIPOS>ATOM
      1  PA        49.5780  -29.0210   11.0800 P.3   701  NAP701      0.2189
      2  O1A       49.8070  -27.5770   11.2380 O.3   701  NAP701     -0.4371
      3  O2A       48.3570  -29.5020   10.1660 O.2   701  NAP701     -0.5170
      4  O5B       50.9020  -29.7320   10.5850 O.3   701  NAP701     -0.3112
      5  C5B       50.7120  -31.1390   10.5280 C.3   701  NAP701      0.1813
      6  C4B       52.1770  -31.5780   10.4450 C.3   701  NAP701      0.1820
      7  O4B       52.2830  -32.9430   10.0630 O.3   701  NAP701     -0.3136
      8  C3B       53.0290  -30.8260    9.4010 C.3   701  NAP701      0.2157
      9  O3B       54.3650  -30.9010    9.9240 O.3   701  NAP701     -0.2175
     10  C2B       52.9330  -31.6760    8.1190 C.3   701  NAP701      0.2314
     11  O2B       54.1440  -31.7280    7.3780 O.3   701  NAP701     -0.2630
     12  C1B       53.0060  -33.0250    8.8090 C.3   701  NAP701      0.3158
     13  N9A       52.3500  -33.9960    7.9600 N.pl3 701  NAP701     -0.1439
     14  C8A       51.0310  -34.0870    7.5790 C.3   701  NAP701      0.3377
     15  N7A       50.8460  -35.1630    6.8400 N.2   701  NAP701     -0.2095
     16  C5A       52.0460  -35.8230    6.7370 C.2   701  NAP701      0.2526
     17  C6A       52.4940  -37.0250    6.1080 C.2   701  NAP701      0.4393
     18  N6A       51.5920  -37.8010    5.3590 N.pl3 701  NAP701      0.2180
     19  N1A       53.8160  -37.3600    6.2380 N.2   701  NAP701      0.0021
     20  C2A       54.6710  -36.6170    6.9470 C.3   701  NAP701      0.5254
     21  N3A       54.3000  -35.4930    7.5770 N.2   701  NAP701     -0.0055
     22  C4A       53.0300  -35.0780    7.4680 C.2   701  NAP701      0.3518
     23  O3        49.4340  -29.7370   12.5150 O.3   701  NAP701     -0.2703
     24  PN        48.9950  -29.0120   13.8740 P.3   701  NAP701      0.2189
     25  O1N       50.1700  -28.9580   14.8650 O.3   701  NAP701     -0.4371
     26  O2N       47.8560  -29.9220   14.4370 O.2   701  NAP701     -0.5170
     27  O5D       48.4480  -27.5450   13.5490 O.3   701  NAP701     -0.3112
     28  C5D       47.0460  -27.6430   13.2190 C.3   701  NAP701      0.1813
     29  C4D       46.5260  -26.2070   13.3080 C.3   701  NAP701      0.1799
     30  O4D       45.6500  -26.1170   14.4810 O.3   701  NAP701     -0.3327
     31  C3D       47.6970  -25.1750   13.5860 C.3   701  NAP701      0.2158
     32  O3D       48.3790  -24.6700   12.4400 O.3   701  NAP701     -0.2175
     33  C2D       46.8970  -24.0100   14.2330 C.3   701  NAP701      0.2309
     34  O2D       45.9940  -23.4550   13.3060 O.3   701  NAP701     -0.2158
     35  C1D       46.0250  -24.8890   15.1870 C.3   701  NAP701      0.2263
     36  N1N       46.9610  -25.2030   16.3160 N.pl3 701  NAP701     -0.2787
     37  C2N       47.4070  -24.1400   17.0620 C.3   701  NAP701      0.1244
     38  C3N       48.2740  -24.3480   18.1340 C.2   701  NAP701      0.0544
     39  C7N       48.7660  -23.2010   18.9140 C.2   701  NAP701      0.2818
     40  O7N       48.1930  -22.1450   18.7300 O.2   701  NAP701     -0.2670
     41  N7N       49.8400  -23.2640   19.7800 N.am  701  NAP701     -0.0839
     42  C4N       48.6710  -25.6790   18.4210 C.2   701  NAP701      0.0033
     43  C5N       48.2330  -26.7580   17.6280 C.2   701  NAP701      0.0157
     44  C6N       47.3730  -26.4810   16.5690 C.2   701  NAP701      0.0633
     45  P2B       54.0010  -30.6560    6.1540 P.3   701  NAP701      0.5328
     46  O1X       52.7430  -31.1960    5.3130 O.3   701  NAP701     -0.1145
     47  O2X       55.2410  -30.4980    5.2890 O.2   701  NAP701     -0.2224
     48  O3X       53.6460  -29.1490    6.6660 O.3   701  NAP701     -0.1145
@<TRIPOS>BOND
     1    47    45    2
     2    46    45    1
     3    18    17    1
     4    17    19    2
     5    17    16    1
     6    45    48    1
     7    45    11    1
     8    19    20    1
     9    16    15    2
    10    16    22    1
    11    15    14    1
    12    20    21    1
    13    11    10    1
    14    22    21    2
    15    22    13    1
    16    14    13    1
    17    13    12    1
    18    10    12    1
    19    10     8    1
    20    12     7    1
    21     8     9    1
    22     8     6    1
    23     7     6    1
    24     3     1    2
    25     6     5    1
    26     5     4    1
    27     4     1    1
    28     1     2    1
    29     1    23    1
    30    32    31    1
    31    23    24    1
    32    28    29    1
    33    28    27    1
    34    34    33    1
    35    29    31    1
    36    29    30    1
    37    27    24    1
    38    31    33    1
    39    24    26    2
    40    24    25    1
    41    33    35    1
    42    30    35    1
    43    35    36    1
    44    36    44    1
    45    36    37    1
    46    44    43    2
    47    37    38    1
    48    43    42    1
    49    38    42    2
    50    38    39    1
    51    40    39    2
    52    39    41   am
