@<TRIPOS>MOLECULE
2ylx_NAP_A_1.pdb
 48 52 0 0 0
SMALL
GASTEIGER

@<TRIPOS>ATOM
      1  PA       -49.9190   28.1250  -11.5090 P.3   701  NAP701      0.2189
      2  O1A      -48.8070   29.0820  -11.6800 O.2   701  NAP701     -0.5170
      3  O2A      -49.6130   26.9040  -10.4950 O.3   701  NAP701     -0.4371
      4  O5B      -51.2500   28.9040  -11.2940 O.3   701  NAP701     -0.3112
      5  C5B      -52.3900   28.0700  -11.0410 C.3   701  NAP701      0.1813
      6  C4B      -53.5160   29.1210  -10.9650 C.3   701  NAP701      0.1820
      7  O4B      -54.7580   28.4470  -10.6840 O.3   701  NAP701     -0.3136
      8  C3B      -53.3710   30.1990   -9.8740 C.3   701  NAP701      0.2157
      9  O3B      -54.1160   31.3530  -10.2630 O.3   701  NAP701     -0.2175
     10  C2B      -54.1300   29.5970   -8.6790 C.3   701  NAP701      0.2314
     11  O2B      -54.6660   30.5550   -7.7370 O.3   701  NAP701     -0.2630
     12  C1B      -55.3440   29.0400   -9.5120 C.3   701  NAP701      0.3158
     13  N9A      -55.8470   27.9670   -8.6360 N.pl3 701  NAP701     -0.1439
     14  C8A      -55.1430   26.8430   -8.2580 C.3   701  NAP701      0.3377
     15  N7A      -55.8810   26.1140   -7.4200 N.2   701  NAP701     -0.2095
     16  C5A      -57.0950   26.7430   -7.2060 C.2   701  NAP701      0.2526
     17  C6A      -58.2320   26.4430   -6.4020 C.2   701  NAP701      0.4393
     18  N6A      -58.2320   25.2730   -5.6200 N.pl3 701  NAP701      0.2180
     19  N1A      -59.2750   27.3190   -6.4330 N.2   701  NAP701      0.0021
     20  C2A      -59.1820   28.4330   -7.1820 C.3   701  NAP701      0.5254
     21  N3A      -58.1080   28.7440   -7.9420 N.2   701  NAP701     -0.0055
     22  C4A      -57.0910   27.9270   -7.9940 C.2   701  NAP701      0.3518
     23  O3       -50.1770   27.2570  -12.8670 O.3   701  NAP701     -0.2703
     24  PN       -49.7090   27.7770  -14.3290 P.3   701  NAP701      0.2189
     25  O1N      -50.3840   29.1190  -14.7190 O.3   701  NAP701     -0.4371
     26  O2N      -50.1790   26.6090  -15.1600 O.2   701  NAP701     -0.5170
     27  O5D      -48.1100   27.8820  -14.4630 O.3   701  NAP701     -0.3112
     28  C5D      -47.3740   26.9300  -13.6770 C.3   701  NAP701      0.1813
     29  C4D      -45.8940   27.0790  -14.0990 C.3   701  NAP701      0.1799
     30  O4D      -45.6970   26.4740  -15.4200 O.3   701  NAP701     -0.3327
     31  C3D      -45.5220   28.5460  -14.3130 C.3   701  NAP701      0.2158
     32  O3D      -45.2990   29.2010  -13.0780 O.3   701  NAP701     -0.2175
     33  C2D      -44.2470   28.3900  -15.1480 C.3   701  NAP701      0.2309
     34  O2D      -43.2000   27.8190  -14.3920 O.3   701  NAP701     -0.2158
     35  C1D      -44.7410   27.2820  -16.1460 C.3   701  NAP701      0.2263
     36  N1N      -45.4940   27.9590  -17.2420 N.pl3 701  NAP701     -0.2787
     37  C2N      -44.8540   28.9220  -17.9440 C.3   701  NAP701      0.1244
     38  C3N      -45.4960   29.6240  -18.9880 C.2   701  NAP701      0.0544
     39  C7N      -44.7190   30.6370  -19.7420 C.2   701  NAP701      0.2818
     40  O7N      -45.2270   31.7200  -19.9240 O.2   701  NAP701     -0.2670
     41  N7N      -43.4730   30.4580  -20.2350 N.am  701  NAP701     -0.0839
     42  C4N      -46.8580   29.3220  -19.2840 C.2   701  NAP701      0.0033
     43  C5N      -47.5370   28.3390  -18.4980 C.2   701  NAP701      0.0157
     44  C6N      -46.8160   27.6780  -17.4900 C.2   701  NAP701      0.0633
     45  P2B      -53.6890   31.0110   -6.4610 P.3   701  NAP701      0.5328
     46  O1X      -53.1700   29.6250   -5.8240 O.3   701  NAP701     -0.1145
     47  O2X      -54.2790   32.1050   -5.6080 O.3   701  NAP701     -0.1145
     48  O3X      -52.2940   31.5940   -7.0520 O.2   701  NAP701     -0.2224
@<TRIPOS>BOND
     1    41    39   am
     2    40    39    2
     3    39    38    1
     4    42    38    2
     5    42    43    1
     6    38    37    1
     7    43    44    2
     8    37    36    1
     9    44    36    1
    10    36    35    1
    11    35    30    1
    12    35    33    1
    13    30    29    1
    14    26    24    2
    15    33    34    1
    16    33    31    1
    17    25    24    1
    18    27    24    1
    19    27    28    1
    20    24    23    1
    21    31    29    1
    22    31    32    1
    23    29    28    1
    24    23     1    1
    25     2     1    2
    26     1     4    1
    27     1     3    1
    28     4     5    1
    29     5     6    1
    30     6     7    1
    31     6     8    1
    32     7    12    1
    33     9     8    1
    34     8    10    1
    35    12    10    1
    36    12    13    1
    37    10    11    1
    38    13    14    1
    39    13    22    1
    40    14    15    1
    41    22    21    2
    42    22    16    1
    43    21    20    1
    44    11    45    1
    45    15    16    2
    46    16    17    1
    47    20    19    1
    48    48    45    2
    49    45    46    1
    50    45    47    1
    51    19    17    2
    52    17    18    1
