@<TRIPOS>MOLECULE
2yly_SU4_A_1.pdb
 24 26 0 0 0
SMALL
GASTEIGER

@<TRIPOS>ATOM
      1  O3       -30.4780  -10.1100  -28.5970 O.2   1499  SU41499    -0.1528
      2  S        -29.7950  -10.1860  -29.8460 S.O2  1499  SU41499     0.0633
      3  O2       -30.4900  -11.0940  -30.7290 O.2   1499  SU41499    -0.1528
      4  C7       -28.3870  -10.8260  -29.4770 C.ar  1499  SU41499     0.1224
      5  C12      -28.2970  -11.6640  -28.3450 C.ar  1499  SU41499     0.0232
      6  C11      -27.0820  -12.2270  -28.0000 C.ar  1499  SU41499     0.0434
      7  C10      -25.9590  -11.9700  -28.7870 C.ar  1499  SU41499     0.1958
      8  O4       -24.8000  -12.5320  -28.4250 O.3   1499  SU41499    -0.2866
      9  C9       -26.0250  -11.1440  -29.9200 C.ar  1499  SU41499     0.0434
     10  C8       -27.2530  -10.5650  -30.2630 C.ar  1499  SU41499     0.0232
     11  N        -29.7720   -8.7460  -30.4030 N.3   1499  SU41499    -0.1541
     12  C4       -30.2140   -8.3720  -31.7570 C.3   1499  SU41499     0.0798
     13  C6       -29.2210   -7.6260  -32.6520 C.3   1499  SU41499     0.0192
     14  C5       -29.4960   -9.0980  -32.8760 C.3   1499  SU41499     0.0192
     15  C3       -29.3560   -7.5870  -29.5870 C.3   1499  SU41499     0.1302
     16  C2       -30.4470   -6.8050  -28.8080 C.3   1499  SU41499     0.1617
     17  C1       -29.7810   -5.7420  -27.9380 C.3   1499  SU41499     0.0391
     18  O1       -31.0940   -7.6460  -27.8400 O.3   1499  SU41499    -0.2197
     19  C13      -31.4760   -6.1190  -29.7110 C.ar  1499  SU41499     0.0064
     20  C18      -32.8420   -6.5000  -29.7250 C.ar  1499  SU41499    -0.0019
     21  C17      -33.7560   -5.8490  -30.5700 C.ar  1499  SU41499    -0.0002
     22  C16      -33.3590   -4.8130  -31.4120 C.ar  1499  SU41499    -0.0000
     23  C15      -32.0070   -4.4290  -31.4250 C.ar  1499  SU41499    -0.0002
     24  C14      -31.0760   -5.0720  -30.5820 C.ar  1499  SU41499    -0.0019
@<TRIPOS>BOND
     1    14    13    1
     2    14    12    1
     3    13    12    1
     4    12    11    1
     5    23    22   ar
     6    23    24   ar
     7    22    21   ar
     8     3     2    2
     9    24    19   ar
    10    21    20   ar
    11    11     2    1
    12    11    15    1
    13    10     9   ar
    14    10     4   ar
    15     9     7   ar
    16     2     4    1
    17     2     1    2
    18    20    19   ar
    19    19    16    1
    20    15    16    1
    21     4     5   ar
    22    16    17    1
    23    16    18    1
    24     7     8    1
    25     7     6   ar
    26     5     6   ar
