@<TRIPOS>MOLECULE
2ym1_NAP_A_1.pdb
 48 52 0 0 0
SMALL
GASTEIGER

@<TRIPOS>ATOM
      1  PA        49.6530  -29.1920   11.1470 P.3   1543  NAP1543     0.2189
      2  O1A       49.8900  -27.7470   11.2860 O.3   1543  NAP1543    -0.4371
      3  O2A       48.3640  -29.5610   10.2090 O.2   1543  NAP1543    -0.5170
      4  O5B       51.0020  -29.9750   10.9800 O.3   1543  NAP1543    -0.3112
      5  C5B       50.8670  -31.3520   10.5980 C.3   1543  NAP1543     0.1813
      6  C4B       52.3420  -31.8330   10.6080 C.3   1543  NAP1543     0.1820
      7  O4B       52.3510  -33.2340   10.2960 O.3   1543  NAP1543    -0.3136
      8  C3B       53.2930  -31.2200    9.5830 C.3   1543  NAP1543     0.2157
      9  O3B       54.6530  -31.3930   10.0320 O.3   1543  NAP1543    -0.2175
     10  C2B       53.0720  -32.1120    8.3260 C.3   1543  NAP1543     0.2314
     11  O2B       54.1840  -32.1720    7.4340 O.3   1543  NAP1543    -0.2630
     12  C1B       53.1120  -33.4450    9.0940 C.3   1543  NAP1543     0.3158
     13  N9A       52.3960  -34.4300    8.2770 N.pl3 1543  NAP1543    -0.1439
     14  C8A       51.0410  -34.4900    7.9870 C.3   1543  NAP1543     0.3377
     15  N7A       50.8380  -35.5670    7.2370 N.2   1543  NAP1543    -0.2095
     16  C5A       52.0360  -36.2160    7.0320 C.2   1543  NAP1543     0.2526
     17  C6A       52.4430  -37.3810    6.3270 C.2   1543  NAP1543     0.4393
     18  N6A       51.4660  -38.1040    5.6370 N.pl3 1543  NAP1543     0.2180
     19  N1A       53.7580  -37.7360    6.3310 N.2   1543  NAP1543     0.0021
     20  C2A       54.6840  -37.0160    6.9990 C.3   1543  NAP1543     0.5254
     21  N3A       54.3420  -35.9040    7.6800 N.2   1543  NAP1543    -0.0055
     22  C4A       53.0530  -35.5040    7.7120 C.2   1543  NAP1543     0.3518
     23  O3        48.9600  -29.8030   12.4850 O.3   1543  NAP1543    -0.2703
     24  PN        49.1920  -29.2150   13.9800 P.3   1543  NAP1543     0.2189
     25  O1N       50.6510  -29.1670   14.4030 O.2   1543  NAP1543    -0.5170
     26  O2N       48.3430  -30.2200   14.7690 O.3   1543  NAP1543    -0.4371
     27  O5D       48.5060  -27.7490   14.0550 O.3   1543  NAP1543    -0.3112
     28  C5D       47.2510  -27.7560   13.3820 C.3   1543  NAP1543     0.1813
     29  C4D       46.6630  -26.3490   13.6090 C.3   1543  NAP1543     0.1799
     30  O4D       45.9440  -26.3060   14.8720 O.3   1543  NAP1543    -0.3327
     31  C3D       47.8100  -25.3140   13.8440 C.3   1543  NAP1543     0.2158
     32  O3D       48.4660  -24.8550   12.6730 O.3   1543  NAP1543    -0.2175
     33  C2D       47.0430  -24.1830   14.5700 C.3   1543  NAP1543     0.2309
     34  O2D       46.0250  -23.5660   13.7980 O.3   1543  NAP1543    -0.2158
     35  C1D       46.2690  -25.0760   15.5920 C.3   1543  NAP1543     0.2263
     36  N1N       47.2090  -25.3070   16.7280 N.pl3 1543  NAP1543    -0.2787
     37  C2N       47.6660  -24.2420   17.4070 C.3   1543  NAP1543     0.1244
     38  C3N       48.5720  -24.4200   18.4780 C.2   1543  NAP1543     0.0544
     39  C7N       49.0320  -23.2180   19.1850 C.2   1543  NAP1543     0.2818
     40  O7N       48.5220  -22.1870   18.7890 O.2   1543  NAP1543    -0.2670
     41  N7N       49.9600  -23.1800   20.1950 N.am  1543  NAP1543    -0.0839
     42  C4N       49.0150  -25.6980   18.8550 C.2   1543  NAP1543     0.0033
     43  C5N       48.5290  -26.7750   18.1220 C.2   1543  NAP1543     0.0157
     44  C6N       47.6300  -26.5370   17.0850 C.2   1543  NAP1543     0.0633
     45  P2B       54.0350  -31.0660    6.1930 P.3   1543  NAP1543     0.5328
     46  O1X       52.6130  -31.2290    5.4790 O.3   1543  NAP1543    -0.1145
     47  O2X       55.2890  -31.1670    5.2980 O.2   1543  NAP1543    -0.2224
     48  O3X       54.0520  -29.5860    6.8620 O.3   1543  NAP1543    -0.1145
@<TRIPOS>BOND
     1    47    45    2
     2    46    45    1
     3    18    17    1
     4    45    48    1
     5    45    11    1
     6    17    19    2
     7    17    16    1
     8    19    20    1
     9    20    21    1
    10    16    15    2
    11    16    22    1
    12    15    14    1
    13    11    10    1
    14    21    22    2
    15    22    13    1
    16    14    13    1
    17    13    12    1
    18    10    12    1
    19    10     8    1
    20    12     7    1
    21     8     9    1
    22     8     6    1
    23     3     1    2
    24     7     6    1
    25     5     6    1
    26     5     4    1
    27     4     1    1
    28     1     2    1
    29     1    23    1
    30    23    24    1
    31    32    31    1
    32    28    29    1
    33    28    27    1
    34    29    31    1
    35    29    30    1
    36    34    33    1
    37    31    33    1
    38    24    27    1
    39    24    25    2
    40    24    26    1
    41    33    35    1
    42    30    35    1
    43    35    36    1
    44    36    44    1
    45    36    37    1
    46    44    43    2
    47    37    38    1
    48    43    42    1
    49    38    42    2
    50    38    39    1
    51    40    39    2
    52    39    41   am
