@<TRIPOS>MOLECULE
2ym2_NAP_A_1.pdb
 48 52 0 0 0
SMALL
GASTEIGER

@<TRIPOS>ATOM
      1  PA       -49.8190   29.2910   11.2420 P.3   1543  NAP1543     0.2189
      2  O1A      -50.0290   27.8410   11.4430 O.3   1543  NAP1543    -0.4371
      3  O2A      -48.6300   29.6700   10.2120 O.2   1543  NAP1543    -0.5170
      4  O5B      -51.1630   30.0610   10.9900 O.3   1543  NAP1543    -0.3112
      5  C5B      -50.9960   31.4580   10.6930 C.3   1543  NAP1543     0.1813
      6  C4B      -52.4840   31.9710   10.6490 C.3   1543  NAP1543     0.1820
      7  O4B      -52.6400   33.3950   10.4480 O.3   1543  NAP1543    -0.3136
      8  C3B      -53.4130   31.3240    9.6010 C.3   1543  NAP1543     0.2157
      9  O3B      -54.6930   31.5760   10.1720 O.3   1543  NAP1543    -0.2175
     10  C2B      -53.3070   32.2510    8.3740 C.3   1543  NAP1543     0.2314
     11  O2B      -54.4970   32.2390    7.5560 O.3   1543  NAP1543    -0.2630
     12  C1B      -53.2420   33.6250    9.1360 C.3   1543  NAP1543     0.3158
     13  N9A      -52.4990   34.6050    8.3060 N.pl3 1543  NAP1543    -0.1439
     14  C8A      -51.1370   34.6440    8.0570 C.3   1543  NAP1543     0.3377
     15  N7A      -50.8470   35.6690    7.2750 N.2   1543  NAP1543    -0.2095
     16  C5A      -52.0220   36.3360    6.9950 C.2   1543  NAP1543     0.2526
     17  C6A      -52.3560   37.4720    6.2190 C.2   1543  NAP1543     0.4393
     18  N6A      -51.3120   38.1200    5.5460 N.pl3 1543  NAP1543     0.2180
     19  N1A      -53.6680   37.8830    6.1490 N.2   1543  NAP1543     0.0021
     20  C2A      -54.6530   37.2290    6.8040 C.3   1543  NAP1543     0.5254
     21  N3A      -54.3650   36.1440    7.5400 N.2   1543  NAP1543    -0.0055
     22  C4A      -53.0950   35.6750    7.6520 C.2   1543  NAP1543     0.3518
     23  O3       -49.2460   29.9830   12.6030 O.3   1543  NAP1543    -0.2703
     24  PN       -49.5230   29.3700   14.0650 P.3   1543  NAP1543     0.2189
     25  O1N      -51.0060   29.3790   14.5140 O.2   1543  NAP1543    -0.5170
     26  O2N      -48.6260   30.3390   14.8680 O.3   1543  NAP1543    -0.4371
     27  O5D      -48.9310   27.8770   14.0850 O.3   1543  NAP1543    -0.3112
     28  C5D      -47.5920   27.8660   13.5690 C.3   1543  NAP1543     0.1813
     29  C4D      -47.0170   26.4610   13.7820 C.3   1543  NAP1543     0.1799
     30  O4D      -46.2730   26.4900   15.0420 O.3   1543  NAP1543    -0.3327
     31  C3D      -48.1580   25.3960   14.0140 C.3   1543  NAP1543     0.2158
     32  O3D      -48.6870   24.7640   12.8380 O.3   1543  NAP1543    -0.2175
     33  C2D      -47.4310   24.3470   14.9040 C.3   1543  NAP1543     0.2309
     34  O2D      -46.3980   23.6120   14.2680 O.3   1543  NAP1543    -0.2158
     35  C1D      -46.6640   25.3280   15.8430 C.3   1543  NAP1543     0.2263
     36  N1N      -47.5630   25.6530   16.9850 N.pl3 1543  NAP1543    -0.2787
     37  C2N      -48.0260   24.6090   17.7210 C.3   1543  NAP1543     0.1244
     38  C3N      -48.8780   24.8480   18.8250 C.2   1543  NAP1543     0.0544
     39  C7N      -49.3500   23.6860   19.6330 C.2   1543  NAP1543     0.2818
     40  O7N      -48.4690   22.9140   19.9910 O.2   1543  NAP1543    -0.2670
     41  N7N      -50.6710   23.4510   19.9730 N.am  1543  NAP1543    -0.0839
     42  C4N      -49.2510   26.2030   19.1480 C.2   1543  NAP1543     0.0033
     43  C5N      -48.7710   27.2560   18.3550 C.2   1543  NAP1543     0.0157
     44  C6N      -47.9210   26.9440   17.2740 C.2   1543  NAP1543     0.0633
     45  P2B      -54.2390   31.3360    6.2160 P.3   1543  NAP1543     0.5328
     46  O1X      -52.7100   31.6160    5.7650 O.3   1543  NAP1543    -0.1145
     47  O2X      -55.3590   31.4410    5.1750 O.2   1543  NAP1543    -0.2224
     48  O3X      -54.2880   29.7620    6.5950 O.3   1543  NAP1543    -0.1145
@<TRIPOS>BOND
     1    47    45    2
     2    18    17    1
     3    46    45    1
     4    19    17    2
     5    19    20    1
     6    45    48    1
     7    45    11    1
     8    17    16    1
     9    20    21    1
    10    16    15    2
    11    16    22    1
    12    15    14    1
    13    21    22    2
    14    11    10    1
    15    22    13    1
    16    14    13    1
    17    13    12    1
    18    10    12    1
    19    10     8    1
    20    12     7    1
    21     8     9    1
    22     8     6    1
    23     3     1    2
    24     7     6    1
    25     6     5    1
    26     5     4    1
    27     4     1    1
    28     1     2    1
    29     1    23    1
    30    23    24    1
    31    32    31    1
    32    28    29    1
    33    28    27    1
    34    29    31    1
    35    29    30    1
    36    31    33    1
    37    24    27    1
    38    24    25    2
    39    24    26    1
    40    34    33    1
    41    33    35    1
    42    30    35    1
    43    35    36    1
    44    36    44    1
    45    36    37    1
    46    44    43    2
    47    37    38    1
    48    43    42    1
    49    38    42    2
    50    38    39    1
    51    39    41   am
    52    39    40    2
