@<TRIPOS>MOLECULE
2ym3_YM3_A_1.pdb
 22 24 0 0 0
SMALL
GASTEIGER

@<TRIPOS>ATOM
      1  CAC       22.2250    0.5420    7.6120 C.3   1271  YM31271     0.0513
      2  CAB       21.4860   -0.4410    8.4780 C.3   1271  YM31271     0.2089
      3  CAQ       19.2330   -0.8340    9.1380 C.2   1271  YM31271     0.3440
      4  CAR       17.8490   -0.2430    9.3050 C.2   1271  YM31271     0.1095
      5  CAG       17.5540    0.9580    8.6710 C.2   1271  YM31271     0.1173
      6  NAN       16.3360    1.5180    8.7870 N.2   1271  YM31271    -0.1905
      7  CAU       15.3450    0.9100    9.5380 C.1   1271  YM31271     0.0593
      8  NAO       14.0500    1.3100    9.7840 N.2   1271  YM31271    -0.0934
      9  NAM       13.4570    0.3710   10.5890 N.2   1271  YM31271    -0.1368
     10  CAH       14.3570   -0.6000   10.8510 C.2   1271  YM31271     0.1341
     11  CAT       15.5780   -0.2830   10.1910 C.2   1271  YM31271     0.0985
     12  CAS       16.8440   -0.8850   10.0840 C.2   1271  YM31271     0.0669
     13  NAV       17.1060   -2.1610   10.7740 N.pl3 1271  YM31271    -0.3020
     14  CAL       17.7960   -2.2210   11.9980 C.3   1271  YM31271     0.1220
     15  CAK       16.0950   -3.1360   10.6730 C.3   1271  YM31271     0.1231
     16  CAJ       16.5880   -4.5080   10.9810 C.3   1271  YM31271     0.1635
     17  OAP       17.2620   -4.5720   12.2070 O.3   1271  YM31271    -0.3511
     18  CAW       18.2610   -3.5950   12.3590 C.3   1271  YM31271     0.1539
     19  CAI       19.5010   -3.9670   11.5570 C.3   1271  YM31271     0.1405
     20  NAA       20.1940   -5.1490   11.9390 N.3   1271  YM31271    -0.1287
     21  O03       20.3480   -0.0030    9.1070 O.3   1271  YM31271    -0.4454
     22  O05       19.3760   -2.0390    9.0040 O.2   1271  YM31271    -0.2448
@<TRIPOS>BOND
     1     1     2    1
     2     2    21    1
     3     5     6    1
     4     5     4    2
     5     6     7    2
     6    22     3    2
     7    21     3    1
     8     3     4    1
     9     4    12    1
    10     7     8    2
    11     7    11    1
    12     8     9    1
    13    12    11    2
    14    12    13    1
    15    11    10    1
    16     9    10    2
    17    15    13    1
    18    15    16    1
    19    13    14    1
    20    16    17    1
    21    19    20    1
    22    19    18    1
    23    14    18    1
    24    17    18    1
