@<TRIPOS>MOLECULE
2ym4_4YM_A_1.pdb
 30 33 0 0 0
SMALL
GASTEIGER

@<TRIPOS>ATOM
      1  C01       21.2950    0.4780    7.4970 C.3   1271  4YM1271     0.0513
      2  C02       20.6870   -0.7620    8.0660 C.3   1271  4YM1271     0.2089
      3  O03       19.9370   -0.6480    9.2140 O.3   1271  4YM1271    -0.4454
      4  C04       18.7820   -1.3940    9.3220 C.2   1271  4YM1271     0.3440
      5  O05       18.8350   -2.6090    9.2660 O.2   1271  4YM1271    -0.2448
      6  C06       17.4850   -0.6730    9.4500 C.2   1271  4YM1271     0.1095
      7  C07       17.3620    0.4930    8.6890 C.2   1271  4YM1271     0.1173
      8  N08       16.2390    1.2250    8.7260 N.2   1271  4YM1271    -0.1905
      9  C09       15.1710    0.8480    9.5140 C.1   1271  4YM1271     0.0593
     10  N10       13.9550    1.4870    9.6610 N.2   1271  4YM1271    -0.0935
     11  N11       13.2000    0.7680   10.5380 N.2   1271  4YM1271    -0.1385
     12  C12       13.9180   -0.2960   10.9430 C.2   1271  4YM1271     0.1141
     13  C13       13.4460   -1.2410   11.8270 C.ar  1271  4YM1271     0.0208
     14  C14       14.3050   -2.1330   12.4450 C.ar  1271  4YM1271     0.0016
     15  C15       13.8160   -3.0860   13.3290 C.ar  1271  4YM1271     0.0007
     16  C16       12.4620   -3.1460   13.5990 C.ar  1271  4YM1271     0.0103
     17  C17       11.6010   -2.2570   12.9840 C.ar  1271  4YM1271     0.0685
     18  C18       10.1480   -2.3260   13.2780 C.1   1271  4YM1271     0.1004
     19  N19        9.0410   -2.3810   13.5050 N.1   1271  4YM1271    -0.1908
     20  C20       12.0890   -1.3030   12.0960 C.ar  1271  4YM1271     0.0119
     21  C21       15.2080   -0.2880   10.2960 C.2   1271  4YM1271     0.0970
     22  C22       16.4150   -1.0830   10.2750 C.2   1271  4YM1271     0.0668
     23  N23       16.5280   -2.2990   11.0620 N.pl3 1271  4YM1271    -0.3020
     24  C24       16.3890   -3.4150   10.2160 C.3   1271  4YM1271     0.1231
     25  C25       16.4190   -4.6710   11.0150 C.3   1271  4YM1271     0.1635
     26  O26       17.5970   -4.7630   11.7670 O.3   1271  4YM1271    -0.3511
     27  C27       17.8520   -3.6440   12.5810 C.3   1271  4YM1271     0.1539
     28  C28       16.9660   -3.6660   13.7940 C.3   1271  4YM1271     0.1405
     29  N29       17.0230   -2.3840   14.4490 N.3   1271  4YM1271    -0.1287
     30  C30       17.6910   -2.3430   11.8520 C.3   1271  4YM1271     0.1220
@<TRIPOS>BOND
     1     1     2    1
     2     2     3    1
     3     7     8    1
     4     7     6    2
     5     8     9    2
     6     3     4    1
     7     5     4    2
     8     4     6    1
     9     6    22    1
    10     9    10    2
    11     9    21    1
    12    10    11    1
    13    24    25    1
    14    24    23    1
    15    22    21    2
    16    22    23    1
    17    21    12    1
    18    11    12    2
    19    12    13    1
    20    25    26    1
    21    23    30    1
    22    26    27    1
    23    13    20   ar
    24    13    14   ar
    25    30    27    1
    26    20    17   ar
    27    14    15   ar
    28    27    28    1
    29    17    18    1
    30    17    16   ar
    31    18    19    3
    32    15    16   ar
    33    28    29    1
