@<TRIPOS>MOLECULE
2ym5_YM5_A_1.pdb
 25 28 0 0 0
SMALL
GASTEIGER

@<TRIPOS>ATOM
      1  N01       20.2470   -5.0230   12.9460 N.3   1271  YM51271    -0.1286
      2  C02       19.9020   -4.0530   11.9660 C.3   1271  YM51271     0.1430
      3  C03       18.4250   -3.4730   12.0110 C.3   1271  YM51271     0.1808
      4  C04       18.2640   -2.3480   11.0400 C.3   1271  YM51271     0.2332
      5  N05       16.9510   -1.8510   11.1470 N.pl3 1271  YM51271    -0.1886
      6  C06       16.7990   -0.6780   10.3210 C.2   1271  YM51271     0.3149
      7  N07       17.8950   -0.2440    9.6290 N.2   1271  YM51271    -0.0389
      8  C08       17.8750    0.8650    8.8060 C.3   1271  YM51271     0.3998
      9  N09       16.7490    1.5590    8.6730 N.2   1271  YM51271    -0.1687
     10  C10       15.5900    1.1810    9.3540 C.1   1271  YM51271     0.0266
     11  N11       14.3850    1.7450    9.3460 N.2   1271  YM51271    -0.1961
     12  C12       13.5250    1.0170   10.1900 C.2   1271  YM51271     0.1065
     13  C13       14.2340   -0.0180   10.7050 C.2   1271  YM51271     0.0228
     14  C14       13.7230   -0.9520   11.6200 C.ar  1271  YM51271    -0.0011
     15  C15       12.4190   -1.4870   11.4300 C.ar  1271  YM51271    -0.0002
     16  C16       11.9000   -2.3570   12.3310 C.ar  1271  YM51271    -0.0003
     17  C17       12.6440   -2.7310   13.4900 C.ar  1271  YM51271    -0.0017
     18  C18       13.9410   -2.1810   13.6970 C.ar  1271  YM51271     0.0106
     19  C19       14.7680   -2.5850   14.9630 C.3   1271  YM51271     0.2086
     20  O20       14.9130   -1.6290   15.9930 O.3   1271  YM51271    -0.2152
     21  C21       14.4590   -1.3060   12.8010 C.ar  1271  YM51271    -0.0020
     22  C22       15.5890    0.0480   10.2000 C.3   1271  YM51271     0.2135
     23  C23       16.0370   -2.8570   10.7620 C.3   1271  YM51271     0.2343
     24  C24       16.1480   -4.0180   11.7010 C.3   1271  YM51271     0.1929
     25  O25       17.4700   -4.4970   11.7910 O.3   1271  YM51271    -0.3461
@<TRIPOS>BOND
     1     9     8    1
     2     9    10    2
     3     8     7    1
     4    11    10    2
     5    11    12    1
     6    10    22    1
     7     7     6    2
     8    12    13    2
     9    22     6    1
    10    22    13    1
    11     6     5    1
    12    13    14    1
    13    23     5    1
    14    23    24    1
    15     4     5    1
    16     4     3    1
    17    15    14   ar
    18    15    16   ar
    19    14    21   ar
    20    24    25    1
    21    25     3    1
    22     2     3    1
    23     2     1    1
    24    16    17   ar
    25    21    18   ar
    26    17    18   ar
    27    18    19    1
    28    19    20    1
