@<TRIPOS>MOLECULE
2ym6_YM6_A_1.pdb
 21 24 0 0 0
SMALL
GASTEIGER

@<TRIPOS>ATOM
      1  N1        17.8290   -0.4760    9.6120 N.2   1271  YM61271    -0.0388
      2  C2        17.7470    0.5970    8.8490 C.3   1271  YM61271     0.4005
      3  N3        16.6470    1.3280    8.8310 N.2   1271  YM61271    -0.1581
      4  C4        15.5870    0.9930    9.5770 C.1   1271  YM61271     0.0778
      5  C5        15.6230   -0.1520   10.3620 C.3   1271  YM61271     0.2259
      6  C6        16.8280   -0.8470   10.4280 C.2   1271  YM61271     0.3160
      7  NAA       18.4180   -3.2790   14.9140 N.3   1271  YM61271    -0.1286
      8  CAB       12.4990   -0.7880   12.3870 C.2   1271  YM61271     0.0934
      9  CAD       13.7990   -1.0460   11.9520 C.2   1271  YM61271     0.0198
     10  CAE       12.3600    1.0920   11.0600 C.3   1271  YM61271     0.1846
     11  CAF       18.2920   -2.5410   13.6460 C.3   1271  YM61271     0.1430
     12  CAG       16.1110   -3.7530   12.6210 C.3   1271  YM61271     0.1929
     13  CAH       15.9270   -3.0090   11.3110 C.3   1271  YM61271     0.2343
     14  CAI       18.3350   -2.6990   11.1220 C.3   1271  YM61271     0.2332
     15  NAJ       11.8250    0.2600   11.9410 N.2   1271  YM61271    -0.2613
     16  NAM       14.3950    1.5750    9.7210 N.2   1271  YM61271    -0.3567
     17  OAN       17.3590   -4.4590   12.6070 O.3   1271  YM61271    -0.3461
     18  CAP       13.6470    0.8870   10.5820 C.2   1271  YM61271     0.1421
     19  CAQ       14.3930   -0.1920   11.0320 C.2   1271  YM61271     0.0338
     20  CAT       18.4300   -3.4880   12.4350 C.3   1271  YM61271     0.1808
     21  NAU       17.0220   -2.0470   11.1080 N.pl3 1271  YM61271    -0.1885
@<TRIPOS>BOND
     1     3     2    1
     2     3     4    2
     3     2     1    1
     4     4    16    2
     5     4     5    1
     6     1     6    2
     7    16    18    2
     8     5     6    1
     9     5    19    1
    10     6    21    1
    11    18    19    1
    12    18    10    1
    13    19     9    2
    14    10    15    1
    15    21    14    1
    16    21    13    1
    17    14    20    1
    18    13    12    1
    19    15     8    2
    20     9     8    1
    21    20    17    1
    22    20    11    1
    23    17    12    1
    24    11     7    1
