@<TRIPOS>MOLECULE
2ym7_YM7_A_1.pdb
 23 25 0 0 0
SMALL
GASTEIGER

@<TRIPOS>ATOM
      1  CAI       18.4680   -2.6320   12.8770 C.3   1272  YM71272     0.0231
      2  CAG       18.1130   -2.5210   14.3330 C.3   1272  YM71272     0.0888
      3  NAP       17.4430   -3.7140   14.8150 N.3   1272  YM71272    -0.2180
      4  CAH       16.2640   -4.0430   14.0080 C.3   1272  YM71272     0.0888
      5  CAJ       16.5820   -4.1300   12.5420 C.3   1272  YM71272     0.0231
      6  CAW       17.2890   -2.9440   12.0570 C.3   1272  YM71272     0.0541
      7  CAK       17.7380   -3.1580   10.5620 C.3   1272  YM71272     0.2508
      8  NAQ       18.5570   -2.1370    9.9390 N.pl3 1272  YM71272    -0.0350
      9  C6        17.9950   -0.8370    9.4810 C.2   1272  YM71272     0.3493
     10  C5        16.5890   -0.4980    9.7230 C.3   1272  YM71272     0.2413
     11  N1        18.7800    0.0120    8.8110 N.2   1272  YM71272    -0.0077
     12  C2        18.2820    1.1880    8.3480 C.3   1272  YM71272     0.5247
     13  N3        16.9250    1.5520    8.5670 N.2   1272  YM71272    -0.0071
     14  C4        16.1070    0.7530    9.2300 C.2   1272  YM71272     0.3578
     15  NAR       14.8090    1.1580    9.4230 N.pl3 1272  YM71272     0.0334
     16  CAT       13.8640    0.5370   10.3700 C.2   1272  YM71272     0.3656
     17  CAE       12.7430    1.2820   10.8050 C.3   1272  YM71272     0.2464
     18  NAN       11.8460    0.7270   11.6580 N.2   1272  YM71272    -0.2474
     19  CAS       12.0330   -0.5250   12.0800 C.2   1272  YM71272     0.1759
     20  CAB       11.0470   -1.1710   12.9890 C.1   1272  YM71272     0.1194
     21  NAA       10.2720   -1.6600   13.6530 N.1   1272  YM71272    -0.1895
     22  CAD       13.1680   -1.2860   11.6330 C.3   1272  YM71272     0.3183
     23  NAO       14.0500   -0.7370   10.7950 N.2   1272  YM71272    -0.0563
@<TRIPOS>BOND
     1    12    13    1
     2    12    11    1
     3    13    14    2
     4    11     9    2
     5    14    15    1
     6    14    10    1
     7    15    16    1
     8     9    10    1
     9     9     8    1
    10     8     7    1
    11    16    23    2
    12    16    17    1
    13     7     6    1
    14    23    22    1
    15    17    18    1
    16    22    19    1
    17    18    19    2
    18     6     5    1
    19     6     1    1
    20    19    20    1
    21     5     4    1
    22     1     2    1
    23    20    21    3
    24     4     3    1
    25     2     3    1
