@<TRIPOS>MOLECULE
2ym8_YM8_A_1.pdb
 27 29 0 0 0
SMALL
GASTEIGER

@<TRIPOS>ATOM
      1  CAA       15.1990   -3.3210   11.2440 C.3   1271  YM81271     0.0488
      2  CAB       15.3130   -3.9110   16.0280 C.3   1271  YM81271     0.0898
      3  CAC       15.6290   -1.7460   15.0200 C.3   1271  YM81271     0.0898
      4  NAD       10.1130   -1.8040   13.6000 N.1   1271  YM81271    -0.1891
      5 CL         20.6760    0.9060    7.4620 Cl    1271  YM81271    -0.0824
      6  CAF       10.8770   -1.3100   12.9130 C.1   1271  YM81271     0.1254
      7  CAG       19.7620   -1.9840   10.0760 C.ar  1271  YM81271     0.0005
      8  CAH       20.4560   -1.1750    9.1820 C.ar  1271  YM81271     0.0112
      9  CAI       18.4260   -1.7230   10.3630 C.ar  1271  YM81271    -0.0038
     10  CAJ       12.4270    0.9940   10.5920 C.3   1271  YM81271     0.2321
     11  CAK       17.8180    1.2220    8.2660 C.3   1271  YM81271     0.2901
     12  CAL       16.4490   -0.3680   10.0220 C.3   1271  YM81271     0.1473
     13  CAM       15.2830   -3.6260   13.6120 C.3   1271  YM81271     0.1163
     14  NAN       11.5370    0.4300   11.3880 N.2   1271  YM81271    -0.2435
     15  NAO       16.5490    1.4730    8.5440 N.2   1271  YM81271    -0.0603
     16  NAP       14.0070   -0.6810   11.0940 N.2   1271  YM81271    -0.3268
     17  NAQ       14.5570    1.0550    9.6150 N.pl3 1271  YM81271     0.0207
     18  OAR       13.4210   -2.4050   12.5800 O.2   1271  YM81271    -0.4525
     19  CAS       19.8130   -0.1020    8.5750 C.ar  1271  YM81271     0.0576
     20  CAT       11.8490   -0.6910   12.0560 C.2   1271  YM81271     0.2112
     21  CAU       13.6840    0.4250   10.4110 C.2   1271  YM81271     0.3190
     22  CAV       15.8320    0.7050    9.3810 C.2   1271  YM81271     0.3441
     23  CAW       13.0940   -1.2860   11.8690 C.2   1271  YM81271     0.3082
     24  CAX       17.7850   -0.6490    9.7550 C.ar  1271  YM81271    -0.0090
     25  CAY       18.4770    0.1570    8.8650 C.ar  1271  YM81271     0.0380
     26  CAZ       14.8450   -2.6230   12.5590 C.3   1271  YM81271     0.1846
     27  NBA       14.9300   -3.0350   14.9130 N.3   1271  YM81271    -0.2673
@<TRIPOS>BOND
     1     5    19    1
     2    11    15    1
     3    11    25    1
     4    15    22    2
     5    19    25   ar
     6    19     8   ar
     7    25    24   ar
     8     8     7   ar
     9    22    17    1
    10    22    12    1
    11    17    21    1
    12    24    12    1
    13    24     9   ar
    14     7     9   ar
    15    21    10    1
    16    21    16    2
    17    10    14    1
    18    16    23    2
    19     1    26    1
    20    14    20    2
    21    23    20    1
    22    23    18    1
    23    20     6    1
    24    26    18    1
    25    26    13    1
    26     6     4    3
    27    13    27    1
    28    27     3    1
    29    27     2    1
