@<TRIPOS>MOLECULE
2ymd_SRO_A_1.pdb
 13 14 0 0 0
SMALL
GASTEIGER

@<TRIPOS>ATOM
      1  OH        13.3780   10.1350   11.2250 O.2   1213  SRO1213    -0.2869
      2  CZ3       13.4310    9.8820    9.8610 C.2   1213  SRO1213     0.1919
      3  CH2       14.4460   10.4260    9.0570 C.2   1213  SRO1213     0.0222
      4  CZ2       14.4950   10.1570    7.6890 C.3   1213  SRO1213     0.0751
      5  CE2       13.5050    9.3390    7.0960 C.2   1213  SRO1213     0.0633
      6  NE1       13.3170    8.9130    5.7900 N.2   1213  SRO1213    -0.2482
      7  CD1       12.2180    8.1310    5.7330 C.2   1213  SRO1213     0.0942
      8  CG        11.6900    8.0390    7.0200 C.2   1213  SRO1213    -0.0003
      9  CD2       12.5130    8.8020    7.8810 C.2   1213  SRO1213     0.0146
     10  CE3       12.4670    9.0660    9.2710 C.2   1213  SRO1213     0.0426
     11  CB        10.4800    7.2870    7.4570 C.3   1213  SRO1213     0.0485
     12  CA        10.4300    5.8300    7.1780 C.3   1213  SRO1213     0.1140
     13  NZ        11.4690    5.0270    7.7460 N.3   1213  SRO1213    -0.1310
@<TRIPOS>BOND
     1     7     6    1
     2     7     8    2
     3     6     5    2
     4     8    11    1
     5     8     9    1
     6     5     4    1
     7     5     9    1
     8    12    11    1
     9    12    13    1
    10     4     3    1
    11     9    10    2
    12     3     2    2
    13    10     2    1
    14     2     1    1
