@<TRIPOS>MOLECULE
2yme_CWB_A_1.pdb
 23 26 0 0 0
SMALL
GASTEIGER

@<TRIPOS>ATOM
      1  O13       55.8880   -7.4460   70.8620 O.2   1207  CWB1207    -0.2666
      2  C12       54.7590   -7.5690   71.3730 C.2   1207  CWB1207     0.2842
      3  C14       54.3430   -8.9000   72.0380 C.ar  1207  CWB1207     0.1570
      4  C23       55.1910  -10.1160   72.1950 C.ar  1207  CWB1207     0.0412
      5  C22       56.5080  -10.4570   71.8370 C.ar  1207  CWB1207     0.0032
      6  C21       57.0070  -11.7440   72.1510 C.ar  1207  CWB1207     0.0001
      7  C20       56.1820  -12.6730   72.8280 C.ar  1207  CWB1207     0.0015
      8  C19       54.8600  -12.3280   73.1930 C.ar  1207  CWB1207     0.0188
      9  C18       54.3600  -11.0570   72.8740 C.ar  1207  CWB1207     0.0795
     10  N16       53.1380  -10.4420   73.0950 N.ar  1207  CWB1207    -0.2487
     11  C17       51.9910  -11.0660   73.7550 C.3   1207  CWB1207     0.1537
     12  N15       53.1500   -9.1800   72.6010 N.ar  1207  CWB1207    -0.1645
     13  N11       53.7550   -6.5120   71.2750 N.am  1207  CWB1207    -0.2020
     14  C09       54.0270   -5.2120   70.6650 C.3   1207  CWB1207     0.0984
     15  C10       54.8140   -4.5420   71.6560 C.3   1207  CWB1207     0.0377
     16  C03       54.2150   -3.3770   72.3800 C.3   1207  CWB1207     0.0592
     17  C08       52.6540   -4.6970   70.3470 C.3   1207  CWB1207     0.0377
     18  C07       52.1450   -3.5530   71.1500 C.3   1207  CWB1207     0.0592
     19  N02       53.1730   -2.6670   71.6090 N.3   1207  CWB1207    -0.2740
     20  C01       52.6850   -1.4150   72.0470 C.3   1207  CWB1207     0.0896
     21  C06       51.3520   -4.0470   72.3730 C.3   1207  CWB1207     0.0161
     22  C05       52.2730   -4.5730   73.4900 C.3   1207  CWB1207     0.0028
     23  C04       53.5850   -3.8270   73.6420 C.3   1207  CWB1207     0.0161
@<TRIPOS>BOND
     1    17    14    1
     2    17    18    1
     3    14    13    1
     4    14    15    1
     5     1     2    2
     6    18    19    1
     7    18    21    1
     8    13     2   am
     9     2     3    1
    10    19    20    1
    11    19    16    1
    12    15    16    1
    13     5     6   ar
    14     5     4   ar
    15     3     4   ar
    16     3    12   ar
    17     6     7   ar
    18     4     9   ar
    19    21    22    1
    20    16    23    1
    21    12    10   ar
    22     7     8   ar
    23     9    10   ar
    24     9     8   ar
    25    10    11    1
    26    22    23    1
