@<TRIPOS>MOLECULE
2ymv_FNR_A_1.pdb
 31 33 0 0 0
SMALL
GASTEIGER

@<TRIPOS>ATOM
      1  C9A      -60.7230   50.5640  -16.3990 C.3   1330  FNR1330     0.1497
      2  N10      -60.8790   49.5900  -17.4140 N.pl3 1330  FNR1330    -0.2691
      3  CAA      -62.0560   48.8280  -17.3940 C.2   1330  FNR1330     0.2416
      4  N1       -62.1230   47.7220  -18.0850 N.2   1330  FNR1330    -0.2890
      5  C2       -63.2780   46.9800  -18.0360 C.1   1330  FNR1330     0.3669
      6  O2       -63.3660   45.8810  -18.6310 O.2   1330  FNR1330    -0.1744
      7  N3       -64.3350   47.5020  -17.3680 N.2   1330  FNR1330    -0.2300
      8  C4       -64.3570   48.7160  -16.7800 C.1   1330  FNR1330     0.2513
      9  O4       -65.4310   49.1430  -16.2500 O.2   1330  FNR1330    -0.2057
     10  C4A      -63.1810   49.4050  -16.8310 C.2   1330  FNR1330     0.2700
     11  N5       -63.1610   50.7520  -16.3460 N.2   1330  FNR1330    -0.3878
     12  C5A      -61.8540   51.2130  -15.9030 C.2   1330  FNR1330     0.1320
     13  C6       -61.7250   52.2800  -14.9920 C.2   1330  FNR1330     0.0250
     14  C7       -60.4930   52.7680  -14.6060 C.2   1330  FNR1330    -0.0238
     15  C7M      -60.4600   53.8730  -13.5420 C.3   1330  FNR1330     0.0308
     16  C8       -59.3620   52.0860  -15.0190 C.2   1330  FNR1330    -0.0280
     17  C8M      -58.0140   52.4780  -14.5120 C.3   1330  FNR1330     0.0304
     18  C9       -59.4620   51.0210  -15.9820 C.2   1330  FNR1330    -0.0041
     19  C1'      -59.6760   49.0980  -18.0680 C.3   1330  FNR1330     0.1294
     20  C2'      -59.2500   49.9820  -19.1920 C.3   1330  FNR1330     0.2044
     21  O2'      -60.1970   50.0700  -20.2590 O.3   1330  FNR1330    -0.2185
     22  C3'      -57.8650   49.6880  -19.6620 C.3   1330  FNR1330     0.2164
     23  O3'      -56.9710   49.8930  -18.5780 O.3   1330  FNR1330    -0.2175
     24  C4'      -57.3860   50.4840  -20.8650 C.3   1330  FNR1330     0.2147
     25  O4'      -58.1900   50.2250  -22.0030 O.3   1330  FNR1330    -0.2176
     26  C5'      -55.9360   50.2440  -21.2920 C.3   1330  FNR1330     0.1892
     27  O5'      -55.7950   48.8490  -21.5610 O.3   1330  FNR1330    -0.2674
     28  P        -54.7870   47.9460  -20.7160 P.3   1330  FNR1330     0.5327
     29  O1P      -55.2590   47.9850  -19.2590 O.3   1330  FNR1330    -0.1145
     30  O2P      -54.8050   46.5630  -21.2920 O.2   1330  FNR1330    -0.2224
     31  O3P      -53.3800   48.5400  -20.7680 O.3   1330  FNR1330    -0.1145
@<TRIPOS>BOND
     1    25    24    1
     2    27    26    1
     3    27    28    1
     4    30    28    2
     5    26    24    1
     6    24    22    1
     7    31    28    1
     8    28    29    1
     9    21    20    1
    10    22    20    1
    11    22    23    1
    12    20    19    1
    13     6     5    2
    14     4     5    2
    15     4     3    2
    16    19     2    1
    17     5     7    2
    18     2     3    1
    19     2     1    1
    20     3    10    1
    21     7     8    2
    22    10     8    1
    23    10    11    2
    24     8     9    2
    25     1    18    1
    26     1    12    1
    27    11    12    2
    28    18    16    2
    29    12    13    1
    30    16    14    1
    31    16    17    1
    32    13    14    2
    33    14    15    1
