@<TRIPOS>MOLECULE
2ynf_WHU_A_1.pdb
 29 31 0 0 0
SMALL
GASTEIGER

@<TRIPOS>ATOM
      1  N01       -6.1530   71.6100   13.1880 N.pl3 1563  WHU1563    -0.0232
      2  C02       -6.1020   70.3960   13.8540 C.1   1563  WHU1563     0.2426
      3  N03       -5.7730   70.2760   15.1310 N.2   1563  WHU1563    -0.3112
      4  C04       -5.8280   68.9360   15.3920 C.2   1563  WHU1563     0.2375
      5 CL         -5.4620   68.3830   16.9820 Cl    1563  WHU1563    -0.0444
      6  C06       -6.1540   68.1750   14.2940 C.2   1563  WHU1563     0.2409
      7  N07       -6.3620   69.1680   13.2940 N.2   1563  WHU1563    -0.3174
      8  C08       -6.4070   66.7330   14.1120 C.2   1563  WHU1563     0.2993
      9  O09       -6.8640   66.2840   13.0590 O.2   1563  WHU1563    -0.2654
     10  N10       -6.1600   65.9070   15.2160 N.am  1563  WHU1563    -0.1944
     11  C11       -6.4900   64.4660   15.2240 C.3   1563  WHU1563     0.1442
     12  C12       -8.0060   64.4890   15.3370 C.ar  1563  WHU1563     0.0300
     13  C13       -8.8630   64.2210   14.2740 C.ar  1563  WHU1563     0.0004
     14  C14      -10.2560   64.3150   14.4040 C.ar  1563  WHU1563     0.0096
     15  C15      -10.7640   64.7450   15.6270 C.ar  1563  WHU1563     0.0713
     16 BR        -12.5530   65.0170   16.1530 Br    1563  WHU1563    -0.0457
     17  C17       -9.9570   65.0300   16.6670 C.ar  1563  WHU1563     0.1783
     18  O18      -10.5950   65.4140   17.8120 O.3   1563  WHU1563    -0.4507
     19  C19      -10.2560   64.9040   19.0520 C.ar  1563  WHU1563     0.1469
     20  C20      -10.1940   63.5080   19.1610 C.ar  1563  WHU1563     0.0489
     21  C21       -9.9100   62.9340   20.3920 C.ar  1563  WHU1563     0.0614
     22 CL2        -9.8070   61.1880   20.5710 Cl    1563  WHU1563    -0.0821
     23  C23       -9.6890   63.7180   21.5110 C.ar  1563  WHU1563     0.0219
     24  C24       -9.7710   65.1090   21.3650 C.ar  1563  WHU1563     0.0723
     25  C27      -10.0430   65.7210   20.1450 C.ar  1563  WHU1563     0.0478
     26  C25       -9.5460   65.8660   22.5500 C.1   1563  WHU1563     0.1005
     27  N26       -9.3600   66.4600   23.5220 N.1   1563  WHU1563    -0.1908
     28  C28       -8.5940   64.9100   16.5200 C.ar  1563  WHU1563     0.1725
     29  F29       -7.8380   65.2300   17.5930 F     1563  WHU1563    -0.2012
@<TRIPOS>BOND
     1     9     8    2
     2     1     2    1
     3     7     2    2
     4     7     6    2
     5     2     3    2
     6     8     6    1
     7     8    10   am
     8    13    14   ar
     9    13    12   ar
    10     6     4    1
    11    14    15   ar
    12     3     4    2
    13    10    11    1
    14    11    12    1
    15    12    28   ar
    16     4     5    1
    17    15    16    1
    18    15    17   ar
    19    28    17   ar
    20    28    29    1
    21    17    18    1
    22    18    19    1
    23    19    20   ar
    24    19    25   ar
    25    20    21   ar
    26    25    24   ar
    27    21    22    1
    28    21    23   ar
    29    24    23   ar
    30    24    26    1
    31    26    27    3
