@<TRIPOS>MOLECULE
2yng_WHU_A_1.pdb
 29 31 0 0 0
SMALL
GASTEIGER

@<TRIPOS>ATOM
      1  N01       -6.0130   71.4370   13.5070 N.pl3 1563  WHU1563    -0.0232
      2  C02       -5.9530   70.2880   14.2890 C.1   1563  WHU1563     0.2426
      3  N03       -5.6690   70.2350   15.5850 N.2   1563  WHU1563    -0.3112
      4  C04       -5.7090   68.8980   15.8990 C.2   1563  WHU1563     0.2375
      5 CL         -5.3830   68.3900   17.5180 Cl    1563  WHU1563    -0.0444
      6  C06       -5.9680   68.1060   14.8020 C.2   1563  WHU1563     0.2409
      7  N07       -6.1570   69.0400   13.7770 N.2   1563  WHU1563    -0.3174
      8  C08       -6.2100   66.6750   14.5850 C.2   1563  WHU1563     0.2993
      9  O09       -6.6720   66.2650   13.5350 O.2   1563  WHU1563    -0.2654
     10  N10       -5.9810   65.8230   15.6520 N.am  1563  WHU1563    -0.1944
     11  C11       -6.3430   64.4050   15.5750 C.3   1563  WHU1563     0.1442
     12  C12       -7.8490   64.5040   15.6790 C.ar  1563  WHU1563     0.0300
     13  C13       -8.7200   64.2160   14.6470 C.ar  1563  WHU1563     0.0004
     14  C14      -10.0990   64.3520   14.7890 C.ar  1563  WHU1563     0.0096
     15  C15      -10.5990   64.8390   15.9960 C.ar  1563  WHU1563     0.0713
     16 BR        -12.4380   65.0830   16.2370 Br    1563  WHU1563    -0.0457
     17  C17       -9.7720   65.1550   17.0490 C.ar  1563  WHU1563     0.1783
     18  O18      -10.2570   65.6290   18.2460 O.3   1563  WHU1563    -0.4507
     19  C19      -10.1040   64.9790   19.4420 C.ar  1563  WHU1563     0.1469
     20  C20      -10.1780   63.5640   19.4810 C.ar  1563  WHU1563     0.0489
     21  C21      -10.0240   62.9180   20.7100 C.ar  1563  WHU1563     0.0614
     22 CL2       -10.0990   61.1610   20.8500 Cl    1563  WHU1563    -0.0821
     23  C23       -9.8190   63.6510   21.8700 C.ar  1563  WHU1563     0.0219
     24  C24       -9.7720   65.0570   21.7760 C.ar  1563  WHU1563     0.0723
     25  C27       -9.8980   65.7360   20.5710 C.ar  1563  WHU1563     0.0478
     26  C25       -9.5620   65.8510   22.9370 C.1   1563  WHU1563     0.1005
     27  N26       -9.3920   66.4930   23.8750 N.1   1563  WHU1563    -0.1908
     28  C28       -8.4270   64.9970   16.8550 C.ar  1563  WHU1563     0.1725
     29  F29       -7.6460   65.3210   17.8950 F     1563  WHU1563    -0.2012
@<TRIPOS>BOND
     1     1     2    1
     2     9     8    2
     3     7     2    2
     4     7     6    2
     5     2     3    2
     6     8     6    1
     7     8    10   am
     8    13    14   ar
     9    13    12   ar
    10    14    15   ar
    11     6     4    1
    12    11    10    1
    13    11    12    1
    14     3     4    2
    15    12    28   ar
    16     4     5    1
    17    15    16    1
    18    15    17   ar
    19    28    17   ar
    20    28    29    1
    21    17    18    1
    22    18    19    1
    23    19    20   ar
    24    19    25   ar
    25    20    21   ar
    26    25    24   ar
    27    21    22    1
    28    21    23   ar
    29    24    23   ar
    30    24    26    1
    31    26    27    3
