@<TRIPOS>MOLECULE
2ynh_EUR_A_1.pdb
 30 32 0 0 0
SMALL
GASTEIGER

@<TRIPOS>ATOM
      1  O01       -5.8020   71.5470   12.0080 O.3   1560  EUR1560    -0.2004
      2  C02       -5.7310   71.8580   13.3900 C.3   1560  EUR1560     0.3051
      3  C03       -5.7320   70.5520   14.1230 C.1   1560  EUR1560     0.1490
      4  N04       -5.4120   70.4060   15.3950 N.2   1560  EUR1560    -0.3267
      5  C05       -5.5460   69.0810   15.6570 C.2   1560  EUR1560     0.2360
      6 CL1        -5.1980   68.4750   17.2460 Cl    1560  EUR1560    -0.0444
      7  C07       -5.9300   68.3830   14.5220 C.2   1560  EUR1560     0.2393
      8  N08       -6.0650   69.3700   13.5520 N.2   1560  EUR1560    -0.3330
      9  C09       -6.2390   66.9740   14.3070 C.2   1560  EUR1560     0.2993
     10  O10       -6.7740   66.5650   13.2770 O.2   1560  EUR1560    -0.2654
     11  N11       -5.9060   66.1540   15.3730 N.am  1560  EUR1560    -0.1944
     12  C12       -6.2370   64.7340   15.3640 C.3   1560  EUR1560     0.1442
     13  C13       -7.7440   64.7540   15.5120 C.ar  1560  EUR1560     0.0300
     14  C14       -8.6060   64.3550   14.4890 C.ar  1560  EUR1560     0.0007
     15  C15       -9.9860   64.4140   14.6410 C.ar  1560  EUR1560     0.0144
     16  C16      -10.5000   64.9100   15.8340 C.ar  1560  EUR1560     0.0943
     17 CL2       -12.1990   65.0360   16.1200 Cl    1560  EUR1560    -0.0790
     18  C18       -9.6790   65.3320   16.8650 C.ar  1560  EUR1560     0.1827
     19  O19      -10.2480   65.8100   18.0180 O.3   1560  EUR1560    -0.4503
     20  C20      -10.1240   65.2270   19.2560 C.ar  1560  EUR1560     0.1470
     21  C21      -10.1920   63.8370   19.3210 C.ar  1560  EUR1560     0.0489
     22  C22      -10.0830   63.2280   20.5630 C.ar  1560  EUR1560     0.0614
     23 CL3       -10.1660   61.4890   20.6400 Cl    1560  EUR1560    -0.0821
     24  C24       -9.9130   63.9420   21.7400 C.ar  1560  EUR1560     0.0219
     25  C25       -9.8590   65.3310   21.6410 C.ar  1560  EUR1560     0.0723
     26  C28       -9.9640   65.9830   20.4080 C.ar  1560  EUR1560     0.0478
     27  C26       -9.6870   66.1290   22.8120 C.1   1560  EUR1560     0.1005
     28  N27       -9.5490   66.8070   23.7430 N.1   1560  EUR1560    -0.1908
     29  C29       -8.3100   65.2600   16.6780 C.ar  1560  EUR1560     0.1729
     30  F30       -7.5360   65.6780   17.7020 F     1560  EUR1560    -0.2012
@<TRIPOS>BOND
     1     1     2    1
     2    10     9    2
     3     2     3    1
     4     8     3    2
     5     8     7    2
     6     3     4    2
     7     9     7    1
     8     9    11   am
     9    14    15   ar
    10    14    13   ar
    11     7     5    1
    12    15    16   ar
    13    12    11    1
    14    12    13    1
    15     4     5    2
    16    13    29   ar
    17     5     6    1
    18    16    17    1
    19    16    18   ar
    20    29    18   ar
    21    29    30    1
    22    18    19    1
    23    19    20    1
    24    20    21   ar
    25    20    26   ar
    26    21    22   ar
    27    26    25   ar
    28    22    23    1
    29    22    24   ar
    30    25    24   ar
    31    25    27    1
    32    27    28    3
