@<TRIPOS>MOLECULE
2yni_CXD_A_1.pdb
 28 30 0 0 0
SMALL
GASTEIGER

@<TRIPOS>ATOM
      1  F01       -7.7170   65.5250   17.7770 F     1561  CXD1561    -0.2012
      2  C02       -8.4750   65.1590   16.7240 C.ar  1561  CXD1561     0.1729
      3  C03       -7.8880   64.6890   15.5520 C.ar  1561  CXD1561     0.0300
      4  C04       -6.3700   64.6670   15.4310 C.3   1561  CXD1561     0.1442
      5  N05       -6.0520   66.1010   15.3980 N.am  1561  CXD1561    -0.1954
      6  C06       -6.2890   66.8660   14.2620 C.2   1561  CXD1561     0.2848
      7  O07       -6.7130   66.3970   13.2090 O.2   1561  CXD1561    -0.2666
      8  C08       -6.0260   68.3030   14.4020 C.2   1561  CXD1561     0.1610
      9  N09       -6.1610   69.2130   13.3500 N.2   1561  CXD1561    -0.2372
     10  C10       -5.8920   70.4440   13.8340 C.3   1561  CXD1561     0.2517
     11  N11       -5.6130   70.4020   15.1240 N.2   1561  CXD1561    -0.2310
     12  C12       -5.7100   69.0920   15.4930 C.2   1561  CXD1561     0.1570
     13 CL1        -5.4060   68.5800   17.1250 Cl    1561  CXD1561    -0.0600
     14  C14       -8.7570   64.3510   14.5010 C.ar  1561  CXD1561     0.0007
     15  C15      -10.1470   64.4320   14.6390 C.ar  1561  CXD1561     0.0144
     16  C16      -10.6780   64.8930   15.8450 C.ar  1561  CXD1561     0.0943
     17 CL2       -12.3790   65.0410   16.1500 Cl    1561  CXD1561    -0.0790
     18  C18       -9.8500   65.2530   16.8900 C.ar  1561  CXD1561     0.1827
     19  O19      -10.4160   65.6850   18.0600 O.3   1561  CXD1561    -0.4503
     20  C20      -10.2150   65.0790   19.2820 C.ar  1561  CXD1561     0.1470
     21  C21      -10.2760   63.6750   19.3430 C.ar  1561  CXD1561     0.0489
     22  C22      -10.0860   63.0520   20.5790 C.ar  1561  CXD1561     0.0614
     23 CL3       -10.1360   61.3040   20.7020 Cl    1561  CXD1561    -0.0821
     24  C24       -9.8460   63.7830   21.7360 C.ar  1561  CXD1561     0.0219
     25  C25       -9.7950   65.1840   21.6380 C.ar  1561  CXD1561     0.0723
     26  C28       -9.9790   65.8430   20.4170 C.ar  1561  CXD1561     0.0478
     27  C26       -9.5500   65.9650   22.8100 C.1   1561  CXD1561     0.1005
     28  N27       -9.3580   66.6230   23.7410 N.1   1561  CXD1561    -0.1908
@<TRIPOS>BOND
     1     7     6    2
     2     9    10    1
     3     9     8    2
     4    10    11    1
     5     6     8    1
     6     6     5   am
     7     8    12    1
     8    14    15   ar
     9    14     3   ar
    10    15    16   ar
    11    11    12    2
    12     5     4    1
    13     4     3    1
    14    12    13    1
    15     3     2   ar
    16    16    17    1
    17    16    18   ar
    18     2    18   ar
    19     2     1    1
    20    18    19    1
    21    19    20    1
    22    20    21   ar
    23    20    26   ar
    24    21    22   ar
    25    26    25   ar
    26    22    23    1
    27    22    24   ar
    28    25    24   ar
    29    25    27    1
    30    27    28    3
