@<TRIPOS>MOLECULE
2ynj_AGS_A_1.pdb
 31 33 0 0 0
SMALL
GASTEIGER

@<TRIPOS>ATOM
      1  PG        49.0950    2.5990   27.3970 P.3   549  AGS549      0.4340
      2  S1G       48.1450    1.9680   28.9970 S.3   549  AGS549      0.0416
      3  O2G       50.4060    3.0850   27.8950 O.3   549  AGS549     -0.1305
      4  O3G       48.2050    3.5220   26.6470 O.2   549  AGS549     -0.2423
      5  PB        50.6250    1.0290   25.5760 P.3   549  AGS549      0.2262
      6  O1B       51.8350    1.0790   26.4130 O.3   549  AGS549     -0.4369
      7  O2B       50.3480   -0.1910   24.8010 O.2   549  AGS549     -0.5168
      8  O3B       49.3120    1.2530   26.5180 O.3   549  AGS549     -0.2405
      9  PA        51.6240    3.5360   24.5080 P.3   549  AGS549      0.2189
     10  O1A       50.9300    4.7200   23.9550 O.2   549  AGS549     -0.5170
     11  O2A       52.2880    3.6430   25.8270 O.3   549  AGS549     -0.4371
     12  O3A       50.5760    2.2850   24.5330 O.3   549  AGS549     -0.2701
     13  O5'       52.6640    3.0460   23.4060 O.3   549  AGS549     -0.3112
     14  C5'       53.8480    2.3660   23.8210 C.3   549  AGS549      0.1813
     15  C4'       54.9060    2.3170   22.7160 C.3   549  AGS549      0.1821
     16  O4'       55.3650    3.6260   22.3900 O.3   549  AGS549     -0.3135
     17  C3'       56.1180    1.6420   23.3490 C.3   549  AGS549      0.2184
     18  O3'       56.2170    0.3070   22.8450 O.3   549  AGS549     -0.2174
     19  C2'       57.3040    2.4740   22.8720 C.3   549  AGS549      0.2570
     20  O2'       58.2110    1.6280   22.1870 O.3   549  AGS549     -0.2130
     21  C1'       56.6790    3.4240   21.8670 C.3   549  AGS549      0.3186
     22  N9        57.3740    4.7400   21.8170 N.pl3 549  AGS549     -0.1439
     23  C8        57.5260    5.6090   22.8210 C.3   549  AGS549      0.3377
     24  N7        58.1890    6.6770   22.3830 N.2   549  AGS549     -0.2095
     25  C5        58.4570    6.4900   21.0970 C.2   549  AGS549      0.2526
     26  C6        59.1070    7.2420   20.1290 C.2   549  AGS549      0.4393
     27  N6        59.6240    8.4280   20.4230 N.pl3 549  AGS549      0.2180
     28  N1        59.2080    6.7510   18.8860 N.2   549  AGS549      0.0021
     29  C2        58.6970    5.5660   18.5740 C.3   549  AGS549      0.5254
     30  N3        58.0700    4.8250   19.4730 N.2   549  AGS549     -0.0055
     31  C4        57.9360    5.2610   20.7370 C.2   549  AGS549      0.3518
@<TRIPOS>BOND
     1    29    28    1
     2    29    30    1
     3    28    26    2
     4    30    31    2
     5    26    27    1
     6    26    25    1
     7    31    25    1
     8    31    22    1
     9    25    24    2
    10    22    21    1
    11    22    23    1
    12    21    16    1
    13    21    19    1
    14    20    19    1
    15    24    23    1
    16    16    15    1
    17    15    17    1
    18    15    14    1
    19    18    17    1
    20    19    17    1
    21    13    14    1
    22    13     9    1
    23    10     9    2
    24     9    12    1
    25     9    11    1
    26    12     5    1
    27     7     5    2
    28     5     6    1
    29     5     8    1
    30     8     1    1
    31     4     1    2
    32     1     3    1
    33     1     2    1
