@<TRIPOS>MOLECULE
2ynm_ADP_A_1.pdb
 27 29 0 0 0
SMALL
GASTEIGER

@<TRIPOS>ATOM
      1  PB        61.6170   35.8610   -6.6530 P.3   1300  ADP1300     0.5373
      2  O1B       62.4030   36.6390   -7.6820 O.2   1300  ADP1300    -0.2221
      3  O2B       61.1870   34.4940   -7.1250 O.3   1300  ADP1300    -0.1143
      4  O3B       60.5480   36.6680   -5.9540 O.3   1300  ADP1300    -0.1143
      5  PA        62.3180   35.2170   -3.9770 P.3   1300  ADP1300     0.2231
      6  O1A       62.1000   36.5620   -3.3200 O.3   1300  ADP1300    -0.4370
      7  O2A       61.2390   34.1650   -3.9440 O.2   1300  ADP1300    -0.5169
      8  O3A       62.7120   35.4870   -5.5220 O.3   1300  ADP1300    -0.2261
      9  O5'       63.6520   34.5800   -3.3580 O.3   1300  ADP1300    -0.3111
     10  C5'       64.2200   33.3970   -3.9030 C.3   1300  ADP1300     0.1813
     11  C4'       65.2720   32.8970   -2.9220 C.3   1300  ADP1300     0.1821
     12  O4'       66.5350   33.4990   -3.2090 O.3   1300  ADP1300    -0.3135
     13  C3'       64.9390   33.2680   -1.4830 C.3   1300  ADP1300     0.2184
     14  O3'       64.3100   32.1840   -0.7860 O.3   1300  ADP1300    -0.2174
     15  C2'       66.2740   33.5960   -0.8470 C.3   1300  ADP1300     0.2570
     16  O2'       66.6630   32.5130    0.0010 O.3   1300  ADP1300    -0.2130
     17  C1'       67.2630   33.6980   -1.9960 C.3   1300  ADP1300     0.3186
     18  N9        67.9270   35.0270   -2.0120 N.pl3 1300  ADP1300    -0.1439
     19  C8        67.4230   36.1610   -2.5390 C.3   1300  ADP1300     0.3377
     20  N7        68.2910   37.1950   -2.3910 N.2   1300  ADP1300    -0.2095
     21  C5        69.3800   36.7220   -1.7560 C.2   1300  ADP1300     0.2526
     22  C6        70.6740   37.2730   -1.2860 C.2   1300  ADP1300     0.4393
     23  N6        70.9930   38.5760   -1.4680 N.pl3 1300  ADP1300     0.2180
     24  N1        71.5290   36.4280   -0.6670 N.2   1300  ADP1300     0.0021
     25  C2        71.2360   35.1280   -0.4770 C.3   1300  ADP1300     0.5254
     26  N3        70.0850   34.5600   -0.8760 N.2   1300  ADP1300    -0.0055
     27  C4        69.1340   35.2910   -1.5080 C.2   1300  ADP1300     0.3518
@<TRIPOS>BOND
     1     2     1    2
     2     3     1    1
     3     1     4    1
     4     1     8    1
     5     8     5    1
     6     5     7    2
     7     5     9    1
     8     5     6    1
     9    10     9    1
    10    10    11    1
    11    12    11    1
    12    12    17    1
    13    11    13    1
    14    19    20    1
    15    19    18    1
    16    20    21    2
    17    18    17    1
    18    18    27    1
    19    17    15    1
    20    21    27    1
    21    21    22    1
    22    27    26    2
    23    13    15    1
    24    13    14    1
    25    23    22    1
    26    22    24    2
    27    26    25    1
    28    15    16    1
    29    24    25    1
