@<TRIPOS>MOLECULE
2ynm_PMR_C_1.pdb
 45 51 0 0 0
SMALL
GASTEIGER

@<TRIPOS>ATOM
      1 MG         22.2490   32.9850  -40.5390 Mg    1414  PMR1414     0.0000
      2  CBB       25.5680   34.3800  -35.4460 C.2   1414  PMR1414     0.0000
      3  CAB       25.1990   35.3600  -36.2460 C.2   1414  PMR1414     0.0000
      4  C3B       24.0890   35.1800  -37.2160 C.ar  1414  PMR1414     0.0000
      5  C2B       22.9010   36.0190  -37.3870 C.ar  1414  PMR1414     0.0000
      6  CMB       22.4770   37.2470  -36.6260 C.3   1414  PMR1414     0.0000
      7  C1B       22.2240   35.3160  -38.5130 C.ar  1414  PMR1414     0.0000
      8  CHB       20.9450   35.7910  -39.0500 C.2   1414  PMR1414     0.0000
      9  NB        22.8400   34.2160  -39.0040 N.ar  1414  PMR1414     0.0000
     10  C4B       23.9580   34.1300  -38.2510 C.ar  1414  PMR1414     0.0000
     11  CHC       24.9510   33.0660  -38.4160 C.2   1414  PMR1414     0.0000
     12  C1C       24.9080   31.9640  -39.3790 C.2   1414  PMR1414     0.0000
     13  NC        23.9140   31.8000  -40.2700 N.2   1414  PMR1414     0.0000
     14  C2C       25.9920   30.9590  -39.4090 C.2   1414  PMR1414     0.0000
     15  CMC       27.1890   30.9430  -38.4980 C.3   1414  PMR1414     0.0000
     16  C3C       25.5720   30.0500  -40.4970 C.2   1414  PMR1414     0.0000
     17  CAC       26.1930   28.8060  -41.1060 C.3   1414  PMR1414     0.0000
     18  CBC       27.0980   28.0190  -40.1870 C.3   1414  PMR1414     0.0000
     19  C4C       24.3070   30.6830  -40.9430 C.1   1414  PMR1414     0.0000
     20  CHD       23.5570   30.0770  -42.0520 C.2   1414  PMR1414     0.0000
     21  C1D       22.3690   30.6730  -42.6660 C.ar  1414  PMR1414     0.0000
     22  C2D       21.6410   30.1760  -43.8780 C.ar  1414  PMR1414     0.0000
     23  CMD       21.7370   29.0590  -44.8820 C.3   1414  PMR1414     0.0000
     24  ND        21.8080   31.7820  -42.1250 N.ar  1414  PMR1414     0.0000
     25  C4D       20.7220   32.0630  -42.9430 C.ar  1414  PMR1414     0.0000
     26  C3D       20.5810   31.1830  -43.9510 C.ar  1414  PMR1414     0.0000
     27  CAD       19.4060   31.5210  -44.7660 C.2   1414  PMR1414     0.0000
     28  OAD       18.9890   30.9000  -45.8110 O.2   1414  PMR1414     0.0000
     29  CBD       18.8130   32.7520  -44.1910 C.3   1414  PMR1414     0.0000
     30  CGD       18.9950   33.8270  -45.2190 C.2   1414  PMR1414     0.0000
     31  O1D       18.0830   34.1680  -45.9510 O.2   1414  PMR1414     0.0000
     32  O2D       20.2840   34.4800  -45.3730 O.3   1414  PMR1414     0.0000
     33  C2O       20.4710   35.4780  -46.3740 C.3   1414  PMR1414     0.0000
     34  CHA       19.6590   33.0820  -42.9870 C.2   1414  PMR1414     0.0000
     35  C1A       19.7000   34.1340  -41.9270 C.1   1414  PMR1414     0.0000
     36  NA        20.6270   34.1940  -40.9310 N.2   1414  PMR1414     0.0000
     37  C4A       20.2470   35.2950  -40.2420 C.2   1414  PMR1414     0.0000
     38  C3A       19.0420   36.0000  -40.7350 C.2   1414  PMR1414     0.0000
     39  CMA       18.3710   37.2340  -40.1860 C.3   1414  PMR1414     0.0000
     40  C2A       18.6580   35.2050  -41.9010 C.2   1414  PMR1414     0.0000
     41  CAA       17.4710   35.4940  -42.7750 C.3   1414  PMR1414     0.0000
     42  CBA       16.2320   35.0200  -42.0230 C.3   1414  PMR1414     0.0000
     43  CGA       15.9740   33.5610  -42.3290 C.2   1414  PMR1414     0.0000
     44  O1A       16.4480   32.6860  -41.5750 O.co2 1414  PMR1414     0.0000
     45  O2A       15.2890   33.2820  -43.3370 O.co2 1414  PMR1414     0.0000
@<TRIPOS>BOND
     1    33    32    1
     2    31    30    2
     3    28    27    2
     4    32    30    1
     5    30    29    1
     6    23    22    1
     7    27    29    1
     8    27    26    1
     9    29    34    1
    10    26    22   ar
    11    26    25   ar
    12    22    21   ar
    13    45    43   ar
    14    34    25    1
    15    34    35    2
    16    25    24   ar
    17    41    42    1
    18    41    40    1
    19    21    24   ar
    20    21    20    1
    21    43    42    1
    22    43    44   ar
    23    24     1    1
    24    20    19    2
    25    35    40    1
    26    35    36    2
    27    40    38    2
    28    17    16    1
    29    17    18    1
    30    19    16    1
    31    19    13    2
    32    36    37    2
    33    38    37    1
    34    38    39    1
    35     1     9    1
    36    16    14    2
    37    13    12    2
    38    37     8    1
    39    14    12    1
    40    14    15    1
    41    12    11    1
    42     8     7    2
    43     9     7   ar
    44     9    10   ar
    45     7     5   ar
    46    11    10    2
    47    10     4   ar
    48     5     4   ar
    49     5     6    1
    50     4     3    1
    51     3     2    2
