@<TRIPOS>MOLECULE
2ynr_III_C_1.pdb
 44 43 0 0 0
SMALL
GASTEIGER

@<TRIPOS>ATOM
      1  N         -3.4160   38.8880  -12.2690 N.3     4  GLY4       -0.1210
      2  CA        -3.3710   39.0730  -10.8320 C.3     4  GLY4        0.1956
      3  C         -2.8570   37.8560  -10.0870 C.2     4  GLY4        0.2612
      4  O         -2.1660   37.0120  -10.6500 O.2     4  GLY4       -0.2717
      5  N         -3.2030   37.7730   -8.8100 N.am    5  LYS5       -0.1965
      6  CA        -2.7630   36.6780   -7.9580 C.3     5  LYS5        0.1728
      7  C         -3.4700   35.3540   -8.2710 C.2     5  LYS5        0.2616
      8  O         -4.6690   35.3230   -8.5350 O.2     5  LYS5       -0.2715
      9  CB        -2.9060   37.0550   -6.4780 C.3     5  LYS5        0.0311
     10  CG        -1.5950   37.5110   -5.8430 C.3     5  LYS5        0.0038
     11  CD        -1.7990   38.5330   -4.7370 C.3     5  LYS5        0.0206
     12  CE        -0.4800   39.1560   -4.3050 C.3     5  LYS5        0.1093
     13  NZ        -0.2150   39.0680   -2.8390 N.3     5  LYS5       -0.1314
     14  N         -2.6980   34.2700   -8.2480 N.am    6  ARG6       -0.1963
     15  CA        -3.1730   32.9360   -8.6000 C.3     6  ARG6        0.1729
     16  C         -3.0240   31.9740   -7.4350 C.2     6  ARG6        0.2616
     17  O         -1.9500   31.8640   -6.8570 O.2     6  ARG6       -0.2715
     18  CB        -2.3790   32.3870   -9.7820 C.3     6  ARG6        0.0348
     19  CG        -2.7610   32.9710  -11.1160 C.3     6  ARG6        0.0492
     20  CD        -1.7280   32.6270  -12.1730 C.3     6  ARG6        0.2205
     21  NE        -0.3730   32.7640  -11.6540 N.pl3   6  ARG6       -0.0865
     22  CZ         0.6180   31.9160  -11.9000 C.cat   6  ARG6        0.5346
     23  NH1        0.4240   30.8550  -12.6650 N.pl3   6  ARG6        0.1354
     24  NH2        1.8080   32.1320  -11.3730 N.pl3   6  ARG6        0.1354
     25  N         -4.0940   31.2620   -7.0980 N.am    7  LYS7       -0.1963
     26  CA        -4.0080   30.2670   -6.0400 C.3     7  LYS7        0.1728
     27  C         -3.4100   28.9680   -6.5720 C.2     7  LYS7        0.2616
     28  O         -3.1350   28.8370   -7.7610 O.2     7  LYS7       -0.2715
     29  CB        -5.3730   30.0110   -5.4040 C.3     7  LYS7        0.0311
     30  CG        -6.0470   31.2480   -4.8640 C.3     7  LYS7        0.0038
     31  CD        -5.9410   31.3440   -3.3590 C.3     7  LYS7        0.0206
     32  CE        -6.3920   32.7060   -2.8750 C.3     7  LYS7        0.1093
     33  NZ        -5.9240   32.9990   -1.5090 N.3     7  LYS7       -0.1314
     34  N         -3.2020   28.0120   -5.6810 N.am    8  ARG8       -0.1977
     35  CA        -2.6730   26.7170   -6.0710 C.3     8  ARG8        0.1597
     36  C         -3.4070   26.1660   -7.2870 C.2     8  ARG8        0.2287
     37  O         -4.5610   25.7540   -7.1930 O.2     8  ARG8       -0.2864
     38  CB        -2.7880   25.7380   -4.9100 C.3     8  ARG8        0.0334
     39  CG        -1.7260   25.9060   -3.8610 C.3     8  ARG8        0.0492
     40  CD        -0.9000   24.6650   -3.7550 C.3     8  ARG8        0.2205
     41  NE         0.0900   24.7840   -2.7010 N.pl3   8  ARG8       -0.0865
     42  CZ         1.3950   24.8990   -2.9100 C.cat   8  ARG8        0.5346
     43  NH1        1.8690   24.9030   -4.1470 N.pl3   8  ARG8        0.1354
     44  NH2        2.2190   24.9990   -1.8790 N.pl3   8  ARG8        0.1354
@<TRIPOS>BOND
     1    23    22    1
     2     1     2    1
     3    20    21    1
     4    20    19    1
     5    22    21    2
     6    22    24    1
     7    19    18    1
     8     2     3    1
     9     4     3    2
    10     3     5   am
    11    18    15    1
    12     5     6    1
    13    15    14    1
    14    15    16    1
    15     8     7    2
    16     7    14   am
    17     7     6    1
    18     6     9    1
    19    28    27    2
    20    16    25   am
    21    16    17    2
    22    36    37    2
    23    36    35    1
    24    25    26    1
    25    27    26    1
    26    27    34   am
    27     9    10    1
    28    35    34    1
    29    35    38    1
    30    26    29    1
    31    10    11    1
    32    29    30    1
    33    38    39    1
    34    30    31    1
    35    11    12    1
    36    12    13    1
    37    43    42    1
    38    39    40    1
    39    40    41    1
    40    31    32    1
    41    42    41    2
    42    42    44    1
    43    32    33    1
