@<TRIPOS>MOLECULE
2yoe_FL7_C_1.pdb
 27 29 0 0 0
SMALL
GASTEIGER

@<TRIPOS>ATOM
      1  C        -92.0110  -49.8120  -67.3320 C.2   1318  FL71318     0.2542
      2  N        -90.3420  -49.7180  -68.9760 N.2   1318  FL71318    -0.2604
      3  O        -93.3030  -49.5350  -67.3360 O.2   1318  FL71318    -0.2724
      4 CL        -86.1490  -49.7030  -63.9830 Cl    1318  FL71318    -0.0822
      5  CA       -91.4560  -49.0620  -68.3080 C.3   1318  FL71318     0.2104
      6  C13      -89.2940  -50.5330  -68.0710 C.2   1318  FL71318     0.0799
      7  FAA      -89.3770  -51.8720  -70.7900 F     1318  FL71318    -0.2041
      8  CAE      -88.1190  -51.3050  -68.7680 C.ar  1318  FL71318     0.0447
      9  CAD      -88.2470  -51.9230  -70.0710 C.ar  1318  FL71318     0.1415
     10  CAC      -87.1420  -52.5910  -70.6100 C.ar  1318  FL71318     0.0297
     11  CAL      -86.8480  -51.4340  -68.1160 C.ar  1318  FL71318     0.0037
     12  CAK      -85.7060  -52.1270  -68.6750 C.ar  1318  FL71318     0.0002
     13  CAJ      -85.8570  -52.6990  -69.9420 C.ar  1318  FL71318     0.0023
     14  CAV      -89.2360  -50.2110  -66.4320 C.ar  1318  FL71318     0.0318
     15  CAN      -90.3110  -50.0330  -65.6510 C.ar  1318  FL71318     0.0554
     16  NAO      -91.5430  -50.0260  -66.0890 N.am  1318  FL71318    -0.2555
     17  CAP      -92.5710  -50.2300  -65.0830 C.3   1318  FL71318     0.1155
     18  CAQ      -92.6020  -51.5530  -64.2330 C.3   1318  FL71318     0.0942
     19  NAR      -93.0640  -52.8100  -64.8830 N.3   1318  FL71318    -0.2712
     20  CAS      -91.9160  -53.4450  -65.7100 C.3   1318  FL71318     0.0722
     21  CAT      -92.0240  -53.4420  -67.1830 C.3   1318  FL71318     0.0188
     22  CAZ      -87.8620  -50.0960  -65.7770 C.ar  1318  FL71318     0.0141
     23  CAM      -90.1080  -49.7660  -64.2370 C.ar  1318  FL71318     0.0158
     24  CAW      -93.7270  -53.7530  -63.9500 C.3   1318  FL71318     0.0722
     25  CAX      -95.1880  -53.8600  -63.9850 C.3   1318  FL71318     0.0188
     26  CAY      -87.7060  -49.8530  -64.5160 C.ar  1318  FL71318     0.0578
     27  CAU      -88.8180  -49.6720  -63.6570 C.ar  1318  FL71318     0.0127
@<TRIPOS>BOND
     1     7     9    1
     2    10     9   ar
     3    10    13   ar
     4     9     8   ar
     5    13    12   ar
     6     2     5    1
     7     2     6    2
     8     8    11   ar
     9     8     6    1
    10    12    11   ar
    11     5     1    1
    12     6    14    1
    13     3     1    2
    14     1    16   am
    15    21    20    1
    16    14    22   ar
    17    14    15   ar
    18    16    15    1
    19    16    17    1
    20    22    26   ar
    21    20    19    1
    22    15    23   ar
    23    17    18    1
    24    19    18    1
    25    19    24    1
    26    26     4    1
    27    26    27   ar
    28    23    27   ar
    29    25    24    1
