@<TRIPOS>MOLECULE
2yoo_K2B_A_1.pdb
 28 31 0 0 0
SMALL
GASTEIGER

@<TRIPOS>ATOM
      1  C1        45.2410   -9.3990  -38.2530 C.3   1404  K2B1404     0.0118
      2  C2        45.4970  -10.2610  -39.5050 C.3   1404  K2B1404     0.0694
      3  C3        44.1870  -10.5090  -40.2290 C.2   1404  K2B1404     0.1725
      4  C4        43.0960   -9.5040  -40.1510 C.2   1404  K2B1404     0.0289
      5  C5        43.2790   -8.3400  -39.5060 C.2   1404  K2B1404    -0.0420
      6  C6        42.2300   -7.2620  -39.6120 C.3   1404  K2B1404     0.0221
      7  C7        41.7390   -6.8970  -38.1890 C.3   1404  K2B1404     0.0044
      8  C8        42.9610   -6.4510  -37.3360 C.3   1404  K2B1404     0.0006
      9  C9        43.9590   -7.5930  -37.1950 C.3   1404  K2B1404     0.0035
     10  C10       44.4770   -8.0910  -38.5830 C.3   1404  K2B1404     0.0157
     11  C11       45.1220   -7.2270  -36.2330 C.3   1404  K2B1404     0.0003
     12  C12       44.6150   -6.7060  -34.8680 C.3   1404  K2B1404     0.0000
     13  C13       43.7230   -5.4640  -35.0610 C.3   1404  K2B1404     0.0000
     14  C14       42.5790   -5.9880  -35.9480 C.3   1404  K2B1404     0.0000
     15  C15       41.5240   -4.9180  -35.9130 C.3   1404  K2B1404     0.0000
     16  C16       41.6780   -4.4690  -34.4310 C.3   1404  K2B1404     0.0000
     17  C17       42.9270   -5.0980  -33.7870 C.3   1404  K2B1404     0.0000
     18  C18       44.4450   -4.2350  -35.6900 C.3   1404  K2B1404     0.0000
     19  C19       45.4610   -7.1490  -39.3030 C.3   1404  K2B1404     0.0041
     20  C20       43.5690   -4.1670  -32.6970 C.3   1404  K2B1404     0.0000
     21  C21       44.9650   -4.6070  -32.1790 C.3   1404  K2B1404     0.0000
     22  C22       42.6050   -4.0830  -31.4510 C.3   1404  K2B1404     0.0000
     23  C23       42.9330   -2.8050  -30.5940 C.3   1404  K2B1404     0.0000
     24  C24       41.8240   -2.5920  -29.5390 C.3   1404  K2B1404     0.0000
     25  C25       42.1120   -1.3770  -28.6530 C.3   1404  K2B1404     0.0000
     26  C27       41.7810   -0.0580  -29.3830 C.3   1404  K2B1404     0.0000
     27  C26       41.3670   -1.5970  -27.3400 C.3   1404  K2B1404     0.0000
     28  O1        44.0500  -11.5540  -40.8770 O.2   1404  K2B1404    -0.2914
@<TRIPOS>BOND
     1    28     3    2
     2     3     4    1
     3     3     2    1
     4     4     5    2
     5     6     5    1
     6     6     7    1
     7     5    10    1
     8     2     1    1
     9    19    10    1
    10    10     1    1
    11    10     9    1
    12     7     8    1
    13     8     9    1
    14     8    14    1
    15     9    11    1
    16    11    12    1
    17    14    15    1
    18    14    13    1
    19    15    16    1
    20    18    13    1
    21    13    12    1
    22    13    17    1
    23    16    17    1
    24    17    20    1
    25    20    21    1
    26    20    22    1
    27    22    23    1
    28    23    24    1
    29    24    25    1
    30    26    25    1
    31    25    27    1
