@<TRIPOS>MOLECULE
2yoo_HEM_A_1.pdb
 43 50 0 0 0
SMALL
GASTEIGER

@<TRIPOS>ATOM
      1  CHA       39.8180   -2.5580  -24.0110 C.2   1402  HEM1402     0.0000
      2  CHB       38.6470    2.1140  -24.7700 C.2   1402  HEM1402     0.0000
      3  CHC       43.2520    3.4320  -23.8000 C.2   1402  HEM1402     0.0000
      4  CHD       44.5460   -1.3160  -23.5040 C.2   1402  HEM1402     0.0000
      5  C1A       39.0810   -1.4000  -24.2600 C.ar  1402  HEM1402     0.0000
      6  C2A       37.6910   -1.3480  -24.6590 C.ar  1402  HEM1402     0.0000
      7  C3A       37.3410   -0.0690  -24.8260 C.ar  1402  HEM1402     0.0000
      8  C4A       38.5780    0.7430  -24.6470 C.ar  1402  HEM1402     0.0000
      9  CMA       35.9500    0.3800  -25.2100 C.3   1402  HEM1402     0.0000
     10  CAA       36.7660   -2.5900  -24.7280 C.3   1402  HEM1402     0.0000
     11  CBA       35.8990   -2.5700  -23.4600 C.3   1402  HEM1402     0.0000
     12  CGA       34.6630   -3.4230  -23.6510 C.2   1402  HEM1402     0.0000
     13  O1A       34.4650   -4.0730  -24.7270 O.co2 1402  HEM1402     0.0000
     14  O2A       33.8410   -3.3900  -22.7080 O.co2 1402  HEM1402     0.0000
     15  C1B       39.7850    2.9150  -24.6150 C.2   1402  HEM1402     0.0000
     16  C2B       39.7870    4.3440  -24.6430 C.2   1402  HEM1402     0.0000
     17  C3B       41.0830    4.6950  -24.3520 C.2   1402  HEM1402     0.0000
     18  C4B       41.8980    3.5030  -24.1770 C.2   1402  HEM1402     0.0000
     19  CMB       38.5040    5.2730  -24.9400 C.3   1402  HEM1402     0.0000
     20  CAB       41.7510    6.0800  -24.2230 C.2   1402  HEM1402     0.0000
     21  CBB       41.0650    7.1990  -24.0600 C.2   1402  HEM1402     0.0000
     22  C1C       44.0390    2.3030  -23.6190 C.ar  1402  HEM1402     0.0000
     23  C2C       45.4690    2.1740  -23.2900 C.ar  1402  HEM1402     0.0000
     24  C3C       45.7720    0.8460  -23.2980 C.ar  1402  HEM1402     0.0000
     25  C4C       44.5930    0.0790  -23.5730 C.ar  1402  HEM1402     0.0000
     26  CMC       46.3900    3.3960  -23.1110 C.3   1402  HEM1402     0.0000
     27  CAC       47.1020    0.1270  -22.9800 C.2   1402  HEM1402     0.0000
     28  CBC       48.1920    0.6490  -23.4820 C.2   1402  HEM1402     0.0000
     29  C1D       43.3980   -2.1090  -23.6570 C.2   1402  HEM1402     0.0000
     30  C2D       43.3460   -3.5210  -23.5930 C.2   1402  HEM1402     0.0000
     31  C3D       41.9190   -3.9120  -23.7340 C.2   1402  HEM1402     0.0000
     32  C4D       41.1890   -2.6410  -23.8610 C.2   1402  HEM1402     0.0000
     33  CMD       44.5490   -4.4800  -23.4060 C.3   1402  HEM1402     0.0000
     34  CAD       41.3310   -5.3230  -23.6560 C.3   1402  HEM1402     0.0000
     35  CBD       41.0910   -5.5360  -22.1080 C.3   1402  HEM1402     0.0000
     36  CGD       40.3430   -6.8570  -21.8760 C.2   1402  HEM1402     0.0000
     37  O1D       39.8690   -7.5070  -22.8800 O.co2 1402  HEM1402     0.0000
     38  O2D       40.1730   -7.2720  -20.6970 O.co2 1402  HEM1402     0.0000
     39  NA        39.5530   -0.1270  -24.2490 N.ar  1402  HEM1402     0.0000
     40  NB        41.0110    2.4460  -24.2630 N.2   1402  HEM1402     0.0000
     41  NC        43.5660    0.9910  -23.6830 N.ar  1402  HEM1402     0.0000
     42  ND        42.1070   -1.5850  -23.7100 N.2   1402  HEM1402     0.0000
     43 FE         41.5310    0.4710  -23.8120 Fe    1402  HEM1402     0.0000
@<TRIPOS>BOND
     1     9     7    1
     2    19    16    1
     3     7     6   ar
     4     7     8   ar
     5     2     8    2
     6     2    15    1
     7    10     6    1
     8    10    11    1
     9    13    12   ar
    10     6     5   ar
    11     8    39   ar
    12    16    15    1
    13    16    17    2
    14    15    40    2
    15    17    20    1
    16    17    18    1
    17    40    18    1
    18    40    43    1
    19     5    39   ar
    20     5     1    2
    21    39    43    1
    22    20    21    2
    23    18     3    2
    24     1    32    1
    25    32    31    1
    26    32    42    2
    27    43    42    1
    28    43    41    1
    29     3    22    1
    30    31    34    1
    31    31    30    2
    32    42    29    1
    33    41    22   ar
    34    41    25   ar
    35    29    30    1
    36    29     4    2
    37    34    35    1
    38    12    11    1
    39    12    14   ar
    40    22    23   ar
    41    30    33    1
    42    25     4    1
    43    25    24   ar
    44    28    27    2
    45    24    23   ar
    46    24    27    1
    47    23    26    1
    48    37    36   ar
    49    35    36    1
    50    36    38   ar
