@<TRIPOS>MOLECULE
2yp3_GAL_A_1.pdb
 11 11 0 0 0
SMALL
GASTEIGER

@<TRIPOS>ATOM
      1  C1       -53.2810    2.8370  102.2910 C.3   1516  GAL1516     0.1777
      2  C2       -54.6620    2.9600  101.6630 C.3   1516  GAL1516     0.2141
      3  C3       -54.8340    1.8710  100.6040 C.3   1516  GAL1516     0.2173
      4  C4       -53.6990    1.9480   99.5820 C.3   1516  GAL1516     0.2142
      5  C5       -52.3690    1.8430  100.3180 C.3   1516  GAL1516     0.1810
      6  C6       -51.1860    1.9000   99.3630 C.3   1516  GAL1516     0.2141
      7  O2       -55.6630    2.8770  102.6890 O.3   1516  GAL1516    -0.2176
      8  O3       -56.0710    2.0270   99.9210 O.3   1516  GAL1516    -0.2175
      9  O4       -53.7720    3.1900   98.8440 O.3   1516  GAL1516    -0.2176
     10  O5       -52.2730    2.9150  101.2630 O.3   1516  GAL1516    -0.3481
     11  O6       -49.9900    1.6280  100.0990 O.3   1516  GAL1516    -0.2176
@<TRIPOS>BOND
     1     9     4    1
     2     6    11    1
     3     6     5    1
     4     4     5    1
     5     4     3    1
     6     8     3    1
     7     5    10    1
     8     3     2    1
     9    10     1    1
    10     2     1    1
    11     2     7    1
