@<TRIPOS>MOLECULE
2yp3_SIA_A_1.pdb
 20 20 0 0 0
SMALL
GASTEIGER

@<TRIPOS>ATOM
      1  C1       -48.6800    2.0970   98.1310 C.2   1515  SIA1515     0.3914
      2  C2       -48.8240    2.3080   99.6330 C.3   1515  SIA1515     0.2203
      3  C3       -47.6180    1.7490  100.3850 C.3   1515  SIA1515     0.0760
      4  C4       -46.3810    2.5760  100.0650 C.3   1515  SIA1515     0.1773
      5  C5       -46.5910    4.0460  100.4040 C.3   1515  SIA1515     0.1552
      6  C6       -47.8400    4.5430   99.6860 C.3   1515  SIA1515     0.1710
      7  C7       -48.3130    5.9400  100.0420 C.3   1515  SIA1515     0.2134
      8  C8       -49.6260    6.2190   99.2800 C.3   1515  SIA1515     0.2173
      9  C9       -50.0050    7.6910   99.2160 C.3   1515  SIA1515     0.2175
     10  C10      -44.4720    5.2790  100.5140 C.2   1515  SIA1515     0.2420
     11  C11      -43.3470    5.8640   99.7240 C.3   1515  SIA1515     0.0964
     12  N5       -45.4300    4.6900   99.8040 N.am  1515  SIA1515    -0.2020
     13  O1A      -48.8580    3.0520   97.3310 O.co2 1515  SIA1515    -0.2430
     14  O1B      -48.4060    0.9480   97.7430 O.co2 1515  SIA1515    -0.2430
     15  O4       -45.2320    2.0520  100.7330 O.3   1515  SIA1515    -0.2211
     16  O6       -48.9560    3.6910   99.9630 O.3   1515  SIA1515    -0.3429
     17  O7       -48.5000    6.0220  101.4600 O.3   1515  SIA1515    -0.2176
     18  O8       -49.5440    5.7090   97.9380 O.3   1515  SIA1515    -0.2175
     19  O9       -51.3160    7.7840   98.6240 O.3   1515  SIA1515    -0.2175
     20  O10      -44.5140    5.3620  101.7300 O.2   1515  SIA1515    -0.2733
@<TRIPOS>BOND
     1    13     1   ar
     2    14     1   ar
     3    18     8    1
     4     1     2    1
     5    19     9    1
     6     9     8    1
     7     8     7    1
     8     2    16    1
     9     2     3    1
    10     6    16    1
    11     6     7    1
    12     6     5    1
    13    11    10    1
    14    12     5    1
    15    12    10   am
    16     7    17    1
    17     4     3    1
    18     4     5    1
    19     4    15    1
    20    10    20    2
