@<TRIPOS>MOLECULE
2yp4_SIA_A_1.pdb
 20 20 0 0 0
SMALL
GASTEIGER

@<TRIPOS>ATOM
      1  C1       -27.8540   13.7920  -33.5870 C.2   1514  SIA1514     0.3914
      2  C2       -27.9790   14.0440  -35.0810 C.3   1514  SIA1514     0.2203
      3  C3       -28.0940   12.7230  -35.8480 C.3   1514  SIA1514     0.0760
      4  C4       -29.4150   12.0380  -35.5220 C.3   1514  SIA1514     0.1773
      5  C5       -30.5910   12.9510  -35.8420 C.3   1514  SIA1514     0.1552
      6  C6       -30.4130   14.2870  -35.1140 C.3   1514  SIA1514     0.1710
      7  C7       -31.4350   15.3670  -35.4450 C.3   1514  SIA1514     0.2134
      8  C8       -31.0860   16.6830  -34.7180 C.3   1514  SIA1514     0.2173
      9  C9       -32.2170   17.7050  -34.7240 C.3   1514  SIA1514     0.2175
     10  C10      -32.7380   11.7360  -35.9840 C.2   1514  SIA1514     0.2420
     11  C11      -33.8110   11.0140  -35.2260 C.3   1514  SIA1514     0.0964
     12  N5       -31.7300   12.2360  -35.2650 N.am  1514  SIA1514    -0.2020
     13  O1A      -28.5770   14.4310  -32.7820 O.co2 1514  SIA1514    -0.2430
     14  O1B      -26.9990   12.9650  -33.2080 O.co2 1514  SIA1514    -0.2430
     15  O4       -29.5310   10.7910  -36.2150 O.3   1514  SIA1514    -0.2211
     16  O6       -29.1240   14.8520  -35.3960 O.3   1514  SIA1514    -0.3429
     17  O7       -31.4500   15.5670  -36.8590 O.3   1514  SIA1514    -0.2176
     18  O8       -30.7190   16.4440  -33.3480 O.3   1514  SIA1514    -0.2175
     19  O9       -31.7310   18.9330  -34.1480 O.3   1514  SIA1514    -0.2175
     20  O10      -32.8080   11.8640  -37.1930 O.2   1514  SIA1514    -0.2733
@<TRIPOS>BOND
     1    20    10    2
     2    17     7    1
     3    15     4    1
     4    10    12   am
     5    10    11    1
     6     3     4    1
     7     3     2    1
     8     5     4    1
     9     5    12    1
    10     5     6    1
    11     7     6    1
    12     7     8    1
    13    16     6    1
    14    16     2    1
    15     2     1    1
    16     9     8    1
    17     9    19    1
    18     8    18    1
    19     1    14   ar
    20     1    13   ar
