@<TRIPOS>MOLECULE
2yp4_GAL_A_1.pdb
 11 11 0 0 0
SMALL
GASTEIGER

@<TRIPOS>ATOM
      1  C1       -26.1970   18.1810  -37.6310 C.3   1515  GAL1515     0.1777
      2  C2       -25.6800   19.4650  -36.9950 C.3   1515  GAL1515     0.2141
      3  C3       -24.6530   19.1160  -35.9200 C.3   1515  GAL1515     0.2173
      4  C4       -25.2640   18.1330  -34.9150 C.3   1515  GAL1515     0.2142
      5  C5       -25.7850   16.9080  -35.6610 C.3   1515  GAL1515     0.1810
      6  C6       -26.4460   15.8870  -34.7460 C.3   1515  GAL1515     0.2141
      7  O2       -25.1190   20.3080  -38.0100 O.3   1515  GAL1515    -0.2176
      8  O3       -24.2100   20.3080  -35.2640 O.3   1515  GAL1515    -0.2175
      9  O4       -26.3410   18.7480  -34.1820 O.3   1515  GAL1515    -0.2176
     10  O5       -26.7520   17.3340  -36.6220 O.3   1515  GAL1515    -0.3481
     11  O6       -26.7930   14.7230  -35.5130 O.3   1515  GAL1515    -0.2176
@<TRIPOS>BOND
     1     7     2    1
     2     1     2    1
     3     1    10    1
     4     2     3    1
     5    10     5    1
     6     3     8    1
     7     3     4    1
     8     5     4    1
     9     5     6    1
    10    11     6    1
    11     4     9    1
