@<TRIPOS>MOLECULE
2yp4_BGC_A_1.pdb
 12 12 0 0 0
SMALL
GASTEIGER

@<TRIPOS>ATOM
      1  C1       -34.1990   13.6740  -49.6680 C.3   1518  BGC1518     0.3024
      2  C2       -32.9690   14.3460  -50.2690 C.3   1518  BGC1518     0.2434
      3  C3       -31.8720   14.5730  -49.2240 C.3   1518  BGC1518     0.2199
      4  C4       -32.3880   15.0490  -47.8610 C.3   1518  BGC1518     0.2144
      5  C5       -33.7130   14.3870  -47.4770 C.3   1518  BGC1518     0.1836
      6  C6       -34.3800   15.0150  -46.2580 C.3   1518  BGC1518     0.2142
      7  O1       -35.2600   13.5730  -50.6250 O.3   1518  BGC1518    -0.1869
      8  O3       -30.9380   15.5360  -49.7260 O.3   1518  BGC1518    -0.2174
      9  O4       -31.4110   14.6860  -46.8830 O.3   1518  BGC1518    -0.2176
     10  O5       -34.6350   14.4580  -48.5640 O.3   1518  BGC1518    -0.3236
     11  O6       -35.0130   13.9860  -45.4770 O.3   1518  BGC1518    -0.2176
     12  O2       -32.4610   13.5110  -51.3150 O.3   1518  BGC1518    -0.2148
@<TRIPOS>BOND
     1    12     2    1
     2     7     1    1
     3     2     1    1
     4     2     3    1
     5     8     3    1
     6     1    10    1
     7     3     4    1
     8    10     5    1
     9     4     5    1
    10     4     9    1
    11     5     6    1
    12     6    11    1
