@<TRIPOS>MOLECULE
2yp5_SIA_A_1.pdb
 20 20 0 0 0
SMALL
GASTEIGER

@<TRIPOS>ATOM
      1  C1        25.3330   16.9700  -34.0680 C.2   1507  SIA1507     0.3914
      2  C2        25.5840   17.1080  -35.5590 C.3   1507  SIA1507     0.2203
      3  C3        24.4530   17.9160  -36.2220 C.3   1507  SIA1507     0.0760
      4  C4        24.4400   19.3700  -35.7370 C.3   1507  SIA1507     0.1773
      5  C5        25.7960   20.0150  -36.0050 C.3   1507  SIA1507     0.1552
      6  C6        26.8710   19.1670  -35.3260 C.3   1507  SIA1507     0.1710
      7  C7        28.2990   19.6510  -35.5380 C.3   1507  SIA1507     0.2134
      8  C8        29.3000   18.6530  -34.9410 C.3   1507  SIA1507     0.2173
      9  C9        30.6910   19.2590  -34.8900 C.3   1507  SIA1507     0.2175
     10  C10       26.3360   22.4150  -35.8480 C.2   1507  SIA1507     0.2420
     11  C11       26.1680   23.6730  -35.0480 C.3   1507  SIA1507     0.0964
     12  N5        25.7460   21.3250  -35.3580 N.am  1507  SIA1507    -0.2020
     13  O1A       24.1450   16.8370  -33.6990 O.co2 1507  SIA1507    -0.2430
     14  O1B       26.3020   16.9970  -33.2600 O.co2 1507  SIA1507    -0.2430
     15  O4        23.4030   20.1400  -36.3580 O.3   1507  SIA1507    -0.2211
     16  O6        26.8140   17.8080  -35.7970 O.3   1507  SIA1507    -0.3429
     17  O7        28.5610   19.8250  -36.9390 O.3   1507  SIA1507    -0.2176
     18  O8        28.9430   18.2420  -33.6060 O.3   1507  SIA1507    -0.2175
     19  O9        31.5840   18.2750  -34.3560 O.3   1507  SIA1507    -0.2175
     20  O10       26.9800   22.4070  -36.8860 O.2   1507  SIA1507    -0.2733
@<TRIPOS>BOND
     1    17     7    1
     2    20    10    2
     3    15     4    1
     4     3     4    1
     5     3     2    1
     6     5     4    1
     7     5    12    1
     8     5     6    1
     9    10    12   am
    10    10    11    1
    11    16     2    1
    12    16     6    1
    13     2     1    1
    14     7     6    1
    15     7     8    1
    16     8     9    1
    17     8    18    1
    18     9    19    1
    19     1    13   ar
    20     1    14   ar
