@<TRIPOS>MOLECULE
2yp8_SIA_A_1.pdb
 21 21 0 0 0
SMALL
GASTEIGER

@<TRIPOS>ATOM
      1  C1       -48.4030    0.9100   99.2460 C.2   1508  SIA1508     0.4179
      2  C2       -47.8730    1.0060  100.6650 C.3   1508  SIA1508     0.3155
      3  C3       -46.4630    0.4120  100.8120 C.3   1508  SIA1508     0.1056
      4  C4       -45.3780    1.2980  100.2000 C.3   1508  SIA1508     0.1798
      5  C5       -45.4970    2.7380  100.6770 C.3   1508  SIA1508     0.1554
      6  C6       -46.9230    3.2270  100.4410 C.3   1508  SIA1508     0.1734
      7  C7       -47.1360    4.6610  100.9160 C.3   1508  SIA1508     0.2135
      8  C8       -48.6100    5.0500  100.8770 C.3   1508  SIA1508     0.2173
      9  C9       -48.7710    6.5470  100.6470 C.3   1508  SIA1508     0.2175
     10  C10      -43.8740    4.5800  100.5390 C.2   1508  SIA1508     0.2420
     11  C11      -42.9240    5.3200   99.6390 C.3   1508  SIA1508     0.0964
     12  N5       -44.5410    3.5730   99.9670 N.am  1508  SIA1508    -0.2020
     13  O1A      -47.7690    0.2680   98.3760 O.co2 1508  SIA1508    -0.2401
     14  O1B      -49.4880    1.4810   98.9940 O.co2 1508  SIA1508    -0.2401
     15  O2       -48.7800    0.2720  101.5030 O.3   1508  SIA1508    -0.1830
     16  O4       -44.0790    0.8090  100.5460 O.3   1508  SIA1508    -0.2210
     17  O6       -47.8620    2.3720  101.1120 O.3   1508  SIA1508    -0.3220
     18  O7       -46.6560    4.8120  102.2550 O.3   1508  SIA1508    -0.2176
     19  O8       -49.2740    4.3310   99.8330 O.3   1508  SIA1508    -0.2175
     20  O9       -50.1640    6.8710  100.6070 O.3   1508  SIA1508    -0.2175
     21  O10      -44.0200    4.8880  101.7120 O.2   1508  SIA1508    -0.2733
@<TRIPOS>BOND
     1    13     1   ar
     2    14     1   ar
     3     1     2    1
     4    11    10    1
     5    19     8    1
     6    12    10   am
     7    12     5    1
     8     4    16    1
     9     4     5    1
    10     4     3    1
    11     6     5    1
    12     6     7    1
    13     6    17    1
    14    10    21    2
    15    20     9    1
    16     9     8    1
    17     2     3    1
    18     2    17    1
    19     2    15    1
    20     8     7    1
    21     7    18    1
