@<TRIPOS>MOLECULE
2yp9_SIA_A_1.pdb
 20 20 0 0 0
SMALL
GASTEIGER

@<TRIPOS>ATOM
      1  C1       -48.2270    0.9420   99.0440 C.2   1508  SIA1508     0.3914
      2  C2       -47.9690    1.0960  100.5370 C.3   1508  SIA1508     0.2203
      3  C3       -46.5910    0.5160  100.8970 C.3   1508  SIA1508     0.0760
      4  C4       -45.4320    1.3460  100.3330 C.3   1508  SIA1508     0.1773
      5  C5       -45.5600    2.7950  100.7800 C.3   1508  SIA1508     0.1552
      6  C6       -46.9430    3.3250  100.3810 C.3   1508  SIA1508     0.1710
      7  C7       -47.1560    4.7720  100.8320 C.3   1508  SIA1508     0.2134
      8  C8       -48.6110    5.2090  100.7280 C.3   1508  SIA1508     0.2173
      9  C9       -48.6910    6.6860  100.3580 C.3   1508  SIA1508     0.2175
     10  C10      -43.8990    4.6020  100.5770 C.2   1508  SIA1508     0.2420
     11  C11      -42.8700    5.2660   99.7080 C.3   1508  SIA1508     0.0964
     12  N5       -44.5330    3.5520  100.0590 N.am  1508  SIA1508    -0.2020
     13  O1A      -47.5720    0.1170   98.3680 O.co2 1508  SIA1508    -0.2430
     14  O1B      -49.1070    1.6540   98.5190 O.co2 1508  SIA1508    -0.2430
     15  O4       -44.1690    0.8330  100.7660 O.3   1508  SIA1508    -0.2211
     16  O6       -47.9890    2.4900  100.9260 O.3   1508  SIA1508    -0.3429
     17  O7       -46.7420    4.9440  102.1880 O.3   1508  SIA1508    -0.2176
     18  O8       -49.2830    4.4210   99.7400 O.3   1508  SIA1508    -0.2175
     19  O9       -50.0500    7.0460  100.0980 O.3   1508  SIA1508    -0.2175
     20  O10      -44.1430    5.0180  101.6970 O.2   1508  SIA1508    -0.2733
@<TRIPOS>BOND
     1    13     1   ar
     2    14     1   ar
     3     1     2    1
     4    11    10    1
     5    18     8    1
     6    12    10   am
     7    12     5    1
     8    19     9    1
     9     4    15    1
    10     4     5    1
    11     4     3    1
    12     9     8    1
    13     6     5    1
    14     6     7    1
    15     6    16    1
    16     2     3    1
    17     2    16    1
    18    10    20    2
    19     8     7    1
    20     7    17    1
