@<TRIPOS>MOLECULE
2ypg_GAL_C_1.pdb
 11 11 0 0 0
SMALL
GASTEIGER

@<TRIPOS>ATOM
      1  C1        13.7370   87.4160   39.3250 C.3   1337  GAL1337     0.1777
      2  C2        13.3400   85.9670   39.6010 C.3   1337  GAL1337     0.2141
      3  C3        14.4940   85.2580   40.3110 C.3   1337  GAL1337     0.2173
      4  C4        15.7870   85.3910   39.5020 C.3   1337  GAL1337     0.2142
      5  C5        16.0410   86.8470   39.1060 C.3   1337  GAL1337     0.1810
      6  C6        17.2120   87.0060   38.1470 C.3   1337  GAL1337     0.2141
      7  O2        12.1530   85.9160   40.4010 O.3   1337  GAL1337    -0.2176
      8  O3        14.1750   83.8760   40.5200 O.3   1337  GAL1337    -0.2175
      9  O4        15.6990   84.5770   38.3290 O.3   1337  GAL1337    -0.2176
     10  O5        14.8840   87.4050   38.4740 O.3   1337  GAL1337    -0.3481
     11  O6        17.1900   88.3640   37.6900 O.3   1337  GAL1337    -0.2176
@<TRIPOS>BOND
     1    11     6    1
     2     6     5    1
     3     9     4    1
     4    10     5    1
     5    10     1    1
     6     5     4    1
     7     1     2    1
     8     4     3    1
     9     2     3    1
    10     2     7    1
    11     3     8    1
