@<TRIPOS>MOLECULE
2ypg_SIA_A_1.pdb
 20 20 0 0 0
SMALL
GASTEIGER

@<TRIPOS>ATOM
      1  C1         9.5480   87.6320   -8.9190 C.2   1335  SIA1335     0.3914
      2  C2         8.3460   88.4520   -8.4650 C.3   1335  SIA1335     0.2203
      3  C3         7.2240   88.4140   -9.5110 C.3   1335  SIA1335     0.0760
      4  C4         6.5040   87.0670   -9.5590 C.3   1335  SIA1335     0.1773
      5  C5         6.0350   86.6700   -8.1680 C.3   1335  SIA1335     0.1552
      6  C6         7.2340   86.6840   -7.2270 C.3   1335  SIA1335     0.1710
      7  C7         6.8950   86.2720   -5.8000 C.3   1335  SIA1335     0.2134
      8  C8         8.1130   86.4050   -4.8780 C.3   1335  SIA1335     0.2173
      9  C9         7.8660   85.6950   -3.5560 C.3   1335  SIA1335     0.2175
     10  C10        4.4690   84.8290   -7.7010 C.2   1335  SIA1335     0.2420
     11  C11        4.1470   83.3880   -7.9640 C.3   1335  SIA1335     0.0964
     12  N5         5.5640   85.2940   -8.2980 N.am  1335  SIA1335    -0.2020
     13  O1A        9.9330   87.7200  -10.1080 O.co2 1335  SIA1335    -0.2430
     14  O1B       10.1420   86.9010   -8.0900 O.co2 1335  SIA1335    -0.2430
     15  O4         5.3820   87.1110  -10.4490 O.3   1335  SIA1335    -0.2211
     16  O6         7.8250   87.9970   -7.2100 O.3   1335  SIA1335    -0.3429
     17  O7         5.8310   87.0890   -5.3100 O.3   1335  SIA1335    -0.2176
     18  O8         9.3050   85.8590   -5.4730 O.3   1335  SIA1335    -0.2175
     19  O9         9.0110   85.8930   -2.7310 O.3   1335  SIA1335    -0.2175
     20  O10        3.7700   85.5170   -6.9800 O.2   1335  SIA1335    -0.2733
@<TRIPOS>BOND
     1    15     4    1
     2    13     1   ar
     3     4     3    1
     4     4     5    1
     5     3     2    1
     6     1     2    1
     7     1    14   ar
     8     2    16    1
     9    12     5    1
    10    12    10   am
    11     5     6    1
    12    11    10    1
    13    10    20    2
    14     6    16    1
    15     6     7    1
    16     7    17    1
    17     7     8    1
    18    18     8    1
    19     8     9    1
    20     9    19    1
