@<TRIPOS>MOLECULE
2ypj_BGC_A_1.pdb
 11 11 0 0 0
SMALL
GASTEIGER

@<TRIPOS>ATOM
      1  C1         0.3860  -25.6220  -10.6660 C.3   1709  BGC1709     0.1777
      2  C2         1.2450  -24.4980  -11.1890 C.3   1709  BGC1709     0.2141
      3  O2         1.7020  -24.8760  -12.4820 O.3   1709  BGC1709    -0.2176
      4  O5        -0.1100  -25.2250   -9.3930 O.3   1709  BGC1709    -0.3481
      5  C5         0.9620  -25.1230   -8.4320 C.3   1709  BGC1709     0.1810
      6  C4         1.8850  -23.9790   -8.8120 C.3   1709  BGC1709     0.2142
      7  O4         3.0040  -23.9190   -7.9150 O.3   1709  BGC1709    -0.2176
      8  C3         2.3850  -24.1660  -10.2330 C.3   1709  BGC1709     0.2173
      9  O3         2.9960  -22.9320  -10.6160 O.3   1709  BGC1709    -0.2175
     10  C6         0.3820  -24.8930   -7.0410 C.3   1709  BGC1709     0.2141
     11  O6        -0.6180  -25.9020   -6.7400 O.3   1709  BGC1709    -0.2176
@<TRIPOS>BOND
     1     3     2    1
     2     2     1    1
     3     2     8    1
     4     1     4    1
     5     9     8    1
     6     8     6    1
     7     4     5    1
     8     6     5    1
     9     6     7    1
    10     5    10    1
    11    10    11    1
