@<TRIPOS>MOLECULE
2ypn_DPM_A_1.pdb
 30 31 0 0 0
SMALL
GASTEIGER

@<TRIPOS>ATOM
      1  C1A       16.1590    0.8090   27.1470 C.2   314  DPM314      0.1053
      2  C2A       16.9460    0.4080   28.1860 C.2   314  DPM314      0.0127
      3  C3A       17.8540    1.4640   28.4570 C.2   314  DPM314      0.0028
      4  C4A       17.5740    2.4650   27.5710 C.2   314  DPM314      0.1100
      5  C5A       16.8380   -0.9120   28.9160 C.3   314  DPM314      0.1423
      6  C6A       17.6890   -2.0300   28.3300 C.2   314  DPM314      0.3693
      7  C7A       18.9800    1.4630   29.4630 C.3   314  DPM314      0.0402
      8  C8A       18.5150    1.5360   30.8980 C.3   314  DPM314      0.1188
      9  C9A       19.6630    1.5110   31.8910 C.2   314  DPM314      0.3652
     10  CHA       15.0600    0.1070   26.4020 C.3   314  DPM314      0.0660
     11  NA        16.5440    2.0580   26.7700 N.2   314  DPM314     -0.4108
     12  O1A       17.3990   -3.2030   28.6260 O.co2 314  DPM314     -0.2453
     13  O2A       18.6440   -1.7470   27.5810 O.co2 314  DPM314     -0.2453
     14  O3A       19.5370    2.1530   32.9450 O.co2 314  DPM314     -0.2456
     15  O4A       20.6950    0.8520   31.6360 O.co2 314  DPM314     -0.2456
     16  C1B       19.0320    3.9460   26.0730 C.2   314  DPM314      0.0478
     17  C2B       20.3810    3.9150   25.8620 C.3   314  DPM314      0.0675
     18  C3B       20.5800    4.0190   24.4480 C.2   314  DPM314     -0.0191
     19  C4B       19.3450    4.1190   23.8760 C.2   314  DPM314      0.0899
     20  C5B       21.4290    3.9040   26.9670 C.3   314  DPM314      0.1237
     21  C6B       22.4060    2.7340   26.9560 C.2   314  DPM314      0.3656
     22  C7B       21.8850    3.9680   23.6900 C.3   314  DPM314      0.0358
     23  C8B       22.1680    2.6140   23.0020 C.3   314  DPM314      0.1184
     24  C9B       21.3970    2.3910   21.7000 C.2   314  DPM314      0.3652
     25  CHB       18.2050    3.8250   27.3450 C.3   314  DPM314      0.1001
     26  NB        18.4070    4.0690   24.8640 N.2   314  DPM314     -0.2523
     27  O1B       21.9720    1.5660   26.9350 O.co2 314  DPM314     -0.2456
     28  O2B       23.6210    2.9880   26.9980 O.co2 314  DPM314     -0.2456
     29  O3B       21.2610    1.2280   21.2790 O.co2 314  DPM314     -0.2456
     30  O4B       20.9550    3.3720   21.0720 O.co2 314  DPM314     -0.2456
@<TRIPOS>BOND
     1    30    24   ar
     2    29    24   ar
     3    24    23    1
     4    23    22    1
     5    22    18    1
     6    19    18    2
     7    19    26    1
     8    18    17    1
     9    26    16    2
    10    17    16    1
    11    17    20    1
    12    16    25    1
    13    10     1    1
    14    11     1    2
    15    11     4    2
    16    27    21   ar
    17    21    20    1
    18    21    28   ar
    19     1     2    1
    20    25     4    1
    21     4     3    1
    22    13     6   ar
    23     2     3    2
    24     2     5    1
    25     6    12   ar
    26     6     5    1
    27     3     7    1
    28     7     8    1
    29     8     9    1
    30    15     9   ar
    31     9    14   ar
