@<TRIPOS>MOLECULE
2ypo_PHE_A_1.pdb
 12 12 0 0 0
SMALL
GASTEIGER

@<TRIPOS>ATOM
      1  N         80.2060  -61.0600   18.5260 N.3   900  PHE900     -0.1205
      2  CA        81.6350  -61.0050   18.9940 C.3   900  PHE900      0.1986
      3  C         82.5860  -60.7140   17.8180 C.2   900  PHE900      0.3822
      4  O         83.6760  -60.1470   18.0240 O.co2 900  PHE900     -0.2440
      5  CB        82.0100  -62.3060   19.7080 C.3   900  PHE900      0.0569
      6  CG        81.7820  -63.5570   18.9070 C.ar  900  PHE900     -0.0202
      7  CD1       82.8030  -64.0650   18.1260 C.ar  900  PHE900     -0.0042
      8  CD2       80.6170  -64.3060   19.0600 C.ar  900  PHE900     -0.0042
      9  CE1       82.5880  -65.2300   17.3900 C.ar  900  PHE900     -0.0003
     10  CE2       80.4150  -65.4760   18.3310 C.ar  900  PHE900     -0.0003
     11  CZ        81.3950  -65.9410   17.4990 C.ar  900  PHE900     -0.0000
     12  OXT       82.3080  -61.0380   16.6250 O.co2 900  PHE900     -0.2440
@<TRIPOS>BOND
     1    12     3   ar
     2     9    11   ar
     3     9     7   ar
     4    11    10   ar
     5     3     4   ar
     6     3     2    1
     7     7     6   ar
     8    10     8   ar
     9     1     2    1
    10     6     8   ar
    11     6     5    1
    12     2     5    1
