@<TRIPOS>MOLECULE
2ypp_TYR_A_1.pdb
 13 13 0 0 0
SMALL
GASTEIGER

@<TRIPOS>ATOM
      1  N         92.9520  -38.7030  -18.4690 N.3   800  TYR800     -0.1205
      2  CA        93.3150  -40.0780  -18.9820 C.3   800  TYR800      0.1986
      3  C         93.6010  -41.0200  -17.7660 C.2   800  TYR800      0.3822
      4  O         93.8150  -40.5520  -16.6500 O.co2 800  TYR800     -0.2440
      5  CB        94.5600  -39.9780  -19.8060 C.3   800  TYR800      0.0569
      6  CG        95.8200  -39.4520  -19.0930 C.ar  800  TYR800     -0.0200
      7  CD1       95.9870  -38.1090  -18.8050 C.ar  800  TYR800     -0.0009
      8  CD2       96.8920  -40.2570  -18.9320 C.ar  800  TYR800     -0.0009
      9  CE1       97.1520  -37.6190  -18.2350 C.ar  800  TYR800      0.0417
     10  CE2       98.0590  -39.7960  -18.3680 C.ar  800  TYR800      0.0417
     11  CZ        98.1850  -38.4840  -18.0220 C.ar  800  TYR800      0.1957
     12  OH        99.4000  -38.0930  -17.5320 O.3   800  TYR800     -0.2866
     13  OXT       93.5430  -42.2440  -17.9420 O.co2 800  TYR800     -0.2440
@<TRIPOS>BOND
     1     5     6    1
     2     5     2    1
     3     6     8   ar
     4     6     7   ar
     5     2     1    1
     6     2     3    1
     7     8    10   ar
     8     7     9   ar
     9    10    11   ar
    10     9    11   ar
    11    11    12    1
    12    13     3   ar
    13     3     4   ar
