@<TRIPOS>MOLECULE
2ypq_TRP_A_1.pdb
 15 16 0 0 0
SMALL
GASTEIGER

@<TRIPOS>ATOM
      1  CD2      114.7650  -10.7390  -24.8370 C.2   1464  TRP1464     0.0115
      2  CE3      115.7840  -10.5800  -25.6970 C.2   1464  TRP1464     0.0006
      3  CZ3      116.8610  -11.4850  -25.6710 C.2   1464  TRP1464    -0.0042
      4  CH2      116.9360  -12.5200  -24.7650 C.2   1464  TRP1464    -0.0198
      5  CZ2      115.9020  -12.7250  -23.8570 C.3   1464  TRP1464     0.0717
      6  CE2      114.8640  -11.7870  -23.8490 C.2   1464  TRP1464     0.0631
      7  NE1      113.8020  -11.6560  -23.0470 N.2   1464  TRP1464    -0.2482
      8  CD1      112.9880  -10.6520  -23.4610 C.2   1464  TRP1464     0.0942
      9  CG       113.5150  -10.0190  -24.5570 C.2   1464  TRP1464     0.0001
     10  CB       112.9650   -8.7940  -25.2280 C.3   1464  TRP1464     0.0585
     11  CA       112.1050   -9.0220  -26.4540 C.3   1464  TRP1464     0.1987
     12  N        110.9230   -9.8060  -26.0960 N.3   1464  TRP1464    -0.1205
     13  C        113.0170   -9.7350  -27.3680 C.2   1464  TRP1464     0.3822
     14  O        112.9100  -10.7800  -28.0320 O.co2 1464  TRP1464    -0.2440
     15  OXT      114.0500   -9.1950  -27.0710 O.co2 1464  TRP1464    -0.2440
@<TRIPOS>BOND
     1    14    13   ar
     2    13    15   ar
     3    13    11    1
     4    11    12    1
     5    11    10    1
     6     2     3    1
     7     2     1    2
     8     3     4    2
     9    10     9    1
    10     1     9    1
    11     1     6    1
    12     4     5    1
    13     9     8    2
    14     5     6    1
    15     6     7    2
    16     8     7    1
