@<TRIPOS>MOLECULE
2ypq_TYR_A_1.pdb
 13 13 0 0 0
SMALL
GASTEIGER

@<TRIPOS>ATOM
      1  O        109.1490  -40.9790  -27.3240 O.co2 1465  TYR1465    -0.2440
      2  C        109.8120  -40.9350  -26.2950 C.2   1465  TYR1465     0.3822
      3  OXT      110.2060  -41.9910  -25.8220 O.co2 1465  TYR1465    -0.2440
      4  CA       110.0360  -39.6800  -25.4640 C.3   1465  TYR1465     0.1986
      5  N        110.6600  -38.3630  -25.7480 N.3   1465  TYR1465    -0.1205
      6  CB       109.0070  -39.5590  -24.3760 C.3   1465  TYR1465     0.0569
      7  CG       107.7060  -39.2210  -25.0300 C.ar  1465  TYR1465    -0.0200
      8  CD1      107.4520  -37.9240  -25.4770 C.ar  1465  TYR1465    -0.0009
      9  CE1      106.2530  -37.6070  -26.1150 C.ar  1465  TYR1465     0.0417
     10  CZ       105.2910  -38.5990  -26.3240 C.ar  1465  TYR1465     0.1957
     11  OH       104.0910  -38.2540  -26.9240 O.3   1465  TYR1465    -0.2866
     12  CE2      105.5860  -39.8970  -25.9640 C.ar  1465  TYR1465     0.0417
     13  CD2      106.7940  -40.2110  -25.3390 C.ar  1465  TYR1465    -0.0009
@<TRIPOS>BOND
     1     1     2   ar
     2    11    10    1
     3    10     9   ar
     4    10    12   ar
     5     2     3   ar
     6     2     4    1
     7     9     8   ar
     8    12    13   ar
     9     5     4    1
    10     8     7   ar
    11     4     6    1
    12    13     7   ar
    13     7     6    1
