@<TRIPOS>MOLECULE
2ypt_III_F_1.pdb
 19 18 0 0 0
SMALL
GASTEIGER

@<TRIPOS>ATOM
      1  N        151.1890  213.6010  172.2600 N.3   661  CYS661     -0.1221
      2  CA       150.8160  212.5430  171.3230 C.3   661  CYS661      0.1808
      3  C        152.0660  211.8570  170.7370 C.2   661  CYS661      0.2602
      4  O        153.1830  212.3630  170.9010 O.2   661  CYS661     -0.2717
      5  CB       149.9050  213.0880  170.2280 C.3   661  CYS661      0.0970
      6  SG       148.2360  213.5020  170.7980 S.3   661  CYS661     -0.0800
      7  N        151.8700  210.6970  170.0690 N.am  662  SER662     -0.1938
      8  CA       152.9540  209.8890  169.5080 C.3   662  SER662      0.2055
      9  C        152.7950  209.6130  167.9880 C.2   662  SER662      0.2642
     10  O        152.1750  210.4080  167.2750 O.2   662  SER662     -0.2714
     11  CB       153.0540  208.5720  170.2730 C.3   662  SER662      0.2130
     12  OG       151.8850  207.7900  170.0960 O.3   662  SER662     -0.2179
     13  N        153.4110  208.5020  167.5050 N.am  663  ILE663     -0.1977
     14  CA       153.3990  208.0350  166.1130 C.3   663  ILE663      0.1596
     15  C        152.6740  206.6940  166.0600 C.2   663  ILE663      0.2287
     16  O        152.2400  206.2590  164.9970 O.2   663  ILE663     -0.2864
     17  CB       154.8270  207.9230  165.4960 C.3   663  ILE663      0.0276
     18  CG1      155.8540  208.8250  166.1940 C.3   663  ILE663      0.0022
     19  CG2      154.8030  208.1800  163.9930 C.3   663  ILE663      0.0022
@<TRIPOS>BOND
     1    19    17    1
     2    16    15    2
     3    17    14    1
     4    17    18    1
     5    15    14    1
     6    14    13    1
     7    10     9    2
     8    13     9   am
     9     9     8    1
    10     8     7    1
    11     8    11    1
    12     7     3   am
    13    12    11    1
    14     5     6    1
    15     5     2    1
    16     3     4    2
    17     3     2    1
    18     2     1    1
