@<TRIPOS>MOLECULE
2ypu_I41_A_1.pdb
 27 28 0 0 0
SMALL
GASTEIGER

@<TRIPOS>ATOM
      1  O04      107.4410  -71.9160  -10.5710 O.2   1999  I411999    -0.2482
      2  C03      107.8940  -71.1630   -9.7040 C.2   1999  I411999     0.3375
      3  O02      108.9900  -71.7480   -8.9110 O.3   1999  I411999    -0.4432
      4  C01      109.1110  -73.1760   -8.7970 C.3   1999  I411999     0.2557
      5  C05      107.2840  -69.7610   -9.5380 C.3   1999  I411999     0.1994
      6  C06      108.2000  -68.7780   -8.8360 C.3   1999  I411999     0.0801
      7  C07      108.0930  -67.4580   -9.5560 C.2   1999  I411999     0.0769
      8  C08      108.6120  -66.2400   -9.0400 C.2   1999  I411999     0.1098
      9  N09      108.3880  -65.2670   -9.9570 N.2   1999  I411999    -0.2415
     10  C10      107.7130  -65.9160  -10.9700 C.3   1999  I411999     0.2505
     11  N11      107.5130  -67.2580  -10.7720 N.2   1999  I411999    -0.2470
     12  N12      106.0480  -69.7580   -8.7450 N.am  1999  I411999    -0.1942
     13  C13      104.8560  -70.1240   -9.2720 C.2   1999  I411999     0.2582
     14  O14      104.6860  -70.4560  -10.4560 O.2   1999  I411999    -0.2718
     15  C15      103.6670  -70.1010   -8.3040 C.3   1999  I411999     0.1609
     16  N16      103.0980  -71.4400   -8.0070 N.3   1999  I411999    -0.2515
     17  C17      102.5230  -72.0250   -9.2460 C.3   1999  I411999     0.1884
     18  C18      101.6830  -71.1460  -10.1840 C.2   1999  I411999     0.3809
     19  O19      102.2300  -70.6800  -11.1940 O.co2 1999  I411999    -0.2441
     20  O20      100.4750  -70.9400   -9.9760 O.co2 1999  I411999    -0.2441
     21  C21      104.0720  -72.4360   -7.4770 C.3   1999  I411999     0.0999
     22  C22      104.2920  -72.4280   -5.9500 C.ar  1999  I411999    -0.0061
     23  C23      105.4420  -73.0910   -5.4140 C.ar  1999  I411999    -0.0029
     24  C24      105.6830  -73.1070   -4.0180 C.ar  1999  I411999    -0.0003
     25  C25      104.7810  -72.4640   -3.1320 C.ar  1999  I411999    -0.0000
     26  C26      103.6390  -71.8000   -3.6500 C.ar  1999  I411999    -0.0003
     27  C27      103.3950  -71.7770   -5.0500 C.ar  1999  I411999    -0.0029
@<TRIPOS>BOND
     1    19    18   ar
     2    10    11    1
     3    10     9    1
     4    11     7    2
     5     1     2    2
     6    14    13    2
     7    18    20   ar
     8    18    17    1
     9     9     8    2
    10     2     5    1
    11     2     3    1
    12     7     8    1
    13     7     6    1
    14     5     6    1
    15     5    12    1
    16    13    12   am
    17    13    15    1
    18    17    16    1
    19     3     4    1
    20    15    16    1
    21    16    21    1
    22    21    22    1
    23    22    23   ar
    24    22    27   ar
    25    23    24   ar
    26    27    26   ar
    27    24    25   ar
    28    26    25   ar
