@<TRIPOS>MOLECULE
2yq5_NAD_A_1.pdb
 44 48 0 0 0
SMALL
GASTEIGER

@<TRIPOS>ATOM
      1  PA        21.6350   17.7680   50.2830 P.3     0  NAD0        0.2189
      2  O1A       21.5200   16.8050   49.1130 O.2     0  NAD0       -0.5170
      3  O2A       23.0050   18.0500   50.6090 O.3     0  NAD0       -0.4371
      4  O5B       20.8870   19.0170   50.0710 O.3     0  NAD0       -0.3112
      5  C5B       21.2280   20.0750   50.8480 C.3     0  NAD0        0.1813
      6  C4B       20.9890   21.3550   50.1400 C.3     0  NAD0        0.1821
      7  O4B       21.3060   22.1890   51.1330 O.3     0  NAD0       -0.3135
      8  C3B       22.0660   21.6190   49.1440 C.3     0  NAD0        0.2184
      9  O3B       21.4610   21.7340   47.8790 O.3     0  NAD0       -0.2174
     10  C2B       22.5330   22.9780   49.5360 C.3     0  NAD0        0.2570
     11  O2B       22.3810   23.8100   48.4020 O.3     0  NAD0       -0.2130
     12  C1B       21.4990   23.3580   50.5610 C.3     0  NAD0        0.3186
     13  N9A       22.1140   24.0930   51.6240 N.pl3   0  NAD0       -0.1439
     14  C8A       23.2140   23.7510   52.2460 C.3     0  NAD0        0.3377
     15  N7A       23.4760   24.6450   53.1640 N.2     0  NAD0       -0.2095
     16  C5A       22.5530   25.5640   53.1250 C.2     0  NAD0        0.2526
     17  C6A       22.3430   26.7050   53.8400 C.2     0  NAD0        0.4393
     18  N6A       23.1650   27.0700   54.7730 N.pl3   0  NAD0        0.2180
     19  N1A       21.3060   27.4490   53.5770 N.2     0  NAD0        0.0021
     20  C2A       20.4850   27.0800   52.6280 C.3     0  NAD0        0.5254
     21  N3A       20.6520   25.9920   51.9150 N.2     0  NAD0       -0.0055
     22  C4A       21.6880   25.2170   52.1380 C.2     0  NAD0        0.3518
     23  O3        20.9960   17.0040   51.4480 O.3     0  NAD0       -0.2703
     24  PN        19.7400   16.1290   51.4570 P.3     0  NAD0        0.2189
     25  O1N       18.5770   16.7950   50.9330 O.2     0  NAD0       -0.5170
     26  O2N       20.0870   14.8130   51.0300 O.3     0  NAD0       -0.4371
     27  O5D       19.5080   16.0830   52.9490 O.3     0  NAD0       -0.3112
     28  C5D       18.8390   17.1430   53.5990 C.3     0  NAD0        0.1813
     29  C4D       18.5530   16.8620   55.0790 C.3     0  NAD0        0.1799
     30  O4D       17.8510   15.6380   55.2910 O.3     0  NAD0       -0.3327
     31  C3D       19.8450   16.7100   55.8610 C.3     0  NAD0        0.2158
     32  O3D       19.7340   17.4340   57.0650 O.3     0  NAD0       -0.2175
     33  C2D       19.8320   15.2440   56.0920 C.3     0  NAD0        0.2309
     34  O2D       20.6130   14.9520   57.1900 O.3     0  NAD0       -0.2158
     35  C1D       18.3990   15.0810   56.4300 C.3     0  NAD0        0.2263
     36  N1N       17.9400   13.6960   56.3820 N.pl3   0  NAD0       -0.2787
     37  C2N       16.9910   13.2340   57.2520 C.3     0  NAD0        0.1244
     38  C3N       16.5830   11.9260   57.1750 C.2     0  NAD0        0.0544
     39  C7N       15.5310   11.3870   58.0920 C.2     0  NAD0        0.2818
     40  O7N       15.5860   10.2710   58.5630 O.2     0  NAD0       -0.2670
     41  N7N       14.5390   12.1940   58.2730 N.am    0  NAD0       -0.0839
     42  C4N       17.1100   11.0790   56.2370 C.2     0  NAD0        0.0033
     43  C5N       18.0580   11.5270   55.3630 C.2     0  NAD0        0.0157
     44  C6N       18.4470   12.8370   55.4400 C.2     0  NAD0        0.0633
@<TRIPOS>BOND
     1     9     8    1
     2    11    10    1
     3     2     1    2
     4     8    10    1
     5     8     6    1
     6    10    12    1
     7     4     1    1
     8     4     5    1
     9     6     5    1
    10     6     7    1
    11     1     3    1
    12     1    23    1
    13    12     7    1
    14    12    13    1
    15    25    24    2
    16    26    24    1
    17    23    24    1
    18    24    27    1
    19    13    22    1
    20    13    14    1
    21    21    22    2
    22    21    20    1
    23    22    16    1
    24    14    15    1
    25    20    19    1
    26    27    28    1
    27    16    15    2
    28    16    17    1
    29    19    17    2
    30    28    29    1
    31    17    18    1
    32    29    30    1
    33    29    31    1
    34    30    35    1
    35    43    44    2
    36    43    42    1
    37    44    36    1
    38    31    33    1
    39    31    32    1
    40    33    35    1
    41    33    34    1
    42    42    38    2
    43    36    35    1
    44    36    37    1
    45    38    37    1
    46    38    39    1
    47    39    41   am
    48    39    40    2
