@<TRIPOS>MOLECULE
2yqh_GN1_A_1.pdb
 19 19 0 0 0
SMALL
GASTEIGER

@<TRIPOS>ATOM
      1  C1'       13.2270   -4.2770   19.8630 C.3   1001  GN11001     0.2675
      2  OP1       14.1470   -4.9930   22.5350 O.3   1001  GN11001    -0.1145
      3  P         14.7410   -5.7210   21.4320 P.3   1001  GN11001     0.5345
      4  OP2       16.1980   -5.6980   21.5370 O.2   1001  GN11001    -0.2223
      5  OP3       14.2940   -7.0910   21.6570 O.3   1001  GN11001    -0.1145
      6  C2'       12.3320   -4.7180   18.6650 C.3   1001  GN11001     0.1846
      7  C3'       13.1380   -4.6680   17.3480 C.3   1001  GN11001     0.2094
      8  C4'       13.6440   -3.2290   17.1090 C.3   1001  GN11001     0.2136
      9  C5'       14.5080   -2.8050   18.3260 C.3   1001  GN11001     0.1834
     10  C6'       14.8550   -1.3160   18.2830 C.3   1001  GN11001     0.2142
     11  C8'        9.9700   -7.6130   19.4760 C.3   1001  GN11001     0.0964
     12  O1'       14.2980   -5.1920   20.0190 O.3   1001  GN11001    -0.2425
     13  O3'       12.3310   -5.0600   16.2250 O.3   1001  GN11001    -0.2183
     14  O4'       14.4040   -3.1020   15.8900 O.3   1001  GN11001    -0.2176
     15  O5'       13.7520   -2.9580   19.5690 O.3   1001  GN11001    -0.3259
     16  N2'       11.8170   -6.0860   18.8470 N.am  1001  GN11001    -0.1992
     17  C7'       10.5260   -6.2260   19.2900 C.2   1001  GN11001     0.2420
     18  O6'       15.7310   -1.0340   19.3650 O.3   1001  GN11001    -0.2176
     19  O7'        9.8010   -5.2590   19.5400 O.2   1001  GN11001    -0.2733
@<TRIPOS>BOND
     1    14     8    1
     2    13     7    1
     3     8     7    1
     4     8     9    1
     5     7     6    1
     6    10     9    1
     7    10    18    1
     8     9    15    1
     9     6    16    1
    10     6     1    1
    11    16    17   am
    12    17    11    1
    13    17    19    2
    14    15     1    1
    15     1    12    1
    16    12     3    1
    17     3     4    2
    18     3     5    1
    19     3     2    1
