@<TRIPOS>MOLECULE
2yqj_UD1_A_1.pdb
 39 41 0 0 0
SMALL
GASTEIGER

@<TRIPOS>ATOM
      1  C1'       13.2190   -4.2710   19.9590 C.3   1001  UD11001     0.2633
      2  C2'       12.3590   -4.7170   18.7420 C.3   1001  UD11001     0.1845
      3  C3'       13.2520   -4.7020   17.4650 C.3   1001  UD11001     0.2094
      4  C4'       13.7410   -3.2330   17.2630 C.3   1001  UD11001     0.2136
      5  C5'       14.5410   -2.8090   18.5000 C.3   1001  UD11001     0.1834
      6  C6'       14.8880   -1.3170   18.4220 C.3   1001  UD11001     0.2142
      7  C7'       10.5900   -6.1850   19.5550 C.2   1001  UD11001     0.2420
      8  C8'       10.0200   -7.5580   19.8080 C.3   1001  UD11001     0.0964
      9  N2'       11.8190   -6.0760   18.9660 N.am  1001  UD11001    -0.1992
     10  O1'       14.2990   -5.1810   20.1140 O.3   1001  UD11001    -0.2864
     11  O3'       12.4880   -5.1010   16.3150 O.3   1001  UD11001    -0.2183
     12  O4'       14.5700   -3.0520   16.1050 O.3   1001  UD11001    -0.2176
     13  O5'       13.7250   -2.9500   19.6870 O.3   1001  UD11001    -0.3260
     14  O6'       15.7580   -1.0140   19.4930 O.3   1001  UD11001    -0.2176
     15  O7'        9.9360   -5.2010   19.8940 O.2   1001  UD11001    -0.2733
     16  N1         8.9420   -5.1350   26.5530 N.am  1001  UD11001    -0.1766
     17  C2         7.8040   -5.2370   27.3970 C.1   1001  UD11001     0.2845
     18  N3         7.5500   -6.5220   27.8170 N.2   1001  UD11001    -0.2452
     19  C4         8.2870   -7.6870   27.4990 C.1   1001  UD11001     0.2182
     20  C5         9.4360   -7.4850   26.6290 C.2   1001  UD11001     0.1242
     21  C6         9.7210   -6.2590   26.1960 C.2   1001  UD11001     0.0929
     22  O2         7.0940   -4.2720   27.7420 O.2   1001  UD11001    -0.1918
     23  O4         7.9080   -8.7410   27.9670 O.2   1001  UD11001    -0.2085
     24  C1B        9.2890   -3.7810   26.0730 C.3   1001  UD11001     0.2401
     25  C2B       10.5960   -3.2270   26.5780 C.3   1001  UD11001     0.2319
     26  O2'       10.3410   -2.5930   27.8370 O.3   1001  UD11001    -0.2157
     27  C3B       10.9440   -2.1880   25.4830 C.3   1001  UD11001     0.2158
     28  C4B       10.4030   -2.8190   24.1850 C.3   1001  UD11001     0.1799
     29  O4B        9.3630   -3.7590   24.6470 O.3   1001  UD11001    -0.3320
     30  O3B       10.3100   -0.9320   25.7810 O.3   1001  UD11001    -0.2175
     31  C5B       11.3990   -3.6220   23.3390 C.3   1001  UD11001     0.1813
     32  O5B       12.0040   -4.6300   24.1280 O.3   1001  UD11001    -0.3112
     33  PA        13.5270   -5.0360   23.9970 P.3   1001  UD11001     0.2189
     34  O1A       14.4400   -3.9720   24.5380 O.2   1001  UD11001    -0.5170
     35  O2A       13.7750   -6.3230   24.6760 O.3   1001  UD11001    -0.4371
     36  O3A       13.7250   -5.4150   22.6170 O.3   1001  UD11001    -0.2703
     37  PB        14.7850   -5.6720   21.5510 P.3   1001  UD11001     0.2208
     38  O1B       16.0730   -5.0220   21.8760 O.3   1001  UD11001    -0.4371
     39  O2B       14.9940   -7.1590   21.6180 O.2   1001  UD11001    -0.5170
@<TRIPOS>BOND
     1    12     4    1
     2    11     3    1
     3     4     3    1
     4     4     5    1
     5     3     2    1
     6     6     5    1
     7     6    14    1
     8     5    13    1
     9     2     9    1
    10     2     1    1
    11     9     7   am
    12     7     8    1
    13     7    15    2
    14    13     1    1
    15     1    10    1
    16    10    37    1
    17    37    39    2
    18    37    38    1
    19    37    36    1
    20    36    33    1
    21    31    32    1
    22    31    28    1
    23    33    32    1
    24    33    34    2
    25    33    35    1
    26    28    29    1
    27    28    27    1
    28    29    24    1
    29    27    30    1
    30    27    25    1
    31    24    16    1
    32    24    25    1
    33    21    16    1
    34    21    20    2
    35    16    17   am
    36    25    26    1
    37    20    19    1
    38    17    22    2
    39    17    18    2
    40    19    18    2
    41    19    23    2
