@<TRIPOS>MOLECULE
2yqs_UD1_A_1.pdb
 39 41 0 0 0
SMALL
GASTEIGER

@<TRIPOS>ATOM
      1  C1'       10.0420   -4.6370   32.7310 C.3   1001  UD11001     0.2633
      2  C2'       10.4380   -5.6660   33.7990 C.3   1001  UD11001     0.1845
      3  C3'       10.5220   -7.0810   33.1370 C.3   1001  UD11001     0.2094
      4  C4'        9.1270   -7.4360   32.5630 C.3   1001  UD11001     0.2136
      5  C5'        8.7700   -6.3560   31.5140 C.3   1001  UD11001     0.1834
      6  C6'        7.3540   -6.5450   30.9710 C.3   1001  UD11001     0.2142
      7  C7'       11.7930   -4.5550   35.5020 C.2   1001  UD11001     0.2420
      8  C8'       13.1340   -4.1890   36.0940 C.3   1001  UD11001     0.0964
      9  N2'       11.7560   -5.3140   34.3740 N.am  1001  UD11001    -0.1992
     10  O1'       11.0410   -4.6200   31.7360 O.3   1001  UD11001    -0.2864
     11  O3'       10.8790   -8.0680   34.1080 O.3   1001  UD11001    -0.2183
     12  O4'        9.0870   -8.7360   31.9360 O.3   1001  UD11001    -0.2176
     13  O5'        8.7810   -5.0420   32.1370 O.3   1001  UD11001    -0.3260
     14  O6'        7.1190   -5.5000   30.0200 O.3   1001  UD11001    -0.2176
     15  O7'       10.7660   -4.1590   36.0510 O.2   1001  UD11001    -0.2733
     16  N1        10.6730    2.6940   35.9550 N.am  1001  UD11001    -0.1766
     17  C2        10.7390    3.7040   36.9540 C.1   1001  UD11001     0.2845
     18  N3        12.0160    4.1400   37.2070 N.2   1001  UD11001    -0.2452
     19  C4        13.2090    3.6850   36.5840 C.1   1001  UD11001     0.2182
     20  C5        13.0340    2.6490   35.5810 C.2   1001  UD11001     0.1242
     21  C6        11.8160    2.1990   35.3040 C.2   1001  UD11001     0.0929
     22  O2         9.7440    4.1600   37.5440 O.2   1001  UD11001    -0.1918
     23  O4        14.2680    4.1830   36.9260 O.2   1001  UD11001    -0.2085
     24  C1B        9.3140    2.1800   35.6150 C.3   1001  UD11001     0.2401
     25  C2B        8.8430    2.3980   34.1890 C.3   1001  UD11001     0.2319
     26  O2'        8.2050    3.6700   34.1020 O.3   1001  UD11001    -0.2157
     27  C3B        7.8270    1.2370   34.0170 C.3   1001  UD11001     0.2158
     28  C4B        8.4180    0.1010   34.8660 C.3   1001  UD11001     0.1799
     29  O4B        9.2780    0.7750   35.8430 O.3   1001  UD11001    -0.3320
     30  O3B        6.5390    1.6630   34.4930 O.3   1001  UD11001    -0.2175
     31  C5B        9.3170   -0.8960   34.1530 C.3   1001  UD11001     0.1813
     32  O5B       10.1640   -0.1970   33.2600 O.3   1001  UD11001    -0.3112
     33  PA        11.4210   -0.8730   32.6290 P.3   1001  UD11001     0.2189
     34  O1A       12.2680    0.1030   31.8790 O.2   1001  UD11001    -0.5170
     35  O2A       12.2320   -1.5570   33.6620 O.3   1001  UD11001    -0.4371
     36  O3A       10.8500   -1.9610   31.7320 O.3   1001  UD11001    -0.2703
     37  PB        11.3890   -3.2670   30.9520 P.3   1001  UD11001     0.2208
     38  O1B       10.7000   -3.2000   29.6400 O.2   1001  UD11001    -0.5170
     39  O2B       12.8720   -3.1800   30.6990 O.3   1001  UD11001    -0.4371
@<TRIPOS>BOND
     1    38    37    2
     2    14     6    1
     3    39    37    1
     4    37    36    1
     5    37    10    1
     6     6     5    1
     7     5    13    1
     8     5     4    1
     9    36    33    1
    10    10     1    1
    11    34    33    2
    12    12     4    1
    13    13     1    1
    14     4     3    1
    15    33    32    1
    16    33    35    1
    17     1     2    1
    18     3     2    1
    19     3    11    1
    20    32    31    1
    21     2     9    1
    22    27    25    1
    23    27    30    1
    24    27    28    1
    25    26    25    1
    26    31    28    1
    27    25    24    1
    28     9     7   am
    29    28    29    1
    30    21    20    2
    31    21    16    1
    32     7    15    2
    33     7     8    1
    34    20    19    1
    35    24    29    1
    36    24    16    1
    37    16    17   am
    38    19    23    2
    39    19    18    2
    40    17    18    2
    41    17    22    2
