@<TRIPOS>MOLECULE
2yqz_SAM_A_1.pdb
 27 29 0 0 0
SMALL
GASTEIGER

@<TRIPOS>ATOM
      1  N         20.0490   -3.5350   64.9510 N.3   301  SAM301     -0.1159
      2  CA        19.9190   -2.1000   64.9180 C.3   301  SAM301      0.2168
      3  C         18.9580   -1.5370   63.7930 C.2   301  SAM301      0.3860
      4  O         18.6960   -0.3440   63.7670 O.co2 301  SAM301     -0.2437
      5  OXT       18.5430   -2.3850   63.0080 O.co2 301  SAM301     -0.2437
      6  CB        21.3260   -1.5060   64.7740 C.2   301  SAM301      0.0097
      7  CG        21.9470   -1.6060   63.3700 C.2   301  SAM301      0.0191
      8  SD        23.5440   -0.9260   63.1200 S.3   301  SAM301     -0.1536
      9  CE        23.9960   -1.1490   61.4280 C.3   301  SAM301      0.0636
     10  C5'       24.8610   -1.9520   63.7150 C.3   301  SAM301      0.0847
     11  C4'       25.1120   -2.1250   65.2050 C.3   301  SAM301      0.1625
     12  O4'       25.9070   -3.2160   65.6430 O.3   301  SAM301     -0.3153
     13  C3'       25.7050   -0.9330   65.7760 C.3   301  SAM301      0.2168
     14  O3'       24.9570   -0.5050   66.8180 O.3   301  SAM301     -0.2175
     15  C2'       27.1340   -1.3790   66.1040 C.3   301  SAM301      0.2569
     16  O2'       27.6570   -0.6850   67.0860 O.3   301  SAM301     -0.2130
     17  C1'       26.8950   -2.8200   66.4510 C.3   301  SAM301      0.3185
     18  N9        27.9590   -3.7320   66.3420 N.pl3 301  SAM301     -0.1439
     19  C8        28.8150   -3.8570   65.2730 C.3   301  SAM301      0.3377
     20  N7        29.6950   -4.8100   65.5140 N.2   301  SAM301     -0.2095
     21  C5        29.4010   -5.3100   66.7560 C.2   301  SAM301      0.2526
     22  C6        29.9230   -6.3290   67.6250 C.2   301  SAM301      0.4393
     23  N6        30.8710   -6.9840   67.2880 N.pl3 301  SAM301      0.2180
     24  N1        29.3550   -6.5630   68.8270 N.2   301  SAM301      0.0021
     25  C2        28.3190   -5.8470   69.2050 C.3   301  SAM301      0.5254
     26  N3        27.8390   -4.9240   68.4370 N.2   301  SAM301     -0.0055
     27  C4        28.3050   -4.6140   67.2520 C.2   301  SAM301      0.3518
@<TRIPOS>BOND
     1     9     8    1
     2     5     3   ar
     3     8     7    1
     4     8    10    1
     5     7     6    2
     6    10    11    1
     7     4     3   ar
     8     3     2    1
     9     6     2    1
    10     2     1    1
    11    11    12    1
    12    11    13    1
    13    19    20    1
    14    19    18    1
    15    20    21    2
    16    12    17    1
    17    13    15    1
    18    13    14    1
    19    15    17    1
    20    15    16    1
    21    18    17    1
    22    18    27    1
    23    21    27    1
    24    21    22    1
    25    27    26    2
    26    23    22    1
    27    22    24    2
    28    26    25    1
    29    24    25    1
