@<TRIPOS>MOLECULE
2yr6_BE2_A_1.pdb
 10 10 0 0 0
SMALL
GASTEIGER

@<TRIPOS>ATOM
      1  C         97.0480   56.5540   90.4470 C.2   906  BE2906      0.3891
      2  O1        98.2570   56.1590   90.5470 O.co2 906  BE2906     -0.2405
      3  O2        96.3800   56.8610   89.4230 O.co2 906  BE2906     -0.2405
      4  C1        96.2610   56.8180   91.7300 C.ar  906  BE2906      0.0965
      5  C2        96.7290   56.5570   93.0400 C.ar  906  BE2906      0.0954
      6  C3        95.9990   56.9020   94.1810 C.ar  906  BE2906      0.0183
      7  N2        98.0340   56.1030   93.1910 N.pl3 906  BE2906     -0.1278
      8  C4        94.7380   57.4450   94.0440 C.ar  906  BE2906      0.0014
      9  C5        94.1030   57.5710   92.7850 C.ar  906  BE2906      0.0003
     10  C6        94.9500   57.3120   91.6590 C.ar  906  BE2906      0.0079
@<TRIPOS>BOND
     1     3     1   ar
     2     1     2   ar
     3     1     4    1
     4    10     4   ar
     5    10     9   ar
     6     4     5   ar
     7     9     8   ar
     8     5     7    1
     9     5     6   ar
    10     8     6   ar
