@<TRIPOS>MOLECULE
2yri_PMP_B_1.pdb
 16 16 0 0 0
SMALL
GASTEIGER

@<TRIPOS>ATOM
      1  N1        68.7580   37.3360   96.7430 N.ar  501  PMP501     -0.2452
      2  C2        67.7470   37.8760   97.4700 C.ar  501  PMP501      0.0978
      3  C2A       67.7250   37.7050   98.9890 C.3   501  PMP501      0.0555
      4  C3        66.7710   38.5760   96.8060 C.ar  501  PMP501      0.2063
      5  O3        65.6660   39.1410   97.4920 O.3   501  PMP501     -0.2856
      6  C4        66.8840   38.6910   95.4320 C.ar  501  PMP501      0.0369
      7  C4A       65.8750   39.4540   94.7280 C.3   501  PMP501      0.1386
      8  N4A       64.9820   38.6890   94.0430 N.3   501  PMP501     -0.1261
      9  C5        67.9230   38.1410   94.7110 C.ar  501  PMP501      0.0275
     10  C6        68.8390   37.4680   95.3900 C.ar  501  PMP501      0.0965
     11  C5A       68.0760   38.2470   93.1040 C.3   501  PMP501      0.1816
     12  O4P       67.8540   39.5180   92.4530 O.3   501  PMP501     -0.2653
     13  P         67.0230   39.7310   91.0730 P.3   501  PMP501      0.5329
     14  O1P       67.4840   41.2620   90.9480 O.3   501  PMP501     -0.1145
     15  O2P       65.5580   39.6330   91.2120 O.3   501  PMP501     -0.1145
     16  O3P       67.7120   38.8670   90.0750 O.2   501  PMP501     -0.2224
@<TRIPOS>BOND
     1    16    13    2
     2    14    13    1
     3    13    15    1
     4    13    12    1
     5    12    11    1
     6    11     9    1
     7     8     7    1
     8     9    10   ar
     9     9     6   ar
    10     7     6    1
    11    10     1   ar
    12     6     4   ar
    13     1     2   ar
    14     4     2   ar
    15     4     5    1
    16     2     3    1
