@<TRIPOS>MOLECULE
2yri_MMM_A_1.pdb
 23 23 0 0 0
SMALL
GASTEIGER

@<TRIPOS>ATOM
      1  N1        77.9730   39.9570   67.7380 N.2   500  MMM500     -0.2458
      2  C2        78.4750   40.9670   66.9110 C.2   500  MMM500      0.0946
      3  C2A       78.3860   40.5250   65.4570 C.3   500  MMM500      0.0552
      4  C3        78.9680   42.1910   67.5520 C.2   500  MMM500      0.1955
      5  O3        79.3970   43.0270   66.7160 O.2   500  MMM500     -0.2894
      6  C4        78.9570   42.3910   68.9510 C.3   500  MMM500      0.1260
      7  C4A       79.4850   43.6750   69.5610 C.2   500  MMM500      0.0789
      8  C5        78.4110   41.2690   69.6800 C.2   500  MMM500      0.0174
      9  C6        77.9280   40.0780   69.1160 C.2   500  MMM500      0.0932
     10  C5A       78.3010   41.2790   71.2060 C.3   500  MMM500      0.1783
     11  OP4       77.4650   42.2420   71.7380 O.3   500  MMM500     -0.2656
     12  P         77.7150   43.0210   73.1200 P.3   500  MMM500      0.5329
     13  OP1       76.5310   43.7360   73.5400 O.3   500  MMM500     -0.1145
     14  OP2       79.0020   43.7980   72.8740 O.2   500  MMM500     -0.2224
     15  OP3       77.9060   41.9170   74.1300 O.3   500  MMM500     -0.1145
     16  NA        80.5220   44.3500   69.0780 N.2   500  MMM500     -0.2631
     17  CAA       80.9470   45.7620   69.4270 C.3   500  MMM500      0.2072
     18  CBA       81.2510   45.8810   70.9260 C.3   500  MMM500      0.2152
     19  OGA       82.6210   45.4700   71.3090 O.3   500  MMM500     -0.2177
     20  CAB       79.8150   46.7430   69.0820 C.3   500  MMM500      0.0387
     21  CA        82.2030   46.1180   68.5870 C.2   500  MMM500      0.3868
     22  OA        82.1460   45.5250   67.3550 O.co2 500  MMM500     -0.2435
     23  OXT       83.2790   46.6950   69.0730 O.co2 500  MMM500     -0.2435
@<TRIPOS>BOND
     1     3     2    1
     2     5     4    2
     3     2     4    1
     4     2     1    2
     5    22    21   ar
     6     4     6    1
     7     1     9    1
     8    21    23   ar
     9    21    17    1
    10     6     7    1
    11     6     8    1
    12    16    17    1
    13    16     7    2
    14    20    17    1
    15     9     8    2
    16    17    18    1
    17     8    10    1
    18    18    19    1
    19    10    11    1
    20    11    12    1
    21    14    12    2
    22    12    13    1
    23    12    15    1
