@<TRIPOS>MOLECULE
2yrr_PLP_A_1.pdb
 15 15 0 0 0
SMALL
GASTEIGER

@<TRIPOS>ATOM
      1  N1        77.2390   39.7940   67.4530 N.ar  500  PLP500     -0.2452
      2  C2        77.4440   40.8450   66.5860 C.ar  500  PLP500      0.0978
      3  C2A       77.5060   40.5520   65.0820 C.3   500  PLP500      0.0555
      4  C3        77.5930   42.1330   67.0860 C.ar  500  PLP500      0.2049
      5  O3        77.8240   43.2080   66.2400 O.3   500  PLP500     -0.2857
      6  C4        77.5330   42.3530   68.4470 C.ar  500  PLP500      0.0182
      7  C4A       77.6340   43.8160   68.9270 C.3   500  PLP500      0.0342
      8  C5        77.3160   41.2510   69.3120 C.ar  500  PLP500      0.0261
      9  C6        77.1790   39.9960   68.7970 C.ar  500  PLP500      0.0965
     10  C5A       77.2730   41.3220   70.8470 C.3   500  PLP500      0.1815
     11  O4P       76.5650   42.3030   71.5160 O.3   500  PLP500     -0.2653
     12  P         77.0470   42.7920   72.9480 P.3   500  PLP500      0.5329
     13  O1P       75.7190   43.6280   73.0530 O.3   500  PLP500     -0.1145
     14  O2P       78.2270   43.6690   72.9470 O.2   500  PLP500     -0.2224
     15  O3P       77.0060   41.6330   73.8370 O.3   500  PLP500     -0.1145
@<TRIPOS>BOND
     1     3     2    1
     2     5     4    1
     3     2     4   ar
     4     2     1   ar
     5     4     6   ar
     6     1     9   ar
     7     6     7    1
     8     6     8   ar
     9     9     8   ar
    10     8    10    1
    11    10    11    1
    12    11    12    1
    13    14    12    2
    14    12    13    1
    15    12    15    1
