@<TRIPOS>MOLECULE
2yrs_HEM_A_1.pdb
 43 50 0 0 0
SMALL
GASTEIGER

@<TRIPOS>ATOM
      1 FE         29.9020   -5.7350   -2.5560 Fe    142  HEM142      0.0000
      2  CHA       30.5630   -5.8300   -5.7940 C.2   142  HEM142      0.0000
      3  CHB       32.8130   -7.5890   -1.9350 C.2   142  HEM142      0.0000
      4  CHC       28.9250   -6.2900    0.6870 C.2   142  HEM142      0.0000
      5  CHD       26.4550   -4.7390   -3.1800 C.2   142  HEM142      0.0000
      6  NA        31.4570   -6.6430   -3.6920 N.2   142  HEM142      0.0000
      7  C1A       31.5240   -6.4610   -5.0370 C.2   142  HEM142      0.0000
      8  C2A       32.7750   -7.0470   -5.4340 C.2   142  HEM142      0.0000
      9  C3A       33.4090   -7.5540   -4.3800 C.2   142  HEM142      0.0000
     10  C4A       32.5800   -7.2830   -3.2410 C.2   142  HEM142      0.0000
     11  CMA       34.7800   -8.2720   -4.4050 C.3   142  HEM142      0.0000
     12  CAA       33.3480   -7.1390   -6.8440 C.3   142  HEM142      0.0000
     13  CBA       33.5790   -5.7440   -7.3840 C.3   142  HEM142      0.0000
     14  CGA       34.0700   -5.9480   -8.7920 C.2   142  HEM142      0.0000
     15  O1A       35.2940   -6.2610   -8.9470 O.co2 142  HEM142      0.0000
     16  O2A       33.2000   -5.8040   -9.7080 O.co2 142  HEM142      0.0000
     17  NB        30.6700   -6.7660   -0.9610 N.ar  142  HEM142      0.0000
     18  C1B       31.9140   -7.3640   -0.9150 C.ar  142  HEM142      0.0000
     19  C2B       32.1500   -7.8010    0.4250 C.ar  142  HEM142      0.0000
     20  C3B       31.0660   -7.4410    1.1590 C.ar  142  HEM142      0.0000
     21  C4B       30.1180   -6.7890    0.2900 C.ar  142  HEM142      0.0000
     22  CMB       33.4740   -8.5150    0.8240 C.3   142  HEM142      0.0000
     23  CAB       30.8190   -7.6490    2.6720 C.2   142  HEM142      0.0000
     24  CBB       31.4290   -8.6390    3.3320 C.2   142  HEM142      0.0000
     25  NC        27.9480   -5.5180   -1.4240 N.2   142  HEM142      0.0000
     26  C1C       27.8800   -5.8490   -0.0990 C.2   142  HEM142      0.0000
     27  C2C       26.5030   -5.6330    0.3060 C.2   142  HEM142      0.0000
     28  C3C       25.8100   -5.2250   -0.7370 C.2   142  HEM142      0.0000
     29  C4C       26.7100   -5.1220   -1.8610 C.2   142  HEM142      0.0000
     30  CMC       25.9560   -5.8560    1.7480 C.3   142  HEM142      0.0000
     31  CAC       24.3200   -4.8790   -0.7030 C.2   142  HEM142      0.0000
     32  CBC       23.3750   -5.8030   -0.6120 C.2   142  HEM142      0.0000
     33  ND        28.6480   -5.3560   -4.2080 N.ar  142  HEM142      0.0000
     34  C1D       27.3170   -4.9180   -4.2660 C.ar  142  HEM142      0.0000
     35  C2D       27.0060   -4.7010   -5.6600 C.ar  142  HEM142      0.0000
     36  C3D       28.2890   -5.0190   -6.4340 C.ar  142  HEM142      0.0000
     37  C4D       29.2650   -5.4440   -5.4670 C.ar  142  HEM142      0.0000
     38  CMD       25.6990   -4.2110   -6.2910 C.3   142  HEM142      0.0000
     39  CAD       28.4710   -4.9710   -7.9600 C.3   142  HEM142      0.0000
     40  CBD       28.0050   -6.3510   -8.4260 C.3   142  HEM142      0.0000
     41  CGD       27.9410   -6.2920   -9.9350 C.2   142  HEM142      0.0000
     42  O1D       28.7850   -6.9960  -10.5230 O.co2 142  HEM142      0.0000
     43  O2D       27.1040   -5.5360  -10.5320 O.co2 142  HEM142      0.0000
@<TRIPOS>BOND
     1    43    41   ar
     2    42    41   ar
     3    41    40    1
     4    16    14   ar
     5    15    14   ar
     6    14    13    1
     7    40    39    1
     8    39    36    1
     9    13    12    1
    10    12     8    1
    11    36    35   ar
    12    36    37   ar
    13    38    35    1
    14     2    37    2
    15     2     7    1
    16    35    34   ar
    17    37    33   ar
    18     8     7    1
    19     8     9    2
    20     7     6    2
    21    11     9    1
    22     9    10    1
    23    34    33   ar
    24    34     5    2
    25    33     1    1
    26     6    10    1
    27     6     1    1
    28    10     3    2
    29     5    29    1
    30     1    25    1
    31     1    17    1
    32     3    18    1
    33    29    25    2
    34    29    28    1
    35    25    26    1
    36    17    18   ar
    37    17    21   ar
    38    18    19   ar
    39    28    31    1
    40    28    27    2
    41    31    32    2
    42    26    27    1
    43    26     4    2
    44    21     4    1
    45    21    20   ar
    46    27    30    1
    47    19    22    1
    48    19    20   ar
    49    20    23    1
    50    23    24    2
