@<TRIPOS>MOLECULE
2yrx_AMP_A_1.pdb
 23 25 0 0 0
SMALL
GASTEIGER

@<TRIPOS>ATOM
      1  P          3.7070   22.6370   12.0700 P.3   500  AMP500      0.5327
      2  O1P        3.0900   22.6790   13.4190 O.3   500  AMP500     -0.1145
      3  O2P        4.6890   23.9040   11.9000 O.3   500  AMP500     -0.1145
      4  O3P        2.5580   22.6920   10.9360 O.2   500  AMP500     -0.2224
      5  O5'        4.5770   21.2760   11.9120 O.3   500  AMP500     -0.2675
      6  C5'        3.6770   20.1560   11.9810 C.3   500  AMP500      0.1860
      7  C4'        3.9650   19.1700   10.8370 C.3   500  AMP500      0.1823
      8  O4'        4.0500   19.8640    9.5540 O.3   500  AMP500     -0.3135
      9  C3'        5.3070   18.4500   11.0290 C.3   500  AMP500      0.2184
     10  O3'        5.1600   17.2810   11.8450 O.3   500  AMP500     -0.2174
     11  C2'        5.7500   18.1290    9.6020 C.3   500  AMP500      0.2570
     12  O2'        5.3710   16.8020    9.2270 O.3   500  AMP500     -0.2130
     13  C1'        5.0670   19.2020    8.7250 C.3   500  AMP500      0.3186
     14  N9         6.0660   20.1820    8.2410 N.pl3 500  AMP500     -0.1439
     15  C8         6.3280   21.4220    8.7730 C.3   500  AMP500      0.3377
     16  N7         7.2680   22.0180    8.0960 N.2   500  AMP500     -0.2095
     17  C5         7.6760   21.2120    7.0880 C.2   500  AMP500      0.2526
     18  C6         8.6440   21.3090    6.0440 C.2   500  AMP500      0.4393
     19  N6         9.4230   22.4440    5.9090 N.pl3 500  AMP500      0.2180
     20  N1         8.7850   20.2710    5.1880 N.2   500  AMP500      0.0021
     21  C2         8.0410   19.1620    5.2980 C.3   500  AMP500      0.5254
     22  N3         7.1220   19.0300    6.2630 N.2   500  AMP500     -0.0055
     23  C4         6.9090   20.0160    7.1670 C.2   500  AMP500      0.3518
@<TRIPOS>BOND
     1    20    21    1
     2    20    18    2
     3    21    22    1
     4    19    18    1
     5    18    17    1
     6    22    23    2
     7    17    23    1
     8    17    16    2
     9    23    14    1
    10    16    15    1
    11    14    13    1
    12    14    15    1
    13    13     8    1
    14    13    11    1
    15    12    11    1
    16     8     7    1
    17    11     9    1
    18     7     9    1
    19     7     6    1
    20     4     1    2
    21     9    10    1
    22     3     1    1
    23     5     6    1
    24     5     1    1
    25     1     2    1
