@<TRIPOS>MOLECULE
2ys6_AMP_A_1.pdb
 23 25 0 0 0
SMALL
GASTEIGER

@<TRIPOS>ATOM
      1  P          4.1460  -22.8640   36.1240 P.3   432  AMP432      0.5327
      2  O1P        2.9530  -23.2560   35.3610 O.2   432  AMP432     -0.2224
      3  O2P        5.4020  -23.7890   35.7010 O.3   432  AMP432     -0.1145
      4  O3P        3.8300  -22.9700   37.7120 O.3   432  AMP432     -0.1145
      5  O5'        4.4490  -21.3210   35.7750 O.3   432  AMP432     -0.2675
      6  C5'        3.2680  -20.5420   35.9950 C.3   432  AMP432      0.1860
      7  C4'        3.7000  -19.2700   36.7310 C.3   432  AMP432      0.1823
      8  O4'        3.7030  -19.4810   38.1810 O.3   432  AMP432     -0.3135
      9  C3'        5.1290  -18.8390   36.3620 C.3   432  AMP432      0.2184
     10  O3'        5.1620  -18.0800   35.1430 O.3   432  AMP432     -0.2174
     11  C2'        5.5440  -18.0420   37.5980 C.3   432  AMP432      0.2570
     12  O2'        5.0850  -16.6920   37.5090 O.3   432  AMP432     -0.2130
     13  C1'        4.8850  -18.8110   38.7570 C.3   432  AMP432      0.3186
     14  N9         5.8340  -19.8050   39.3150 N.pl3 432  AMP432     -0.1439
     15  C8         5.9350  -21.1340   38.9660 C.3   432  AMP432      0.3377
     16  N7         6.8730  -21.7130   39.6500 N.2   432  AMP432     -0.2095
     17  C5         7.4430  -20.8170   40.4810 C.2   432  AMP432      0.2526
     18  C6         8.4890  -20.8670   41.4450 C.2   432  AMP432      0.4393
     19  N6         9.1640  -22.0450   41.6860 N.pl3 432  AMP432      0.2180
     20  N1         8.8040  -19.7350   42.1190 N.2   432  AMP432      0.0021
     21  C2         8.1590  -18.5810   41.8960 C.3   432  AMP432      0.5254
     22  N3         7.1690  -18.4930   41.0010 N.2   432  AMP432     -0.0055
     23  C4         6.7840  -19.5710   40.2810 C.2   432  AMP432      0.3518
@<TRIPOS>BOND
     1    10     9    1
     2     2     1    2
     3     3     1    1
     4     5     6    1
     5     5     1    1
     6     6     7    1
     7     1     4    1
     8     9     7    1
     9     9    11    1
    10     7     8    1
    11    12    11    1
    12    11    13    1
    13     8    13    1
    14    13    14    1
    15    15    14    1
    16    15    16    1
    17    14    23    1
    18    16    17    2
    19    23    17    1
    20    23    22    2
    21    17    18    1
    22    22    21    1
    23    18    19    1
    24    18    20    2
    25    21    20    1
