@<TRIPOS>MOLECULE
2ytz_SAH_A_1.pdb
 26 28 0 0 0
SMALL
GASTEIGER

@<TRIPOS>ATOM
      1  N         15.2170  133.8520   15.9490 N.pl3 1001  SAH1001    -0.1127
      2  CA        15.7790  135.0840   16.1500 C.2   1001  SAH1001     0.2033
      3  CB        17.0800  134.9130   15.2900 C.1   1001  SAH1001    -0.0700
      4  CG        18.0470  134.1900   14.3910 C.2   1001  SAH1001     0.0740
      5  SD        19.5520  134.4280   13.6010 S.3   1001  SAH1001    -0.1011
      6  C         15.4270  136.2560   16.8510 C.2   1001  SAH1001     0.4114
      7  O         16.5100  136.8170   17.3430 O.co2 1001  SAH1001    -0.2383
      8  OXT       14.2240  136.6250   16.9130 O.co2 1001  SAH1001    -0.2383
      9  C5'       19.6580  132.9450   12.8090 C.3   1001  SAH1001     0.1095
     10  C4'       20.8130  132.0990   13.3930 C.3   1001  SAH1001     0.2184
     11  O4'       20.4690  130.8430   12.8220 O.2   1001  SAH1001    -0.4438
     12  C3'       21.9530  131.8890   14.3580 C.3   1001  SAH1001     0.2603
     13  O3'       21.8910  131.9860   15.8100 O.3   1001  SAH1001    -0.2105
     14  C2'       22.5230  130.5350   13.9570 C.2   1001  SAH1001     0.2803
     15  O2'       23.6430  129.9610   14.3440 O.2   1001  SAH1001    -0.2813
     16  C1'       21.5380  129.9400   12.9800 C.2   1001  SAH1001     0.3290
     17  N9        21.4650  128.6030   12.1510 N.pl3 1001  SAH1001    -0.1135
     18  C8        21.9490  128.5140   10.9260 C.3   1001  SAH1001     0.3431
     19  N7        21.7750  127.3220   10.4630 N.2   1001  SAH1001    -0.2092
     20  C5        21.1750  126.6010   11.3700 C.2   1001  SAH1001     0.2530
     21  C6        20.7330  125.2670   11.4280 C.2   1001  SAH1001     0.4393
     22  N6        20.9320  124.4710   10.3850 N.pl3 1001  SAH1001     0.2180
     23  N1        20.1020  124.7890   12.5790 N.2   1001  SAH1001     0.0021
     24  C2        19.8890  125.5920   13.6690 C.3   1001  SAH1001     0.5254
     25  N3        20.3120  126.8940   13.6330 N.2   1001  SAH1001    -0.0051
     26  C4        20.9500  127.4300   12.5000 C.2   1001  SAH1001     0.3567
@<TRIPOS>BOND
     1    22    21    1
     2    19    18    1
     3    19    20    2
     4    18    17    1
     5    20    21    1
     6    20    26    1
     7    21    23    2
     8    17    26    1
     9    17    16    1
    10    26    25    2
    11    23    24    1
    12     9    10    1
    13     9     5    1
    14    11    16    1
    15    11    10    1
    16    16    14    2
    17    10    12    1
    18     5     4    1
    19    25    24    1
    20    14    15    1
    21    14    12    1
    22    12    13    1
    23     4     3    2
    24     3     2    2
    25     1     2    1
    26     2     6    1
    27     6     8   ar
    28     6     7   ar
