@<TRIPOS>MOLECULE
2yu1_AKG_A_1.pdb
 10 9 0 0 0
SMALL
GASTEIGER

@<TRIPOS>ATOM
      1  C1        49.7970   46.0340   42.3980 C.2   701  AKG701      0.4219
      2  O1        49.1210   45.7790   43.4230 O.co2 701  AKG701     -0.2373
      3  O2        49.6210   47.0210   41.6570 O.co2 701  AKG701     -0.2373
      4  C2        50.9030   45.0410   42.0280 C.2   701  AKG701      0.2526
      5  O5        51.1790   44.1430   42.8190 O.2   701  AKG701     -0.2843
      6  C3        51.6440   45.1700   40.6940 C.3   701  AKG701      0.0881
      7  C4        50.8530   44.5070   39.5640 C.3   701  AKG701      0.1224
      8  C5        51.7530   44.1970   38.3630 C.2   701  AKG701      0.3653
      9  O3        52.9190   44.6320   38.3950 O.co2 701  AKG701     -0.2456
     10  O4        51.2510   43.5020   37.4430 O.co2 701  AKG701     -0.2456
@<TRIPOS>BOND
     1    10     8   ar
     2     8     9   ar
     3     8     7    1
     4     7     6    1
     5     6     4    1
     6     3     1   ar
     7     4     1    1
     8     4     5    2
     9     1     2   ar
