@<TRIPOS>MOLECULE
2yu9_UTP_A_1.pdb
 29 30 0 0 0
SMALL
GASTEIGER

@<TRIPOS>ATOM
      1  PA         0.9020  -42.8710   52.0560 P.3   2003  UTP2003     0.2189
      2  O1A        1.5250  -41.9660   53.0480 O.3   2003  UTP2003    -0.4371
      3  O2A        1.3760  -42.8500   50.6540 O.2   2003  UTP2003    -0.5170
      4  O3A       -0.6870  -42.6160   52.0600 O.3   2003  UTP2003    -0.2700
      5  O5'        1.0030  -44.3800   52.6070 O.3   2003  UTP2003    -0.3112
      6  PB        -1.2640  -41.1310   52.2920 P.3   2003  UTP2003     0.2277
      7  O1B       -0.5050  -40.5000   53.3950 O.3   2003  UTP2003    -0.4368
      8  O2B       -2.7400  -41.2080   52.3770 O.2   2003  UTP2003    -0.5168
      9  O3B       -0.8700  -40.3960   50.9150 O.3   2003  UTP2003    -0.2258
     10  PG        -1.5220  -40.8870   49.5260 P.3   2003  UTP2003     0.5373
     11  O1G       -2.9260  -41.3260   49.6740 O.3   2003  UTP2003    -0.1143
     12  O2G       -0.5580  -42.0520   48.9750 O.3   2003  UTP2003    -0.1143
     13  O3G       -1.3560  -39.6560   48.5020 O.2   2003  UTP2003    -0.2221
     14  C5'        0.2690  -44.7670   53.7710 C.3   2003  UTP2003     0.1813
     15  C4'       -0.9990  -43.9250   53.9250 C.3   2003  UTP2003     0.1799
     16  O4'       -2.0940  -44.5820   53.2680 O.3   2003  UTP2003    -0.3320
     17  C1'       -2.4110  -45.6830   54.1320 C.3   2003  UTP2003     0.2401
     18  C2'       -2.3720  -45.0760   55.5350 C.3   2003  UTP2003     0.2319
     19  O2'       -3.6740  -44.6010   55.8860 O.3   2003  UTP2003    -0.2157
     20  C3'       -1.4160  -43.8900   55.3960 C.3   2003  UTP2003     0.2158
     21  O3'       -2.1210  -42.6750   55.6640 O.3   2003  UTP2003    -0.2175
     22  N1        -1.3650  -46.7240   54.0140 N.am  2003  UTP2003    -0.1766
     23  C6        -0.5260  -46.7520   52.8930 C.2   2003  UTP2003     0.0929
     24  C2        -1.2130  -47.6840   55.0220 C.1   2003  UTP2003     0.2845
     25  O2        -1.9480  -47.6640   56.0080 O.2   2003  UTP2003    -0.1918
     26  N3        -0.2220  -48.6660   54.9050 N.2   2003  UTP2003    -0.2452
     27  C4         0.6120  -48.6850   53.7810 C.1   2003  UTP2003     0.2182
     28  O4         1.4830  -49.5470   53.6770 O.2   2003  UTP2003    -0.2085
     29  C5         0.4570  -47.7300   52.7820 C.2   2003  UTP2003     0.1242
@<TRIPOS>BOND
     1    13    10    2
     2    12    10    1
     3    10    11    1
     4    10     9    1
     5     3     1    2
     6     9     6    1
     7     1     4    1
     8     1     5    1
     9     1     2    1
    10     4     6    1
    11     6     8    2
    12     6     7    1
    13     5    14    1
    14    29    23    2
    15    29    27    1
    16    23    22    1
    17    16    15    1
    18    16    17    1
    19    28    27    2
    20    14    15    1
    21    27    26    2
    22    15    20    1
    23    22    17    1
    24    22    24   am
    25    17    18    1
    26    26    24    2
    27    24    25    2
    28    20    18    1
    29    20    21    1
    30    18    19    1
