@<TRIPOS>MOLECULE
2yut_NAP_A_1.pdb
 48 52 0 0 0
SMALL
GASTEIGER

@<TRIPOS>ATOM
      1  PA        41.8680   43.5060    2.1760 P.3   500  NAP500      0.2189
      2  O1A       43.1940   43.0860    1.3660 O.2   500  NAP500     -0.5170
      3  O2A       40.9660   44.3800    1.3930 O.3   500  NAP500     -0.4371
      4  O5B       42.3870   44.2210    3.5190 O.3   500  NAP500     -0.3112
      5  C5B       43.3900   43.5990    4.3250 C.3   500  NAP500      0.1813
      6  C4B       43.7250   44.4840    5.5250 C.3   500  NAP500      0.1820
      7  O4B       44.7220   43.8100    6.3130 O.3   500  NAP500     -0.3136
      8  C3B       44.3440   45.8040    5.0550 C.3   500  NAP500      0.2157
      9  O3B       43.8450   46.8840    5.8490 O.3   500  NAP500     -0.2175
     10  C2B       45.8290   45.5900    5.3430 C.3   500  NAP500      0.2314
     11  O2B       46.4420   46.8470    5.6390 O.3   500  NAP500     -0.2630
     12  C1B       45.6910   44.8120    6.6510 C.3   500  NAP500      0.3158
     13  N9A       46.9840   44.1940    7.0190 N.pl3 500  NAP500     -0.1439
     14  C8A       47.6160   43.2450    6.3320 C.3   500  NAP500      0.3377
     15  N7A       48.7650   42.9500    6.9360 N.2   500  NAP500     -0.2095
     16  C5A       48.8650   43.7170    8.0170 C.2   500  NAP500      0.2526
     17  C6A       49.8280   43.8730    9.0060 C.2   500  NAP500      0.4393
     18  N6A       50.9380   43.1400    8.9870 N.pl3 500  NAP500      0.2180
     19  N1A       49.6210   44.7760    9.9750 N.2   500  NAP500      0.0021
     20  C2A       48.5220   45.5100    9.9990 C.3   500  NAP500      0.5254
     21  N3A       47.5860   45.3900    9.0750 N.2   500  NAP500     -0.0055
     22  C4A       47.7280   44.5090    8.0750 C.2   500  NAP500      0.3518
     23  O3        41.1950   42.1140    2.6310 O.3   500  NAP500     -0.2703
     24  PN        39.6570   41.9930    3.0940 P.3   500  NAP500      0.2189
     25  O1N       38.8670   41.3840    1.9990 O.2   500  NAP500     -0.5170
     26  O2N       39.1970   43.2770    3.6680 O.3   500  NAP500     -0.4371
     27  O5D       39.7260   40.8980    4.2730 O.3   500  NAP500     -0.3112
     28  C5D       39.5500   41.2800    5.6400 C.3   500  NAP500      0.1813
     29  C4D       39.5080   40.0540    6.5570 C.3   500  NAP500      0.1799
     30  O4D       38.4250   39.2220    6.0960 O.3   500  NAP500     -0.3327
     31  C3D       40.7810   39.2180    6.4060 C.3   500  NAP500      0.2158
     32  O3D       41.0270   38.4390    7.5800 O.3   500  NAP500     -0.2175
     33  C2D       40.4000   38.3050    5.2440 C.3   500  NAP500      0.2309
     34  O2D       41.1920   37.1140    5.2340 O.3   500  NAP500     -0.2158
     35  C1D       38.9810   37.9590    5.6910 C.3   500  NAP500      0.2263
     36  N1N       38.1820   37.3010    4.6330 N.pl3 500  NAP500     -0.2787
     37  C2N       38.0510   37.9030    3.3750 C.3   500  NAP500      0.1244
     38  C3N       37.3030   37.2780    2.3840 C.2   500  NAP500      0.0544
     39  C7N       37.1520   37.9370    1.0110 C.2   500  NAP500      0.2818
     40  O7N       36.6530   37.3270    0.0670 O.2   500  NAP500     -0.2670
     41  N7N       37.6060   39.1850    0.9350 N.am  500  NAP500     -0.0839
     42  C4N       36.6880   36.0580    2.6410 C.2   500  NAP500      0.0033
     43  C5N       36.8140   35.4570    3.8890 C.2   500  NAP500      0.0157
     44  C6N       37.5590   36.0730    4.8870 C.2   500  NAP500      0.0633
     45  P2B       47.1290   47.7510    4.4960 P.3   500  NAP500      0.5328
     46  O1X       46.2120   47.6460    3.1770 O.2   500  NAP500     -0.2224
     47  O2X       46.9960   49.2650    5.0300 O.3   500  NAP500     -0.1145
     48  O3X       48.5340   47.3630    4.2380 O.3   500  NAP500     -0.1145
@<TRIPOS>BOND
     1    40    39    2
     2    41    39   am
     3    39    38    1
     4     2     1    2
     5     3     1    1
     6    25    24    2
     7     1    23    1
     8     1     4    1
     9    38    42    2
    10    38    37    1
    11    23    24    1
    12    42    43    1
    13    24    26    1
    14    24    27    1
    15    46    45    2
    16    37    36    1
    17     4     5    1
    18    43    44    2
    19    48    45    1
    20    27    28    1
    21     5     6    1
    22    45    47    1
    23    45    11    1
    24    36    44    1
    25    36    35    1
    26     8    10    1
    27     8     6    1
    28     8     9    1
    29    34    33    1
    30    33    35    1
    31    33    31    1
    32    10    11    1
    33    10    12    1
    34     6     7    1
    35    28    29    1
    36    35    30    1
    37    30    29    1
    38     7    12    1
    39    14    15    1
    40    14    13    1
    41    31    29    1
    42    31    32    1
    43    12    13    1
    44    15    16    2
    45    13    22    1
    46    16    22    1
    47    16    17    1
    48    22    21    2
    49    18    17    1
    50    17    19    2
    51    21    20    1
    52    19    20    1
