@<TRIPOS>MOLECULE
2yv5_GDP_A_1.pdb
 28 30 0 0 0
SMALL
GASTEIGER

@<TRIPOS>ATOM
      1  PB        18.8580   11.3120   11.8450 P.3   1001  GDP1001     0.5373
      2  O1B       18.7830   11.0090   13.2950 O.3   1001  GDP1001    -0.1143
      3  O2B       20.3000   10.9440   11.2420 O.2   1001  GDP1001    -0.2221
      4  O3B       18.5880   12.8660   11.5510 O.3   1001  GDP1001    -0.1143
      5  O3A       17.7840   10.4330   11.0210 O.3   1001  GDP1001    -0.2261
      6  PA        16.9850   10.8860    9.6890 P.3   1001  GDP1001     0.2231
      7  O1A       17.9470   11.2990    8.6420 O.2   1001  GDP1001    -0.5169
      8  O2A       15.9010   11.8280   10.0520 O.3   1001  GDP1001    -0.4370
      9  O5'       16.3250    9.4740    9.2750 O.3   1001  GDP1001    -0.3111
     10  C5'       17.1670    8.4070    8.8330 C.3   1001  GDP1001     0.1813
     11  C4'       16.3670    7.4170    7.9890 C.3   1001  GDP1001     0.1799
     12  O4'       15.2790    6.9170    8.7820 O.3   1001  GDP1001    -0.3326
     13  C3'       15.7520    8.1650    6.8080 C.3   1001  GDP1001     0.2158
     14  O3'       15.7270    7.3170    5.6580 O.3   1001  GDP1001    -0.2175
     15  C2'       14.3390    8.4660    7.3110 C.3   1001  GDP1001     0.2310
     16  O2'       13.4480    8.5450    6.1950 O.3   1001  GDP1001    -0.2158
     17  C1'       14.0540    7.1800    8.0800 C.3   1001  GDP1001     0.2293
     18  N9        12.9500    7.3450    9.0610 N.pl3 1001  GDP1001    -0.2354
     19  C8        12.8150    8.3680    9.9070 C.3   1001  GDP1001     0.2246
     20  N7        11.7550    8.1550   10.6900 N.2   1001  GDP1001    -0.2322
     21  C5        11.2180    6.9980   10.3390 C.2   1001  GDP1001     0.2182
     22  C6        10.1170    6.2670   10.8220 C.1   1001  GDP1001     0.2372
     23  O6         9.4340    6.6670   11.7490 O.2   1001  GDP1001    -0.2069
     24  N1         9.8310    5.0370   10.2230 N.2   1001  GDP1001    -0.2485
     25  C2        10.6320    4.5660    9.1790 C.1   1001  GDP1001     0.2531
     26  N2        10.3410    3.4060    8.6050 N.pl3 1001  GDP1001    -0.0226
     27  N3        11.6780    5.2890    8.7490 N.2   1001  GDP1001    -0.3074
     28  C4        11.9730    6.4820    9.3060 C.2   1001  GDP1001     0.2300
@<TRIPOS>BOND
     1    14    13    1
     2    16    15    1
     3    13    15    1
     4    13    11    1
     5    15    17    1
     6    11    12    1
     7    11    10    1
     8    17    12    1
     9    17    18    1
    10    26    25    1
    11     7     6    2
    12    27    25    2
    13    27    28    2
    14    10     9    1
    15    18    28    1
    16    18    19    1
    17    25    24    2
    18     9     6    1
    19    28    21    1
    20     6     8    1
    21     6     5    1
    22    19    20    1
    23    24    22    2
    24    21    20    2
    25    21    22    1
    26    22    23    2
    27     5     1    1
    28     3     1    2
    29     4     1    1
    30     1     2    1
