@<TRIPOS>MOLECULE
2yvc_III_D_1.pdb
 35 34 0 0 0
SMALL
GASTEIGER

@<TRIPOS>ATOM
      1  N        -40.0330   -2.3450  -28.4050 N.3     7  MET7       -0.1231
      2  CA       -41.3070   -2.9950  -27.9570 C.3     7  MET7        0.1694
      3  C        -41.2380   -3.5150  -26.5120 C.2     7  MET7        0.2592
      4  O        -40.4980   -4.4610  -26.2350 O.2     7  MET7       -0.2718
      5  CB       -41.6940   -4.1320  -28.9210 C.3     7  MET7        0.0304
      6  N        -41.9930   -2.8960  -25.5970 N.am    8  ASP8       -0.1966
      7  CA       -42.1000   -3.3800  -24.1990 C.3     8  ASP8        0.1728
      8  C        -43.4300   -3.0070  -23.5270 C.2     8  ASP8        0.2616
      9  O        -44.1310   -2.1020  -23.9920 O.2     8  ASP8       -0.2715
     10  CB       -40.9010   -2.9240  -23.3430 C.3     8  ASP8        0.0334
     11  N        -43.7650   -3.7140  -22.4440 N.am    9  ILE9       -0.1963
     12  CA       -45.0420   -3.5440  -21.7380 C.3     9  ILE9        0.1728
     13  C        -44.8930   -3.6700  -20.2110 C.2     9  ILE9        0.2616
     14  O        -44.1040   -4.4830  -19.7230 O.2     9  ILE9       -0.2715
     15  CB       -46.0700   -4.5600  -22.2570 C.3     9  ILE9        0.0334
     16  N        -45.6510   -2.8660  -19.4630 N.am   10  THR10      -0.1963
     17  CA       -45.7100   -2.9830  -17.9990 C.3    10  THR10       0.1728
     18  C        -47.1570   -2.9150  -17.5280 C.2    10  THR10       0.2616
     19  O        -47.9480   -2.1460  -18.0740 O.2    10  THR10      -0.2715
     20  CB       -44.8770   -1.8910  -17.3290 C.3    10  THR10       0.0334
     21  N        -47.5090   -3.7210  -16.5300 N.am   11  ASP11      -0.1963
     22  CA       -48.8710   -3.6980  -15.9950 C.3    11  ASP11       0.1728
     23  C        -48.9170   -3.0740  -14.5880 C.2    11  ASP11       0.2616
     24  O        -48.2090   -3.5290  -13.6720 O.2    11  ASP11      -0.2715
     25  CB       -49.4860   -5.1050  -16.0140 C.3    11  ASP11       0.0334
     26  N        -49.7400   -2.0290  -14.4290 N.am   12  ILE12      -0.1963
     27  CA       -49.8400   -1.2710  -13.1650 C.3    12  ILE12       0.1728
     28  C        -50.9110   -1.7990  -12.1900 C.2    12  ILE12       0.2616
     29  O        -50.6510   -2.7490  -11.4440 O.2    12  ILE12      -0.2715
     30  CB       -50.0150    0.2460  -13.4350 C.3    12  ILE12       0.0334
     31  N        -52.0970   -1.1800  -12.1880 N.am   13  ASN13      -0.1977
     32  CA       -53.2030   -1.5940  -11.3010 C.3    13  ASN13       0.1597
     33  C        -53.9560   -2.8020  -11.8690 C.2    13  ASN13       0.2287
     34  O        -54.4400   -3.6600  -11.1080 O.2    13  ASN13      -0.2864
     35  CB       -54.1690   -0.4280  -11.0380 C.3    13  ASN13       0.0319
@<TRIPOS>BOND
     1     5     2    1
     2     1     2    1
     3     2     3    1
     4     3     4    2
     5     3     6   am
     6     6     7    1
     7     7     8    1
     8     7    10    1
     9     9     8    2
    10     8    11   am
    11    11    12    1
    12    15    12    1
    13    12    13    1
    14    13    14    2
    15    13    16   am
    16    16    17    1
    17    19    18    2
    18    17    18    1
    19    17    20    1
    20    18    21   am
    21    21    22    1
    22    25    22    1
    23    22    23    1
    24    23    26   am
    25    23    24    2
    26    26    27    1
    27    30    27    1
    28    27    28    1
    29    28    31   am
    30    28    29    2
    31    31    32    1
    32    33    32    1
    33    33    34    2
    34    32    35    1
