@<TRIPOS>MOLECULE
2yve_MBT_A_1.pdb
 20 22 0 0 0
SMALL
GASTEIGER

@<TRIPOS>ATOM
      1  C1         9.4400   27.4130   24.1400 C.2   1001  MBT1001     0.1187
      2  C2         8.8630   27.0490   25.3850 C.2   1001  MBT1001     0.0528
      3  S3         7.0890   27.2550   25.5470 S.3   1001  MBT1001    -0.1005
      4  C4         6.4650   27.9560   24.0290 C.3   1001  MBT1001     0.1271
      5  C5         7.4450   28.1930   22.9860 C.2   1001  MBT1001     0.1227
      6  N6         8.7330   27.9110   23.1280 N.2   1001  MBT1001    -0.4085
      7  C7         5.1530   28.2860   23.8110 C.2   1001  MBT1001     0.0062
      8  C8         4.5950   28.8470   22.6790 C.2   1001  MBT1001     0.0449
      9  C9         5.5810   29.0500   21.7100 C.2   1001  MBT1001     0.0165
     10  C10        6.9760   28.7590   21.7820 C.2   1001  MBT1001     0.0300
     11  C11        9.6050   26.5730   26.4500 C.2   1001  MBT1001     0.0226
     12  C12       10.9910   26.4310   26.3150 C.2   1001  MBT1001     0.0446
     13  C13       11.6010   26.7640   25.0760 C.2   1001  MBT1001    -0.0041
     14  C14       10.8250   27.2500   23.9960 C.3   1001  MBT1001     0.0867
     15  N15        3.3450   29.1310   22.5600 N.pl3 1001  MBT1001    -0.3043
     16  C16        2.2980   28.9290   23.5430 C.3   1001  MBT1001     0.1122
     17  C17        2.6920   29.7160   21.4140 C.3   1001  MBT1001     0.1122
     18  N18       11.7690   25.9820   27.4040 N.pl3 1001  MBT1001    -0.3043
     19  C19       13.2290   25.8880   27.3000 C.3   1001  MBT1001     0.1122
     20  C20       11.1650   25.6570   28.7110 C.3   1001  MBT1001     0.1122
@<TRIPOS>BOND
     1    17    15    1
     2     9    10    2
     3     9     8    1
     4    10     5    1
     5    15     8    1
     6    15    16    1
     7     8     7    2
     8     5     6    2
     9     5     4    1
    10     6     1    2
    11     7     4    1
    12    14     1    1
    13    14    13    1
    14     4     3    1
    15     1     2    1
    16    13    12    2
    17     2     3    1
    18     2    11    2
    19    12    11    1
    20    12    18    1
    21    19    18    1
    22    18    20    1
