@<TRIPOS>MOLECULE
2yvf_NAD_A_1.pdb
 44 48 0 0 0
SMALL
GASTEIGER

@<TRIPOS>ATOM
      1  PA        71.6320   22.9920   11.4370 P.3   1500  NAD1500     0.2189
      2  O1A       70.6100   24.0440   11.6010 O.2   1500  NAD1500    -0.5170
      3  O2A       71.9040   22.1980   12.6690 O.3   1500  NAD1500    -0.4371
      4  O5B       72.9810   23.7230   10.9910 O.3   1500  NAD1500    -0.3112
      5  C5B       73.1450   24.3220    9.7390 C.3   1500  NAD1500     0.1813
      6  C4B       74.4380   25.1140    9.8570 C.3   1500  NAD1500     0.1821
      7  O4B       74.7220   25.6700    8.5930 O.3   1500  NAD1500    -0.3135
      8  C3B       74.3450   26.2740   10.8500 C.3   1500  NAD1500     0.2184
      9  O3B       75.5040   26.3030   11.6700 O.3   1500  NAD1500    -0.2174
     10  C2B       74.2520   27.5020    9.9610 C.3   1500  NAD1500     0.2570
     11  O2B       74.8430   28.6430   10.5340 O.3   1500  NAD1500    -0.2130
     12  C1B       75.0210   27.0440    8.7310 C.3   1500  NAD1500     0.3186
     13  N9A       74.6370   27.6660    7.4580 N.pl3 1500  NAD1500    -0.1439
     14  C8A       73.4080   28.1410    7.0640 C.3   1500  NAD1500     0.3377
     15  N7A       73.5230   28.6000    5.7950 N.2   1500  NAD1500    -0.2095
     16  C5A       74.7940   28.4010    5.3770 C.2   1500  NAD1500     0.2526
     17  C6A       75.4450   28.6660    4.1820 C.2   1500  NAD1500     0.4393
     18  N6A       74.7670   29.1590    3.1470 N.pl3 1500  NAD1500     0.2180
     19  N1A       76.7910   28.3410    4.0570 N.2   1500  NAD1500     0.0021
     20  C2A       77.4830   27.7600    5.1070 C.3   1500  NAD1500     0.5254
     21  N3A       76.8210   27.4930    6.2910 N.2   1500  NAD1500    -0.0055
     22  C4A       75.5030   27.8090    6.4140 C.2   1500  NAD1500     0.3518
     23  O3        71.1970   22.0720   10.1710 O.3   1500  NAD1500    -0.2703
     24  PN        71.7490   20.5910    9.7750 P.3   1500  NAD1500     0.2189
     25  O1N       72.9620   20.2660   10.5650 O.3   1500  NAD1500    -0.4371
     26  O2N       71.7660   20.4840    8.2820 O.2   1500  NAD1500    -0.5170
     27  O5D       70.5580   19.6180   10.2750 O.3   1500  NAD1500    -0.3112
     28  C5D       69.2050   20.0040   10.4780 C.3   1500  NAD1500     0.1813
     29  C4D       68.4140   18.7300   10.7900 C.3   1500  NAD1500     0.1799
     30  O4D       69.1760   17.9160   11.6660 O.3   1500  NAD1500    -0.3327
     31  C3D       67.0770   18.9420   11.4810 C.3   1500  NAD1500     0.2158
     32  O3D       65.9780   18.9110   10.5970 O.3   1500  NAD1500    -0.2175
     33  C2D       66.9480   17.7680   12.4340 C.3   1500  NAD1500     0.2309
     34  O2D       66.0280   16.8120   11.9280 O.3   1500  NAD1500    -0.2158
     35  C1D       68.3650   17.2340   12.6020 C.3   1500  NAD1500     0.2263
     36  N1N       68.8860   17.5380   13.9520 N.pl3 1500  NAD1500    -0.2787
     37  C2N       68.4850   18.6540   14.6510 C.3   1500  NAD1500     0.1244
     38  C3N       68.9820   18.9270   15.9330 C.2   1500  NAD1500     0.0544
     39  C7N       68.5110   20.1490   16.6710 C.2   1500  NAD1500     0.2818
     40  O7N       67.4740   20.9130   16.1050 O.2   1500  NAD1500    -0.2670
     41  N7N       69.0610   20.4930   17.8340 N.am  1500  NAD1500    -0.0839
     42  C4N       69.9080   18.0580   16.5080 C.2   1500  NAD1500     0.0033
     43  C5N       70.3210   16.9380   15.7880 C.2   1500  NAD1500     0.0157
     44  C6N       69.8060   16.6910   14.5120 C.2   1500  NAD1500     0.0633
@<TRIPOS>BOND
     1    18    17    1
     2    19    17    2
     3    19    20    1
     4    17    16    1
     5    20    21    1
     6    16    15    2
     7    16    22    1
     8    15    14    1
     9    21    22    2
    10    22    13    1
    11    14    13    1
    12    13    12    1
    13    26    24    2
    14     7    12    1
    15     7     6    1
    16    12    10    1
    17     5     6    1
    18     5     4    1
    19    24    23    1
    20    24    27    1
    21    24    25    1
    22     6     8    1
    23    10    11    1
    24    10     8    1
    25    23     1    1
    26    27    28    1
    27    28    29    1
    28    32    31    1
    29    29    31    1
    30    29    30    1
    31     8     9    1
    32     4     1    1
    33     1     2    2
    34     1     3    1
    35    31    33    1
    36    30    35    1
    37    34    33    1
    38    33    35    1
    39    35    36    1
    40    36    44    1
    41    36    37    1
    42    44    43    2
    43    37    38    1
    44    43    42    1
    45    38    42    2
    46    38    39    1
    47    40    39    2
    48    39    41   am
