@<TRIPOS>MOLECULE
2yvg_NAD_A_1.pdb
 44 48 0 0 0
SMALL
GASTEIGER

@<TRIPOS>ATOM
      1  PA        72.0270   22.7630   11.5690 P.3   1500  NAD1500     0.2189
      2  O1A       70.9240   23.7620   11.6210 O.2   1500  NAD1500    -0.5170
      3  O2A       72.2250   22.0150   12.8650 O.3   1500  NAD1500    -0.4371
      4  O5B       73.3620   23.5220   11.1370 O.3   1500  NAD1500    -0.3112
      5  C5B       73.4860   24.1950    9.8970 C.3   1500  NAD1500     0.1813
      6  C4B       74.7850   25.0070    9.9840 C.3   1500  NAD1500     0.1821
      7  O4B       75.1480   25.5370    8.7160 O.3   1500  NAD1500    -0.3135
      8  C3B       74.6980   26.1930   10.9460 C.3   1500  NAD1500     0.2184
      9  O3B       75.8820   26.2290   11.7320 O.3   1500  NAD1500    -0.2174
     10  C2B       74.6080   27.4060   10.0320 C.3   1500  NAD1500     0.2570
     11  O2B       75.1230   28.5960   10.6010 O.3   1500  NAD1500    -0.2130
     12  C1B       75.4080   26.9370    8.8350 C.3   1500  NAD1500     0.3186
     13  N9A       75.0440   27.5530    7.5490 N.pl3 1500  NAD1500    -0.1439
     14  C8A       73.8250   28.0850    7.1890 C.3   1500  NAD1500     0.3377
     15  N7A       73.9150   28.5120    5.9060 N.2   1500  NAD1500    -0.2095
     16  C5A       75.1540   28.2400    5.4410 C.2   1500  NAD1500     0.2526
     17  C6A       75.7690   28.4740    4.2120 C.2   1500  NAD1500     0.4393
     18  N6A       75.1400   29.2260    3.3090 N.pl3 1500  NAD1500     0.2180
     19  N1A       77.0880   28.0860    4.0160 N.2   1500  NAD1500     0.0021
     20  C2A       77.7940   27.4810    5.0480 C.3   1500  NAD1500     0.5254
     21  N3A       77.1830   27.2690    6.2760 N.2   1500  NAD1500    -0.0055
     22  C4A       75.8800   27.6350    6.4680 C.2   1500  NAD1500     0.3518
     23  O3        71.6380   21.8180   10.2900 O.3   1500  NAD1500    -0.2703
     24  PN        72.2650   20.4160    9.7760 P.3   1500  NAD1500     0.2189
     25  O1N       73.5030   20.1580   10.5370 O.3   1500  NAD1500    -0.4371
     26  O2N       72.2220   20.4710    8.2710 O.2   1500  NAD1500    -0.5170
     27  O5D       71.1940   19.3180   10.3100 O.3   1500  NAD1500    -0.3112
     28  C5D       70.0060   19.0950    9.5570 C.3   1500  NAD1500     0.1813
     29  C4D       68.9410   18.4340   10.4150 C.3   1500  NAD1500     0.1799
     30  O4D       69.3830   17.1710   10.8900 O.3   1500  NAD1500    -0.3327
     31  C3D       68.6550   19.2780   11.6430 C.3   1500  NAD1500     0.2158
     32  O3D       67.2700   19.2760   11.8820 O.3   1500  NAD1500    -0.2175
     33  C2D       69.3760   18.5270   12.7470 C.3   1500  NAD1500     0.2309
     34  O2D       68.7870   18.7340   14.0130 O.3   1500  NAD1500    -0.2158
     35  C1D       69.3150   17.0690   12.2920 C.3   1500  NAD1500     0.2263
     36  N1N       70.5330   16.4120   12.7600 N.pl3 1500  NAD1500    -0.2787
     37  C2N       70.7170   16.3140   14.1020 C.3   1500  NAD1500     0.1244
     38  C3N       71.8730   15.7240   14.5930 C.2   1500  NAD1500     0.0544
     39  C7N       72.0040   15.6790   16.0760 C.2   1500  NAD1500     0.2818
     40  O7N       70.9040   16.1140   16.8370 O.2   1500  NAD1500    -0.2670
     41  N7N       73.1370   15.2840   16.6580 N.am  1500  NAD1500    -0.0839
     42  C4N       72.8360   15.2180   13.7080 C.2   1500  NAD1500     0.0033
     43  C5N       72.6290   15.3340   12.3310 C.2   1500  NAD1500     0.0157
     44  C6N       71.4610   15.9440   11.8650 C.2   1500  NAD1500     0.0633
@<TRIPOS>BOND
     1    18    17    1
     2    19    17    2
     3    19    20    1
     4    17    16    1
     5    20    21    1
     6    16    15    2
     7    16    22    1
     8    15    14    1
     9    21    22    2
    10    22    13    1
    11    14    13    1
    12    13    12    1
    13    26    24    2
    14     7    12    1
    15     7     6    1
    16    12    10    1
    17    28    27    1
    18    28    29    1
    19    24    23    1
    20    24    27    1
    21    24    25    1
    22     5     6    1
    23     5     4    1
    24     6     8    1
    25    10    11    1
    26    10     8    1
    27    23     1    1
    28    29    30    1
    29    29    31    1
    30    30    35    1
    31     8     9    1
    32     4     1    1
    33     1     2    2
    34     1     3    1
    35    31    32    1
    36    31    33    1
    37    44    43    2
    38    44    36    1
    39    35    33    1
    40    35    36    1
    41    43    42    1
    42    33    34    1
    43    36    37    1
    44    42    38    2
    45    37    38    1
    46    38    39    1
    47    39    41   am
    48    39    40    2
