@<TRIPOS>MOLECULE
2yvj_NAI_A_1.pdb
 35 38 0 0 0
SMALL
GASTEIGER

@<TRIPOS>ATOM
      1  PA        -2.9450  -17.8670   24.5440 P.3   503  NAI503      0.2189
      2  O1A       -2.3180  -16.5800   24.9190 O.3   503  NAI503     -0.4371
      3  O2A       -3.5960  -17.8710   23.1780 O.2   503  NAI503     -0.5170
      4  O5B       -4.0180  -18.2410   25.6710 O.3   503  NAI503     -0.3112
      5  C5B       -3.6720  -18.4510   27.0200 C.3   503  NAI503      0.1813
      6  C4B       -5.0060  -18.4800   27.7900 C.3   503  NAI503      0.1821
      7  O4B       -4.8240  -18.9520   29.1180 O.3   503  NAI503     -0.3135
      8  C3B       -5.6710  -17.1060   27.9030 C.3   503  NAI503      0.2184
      9  O3B       -7.0580  -17.2510   27.6320 O.3   503  NAI503     -0.2174
     10  C2B       -5.4350  -16.6950   29.3460 C.3   503  NAI503      0.2570
     11  O2B       -6.4270  -15.8280   29.8720 O.3   503  NAI503     -0.2130
     12  C1B       -5.4250  -18.0330   30.0450 C.3   503  NAI503      0.3186
     13  N9A       -4.6090  -18.1140   31.2690 N.pl3 503  NAI503     -0.1439
     14  C8A       -3.5480  -17.3160   31.6270 C.3   503  NAI503      0.3377
     15  N7A       -3.0860  -17.7470   32.8270 N.2   503  NAI503     -0.2095
     16  C5A       -3.8490  -18.7820   33.2440 C.2   503  NAI503      0.2526
     17  C6A       -3.7720  -19.6220   34.3550 C.2   503  NAI503      0.4393
     18  N6A       -2.8730  -19.3590   35.2980 N.pl3 503  NAI503      0.2180
     19  N1A       -4.6770  -20.6660   34.4970 N.2   503  NAI503      0.0021
     20  C2A       -5.7050  -20.8190   33.5750 C.3   503  NAI503      0.5254
     21  N3A       -5.7560  -20.0040   32.4530 N.2   503  NAI503     -0.0055
     22  C4A       -4.8260  -19.0190   32.2760 C.2   503  NAI503      0.3518
     23  O3        -1.7530  -18.9710   24.7280 O.3   503  NAI503     -0.2703
     24  PN        -1.6530  -20.5170   24.2730 P.3   503  NAI503      0.2189
     25  O1N       -2.9920  -20.9730   23.8690 O.2   503  NAI503     -0.5170
     26  O2N       -0.8400  -21.1990   25.3510 O.3   503  NAI503     -0.4371
     27  O5D       -0.7770  -20.4500   22.9070 O.3   503  NAI503     -0.3112
     28  C5D        0.6350  -20.3700   22.9870 C.3   503  NAI503      0.1812
     29  C4D        1.2190  -19.8240   21.6910 C.3   503  NAI503      0.1780
     30  O4D        0.8870  -20.6550   20.5870 O.3   503  NAI503     -0.3482
     31  C3D        0.6300  -18.4600   21.3870 C.3   503  NAI503      0.2140
     32  O3D        1.6470  -17.6230   20.9000 O.3   503  NAI503     -0.2176
     33  C2D       -0.3760  -18.7590   20.2900 C.3   503  NAI503      0.2140
     34  O2D       -0.5960  -17.6450   19.4490 O.3   503  NAI503     -0.2176
     35  C1D        0.2360  -19.9530   19.5580 C.3   503  NAI503      0.1777
@<TRIPOS>BOND
     1    34    33    1
     2    35    33    1
     3    35    30    1
     4    33    31    1
     5    30    29    1
     6    32    31    1
     7    31    29    1
     8    29    28    1
     9    27    28    1
    10    27    24    1
    11     3     1    2
    12    25    24    2
    13    24    23    1
    14    24    26    1
    15     1    23    1
    16     1     2    1
    17     1     4    1
    18     4     5    1
    19     5     6    1
    20     9     8    1
    21     6     8    1
    22     6     7    1
    23     8    10    1
    24     7    12    1
    25    10    11    1
    26    10    12    1
    27    12    13    1
    28    13    14    1
    29    13    22    1
    30    14    15    1
    31    22    21    2
    32    22    16    1
    33    21    20    1
    34    15    16    2
    35    16    17    1
    36    20    19    1
    37    17    19    2
    38    17    18    1
