@<TRIPOS>MOLECULE
2yvk_MRU_A_1.pdb
 15 14 0 0 0
SMALL
GASTEIGER

@<TRIPOS>ATOM
      1  O3P       43.9190    3.9890  -15.0520 O.2   501  MRU501     -0.2224
      2  P1        42.7050    3.8150  -14.6210 P.3   501  MRU501      0.5330
      3  O1P       41.7890    4.6800  -14.8750 O.3   501  MRU501     -0.1145
      4  O2P       42.2860    2.5850  -14.9420 O.3   501  MRU501     -0.1145
      5  O1        42.8890    3.8440  -13.1440 O.3   501  MRU501     -0.2621
      6  C1        42.9980    2.7950  -12.2100 C.3   501  MRU501      0.2203
      7  C2        42.8630    2.7130  -10.6760 C.2   501  MRU501      0.2136
      8  O2        42.0430    3.1970  -10.2140 O.2   501  MRU501     -0.2906
      9  C3        43.6700    1.9840   -9.6190 C.3   501  MRU501      0.2421
     10  O3        43.5380    0.6460   -9.7230 O.3   501  MRU501     -0.2122
     11  C4        45.1840    2.2310   -9.4870 C.3   501  MRU501      0.2001
     12  O4        45.8110    3.1140  -10.3490 O.3   501  MRU501     -0.2190
     13  C5        45.9650    0.9690   -9.1200 C.3   501  MRU501      0.0935
     14  S1        46.6910    0.0780  -10.4000 S.3   501  MRU501     -0.1366
     15  C6        47.9530   -0.9220  -10.0670 C.3   501  MRU501      0.0693
@<TRIPOS>BOND
     1     1     2    2
     2     4     2    1
     3     3     2    1
     4     2     5    1
     5     5     6    1
     6     6     7    1
     7     7     8    2
     8     7     9    1
     9    14    15    1
    10    14    13    1
    11    12    11    1
    12    10     9    1
    13     9    11    1
    14    11    13    1
