@<TRIPOS>MOLECULE
2yvl_SAM_A_1.pdb
 27 29 0 0 0
SMALL
GASTEIGER

@<TRIPOS>ATOM
      1  N         32.3860   29.2580   55.8970 N.3   601  SAM601     -0.1208
      2  CA        33.0760   30.5640   56.0770 C.3   601  SAM601      0.1952
      3  C         32.0880   31.7320   56.0130 C.2   601  SAM601      0.3819
      4  O         30.8840   31.5140   55.8390 O.co2 601  SAM601     -0.2441
      5  OXT       32.4650   32.9090   56.1360 O.co2 601  SAM601     -0.2441
      6  CB        34.1730   30.7180   55.0310 C.3   601  SAM601      0.0414
      7  CG        35.2950   29.6950   55.1560 C.3   601  SAM601      0.0503
      8  SD        36.7220   30.1280   54.1340 S.3   601  SAM601     -0.1761
      9  CE        36.1830   29.6280   52.4760 C.3   601  SAM601      0.0590
     10  C5'       37.8880   28.8000   54.5670 C.3   601  SAM601      0.0806
     11  C4'       38.6050   29.0920   55.8840 C.3   601  SAM601      0.1622
     12  O4'       39.1170   27.9210   56.4920 O.3   601  SAM601     -0.3153
     13  C3'       39.7840   30.0300   55.7000 C.3   601  SAM601      0.2168
     14  O3'       39.4930   31.1580   56.4970 O.3   601  SAM601     -0.2175
     15  C2'       41.0020   29.2480   56.2050 C.3   601  SAM601      0.2569
     16  O2'       41.9080   30.0540   56.9250 O.3   601  SAM601     -0.2130
     17  C1'       40.3610   28.2110   57.1160 C.3   601  SAM601      0.3185
     18  N9        41.0560   26.9220   57.3150 N.pl3 601  SAM601     -0.1439
     19  C8        41.5740   26.0920   56.3580 C.3   601  SAM601      0.3377
     20  N7        42.0670   24.9930   56.9700 N.2   601  SAM601     -0.2095
     21  C5        41.8550   25.0990   58.3030 C.2   601  SAM601      0.2526
     22  C6        42.1590   24.2730   59.3820 C.2   601  SAM601      0.4393
     23  N6        42.7760   23.1100   59.1910 N.pl3 601  SAM601      0.2180
     24  N1        41.8090   24.6610   60.6600 N.2   601  SAM601      0.0021
     25  C2        41.1670   25.8610   60.8800 C.3   601  SAM601      0.5254
     26  N3        40.8810   26.6770   59.8020 N.2   601  SAM601     -0.0055
     27  C4        41.2140   26.3050   58.5330 C.2   601  SAM601      0.3518
@<TRIPOS>BOND
     1     9     8    1
     2     8    10    1
     3     8     7    1
     4    10    11    1
     5     6     7    1
     6     6     2    1
     7    13    11    1
     8    13    15    1
     9    13    14    1
    10     4     3   ar
    11    11    12    1
    12     1     2    1
    13     3     2    1
    14     3     5   ar
    15    15    16    1
    16    15    17    1
    17    19    20    1
    18    19    18    1
    19    12    17    1
    20    20    21    2
    21    17    18    1
    22    18    27    1
    23    21    27    1
    24    21    22    1
    25    27    26    2
    26    23    22    1
    27    22    24    2
    28    26    25    1
    29    24    25    1
