@<TRIPOS>MOLECULE
2yvo_AMP_A_1.pdb
 23 25 0 0 0
SMALL
GASTEIGER

@<TRIPOS>ATOM
      1  P         11.4320   31.4050   61.9630 P.3   2001  AMP2001     0.5327
      2  O1P       11.4580   30.2380   60.9640 O.2   2001  AMP2001    -0.2224
      3  O2P       12.3640   31.1190   63.0870 O.3   2001  AMP2001    -0.1145
      4  O3P       10.0120   31.6580   62.5170 O.3   2001  AMP2001    -0.1145
      5  O5'       12.0430   32.7680   61.3650 O.3   2001  AMP2001    -0.2675
      6  C5'       11.5900   33.5130   60.3420 C.3   2001  AMP2001     0.1860
      7  C4'       12.3470   34.8680   60.2560 C.3   2001  AMP2001     0.1823
      8  O4'       12.6780   35.6320   61.4780 O.3   2001  AMP2001    -0.3135
      9  C3'       13.6180   34.7980   59.4150 C.3   2001  AMP2001     0.2184
     10  O3'       13.4410   35.4040   58.1670 O.3   2001  AMP2001    -0.2174
     11  C2'       14.6930   35.4670   60.2350 C.3   2001  AMP2001     0.2570
     12  O2'       15.5540   36.3040   59.4850 O.3   2001  AMP2001    -0.2130
     13  C1'       13.9770   36.2210   61.3390 C.3   2001  AMP2001     0.3186
     14  N9        14.8500   36.2780   62.5580 N.pl3 2001  AMP2001    -0.1439
     15  C8        15.1130   35.2950   63.4830 C.3   2001  AMP2001     0.3377
     16  N7        16.0180   35.7720   64.4010 N.2   2001  AMP2001    -0.2095
     17  C5        16.3230   37.0460   64.0530 C.2   2001  AMP2001     0.2526
     18  C6        17.2050   37.9690   64.6330 C.2   2001  AMP2001     0.4393
     19  N6        17.9170   37.6320   65.7020 N.pl3 2001  AMP2001     0.2180
     20  N1        17.3090   39.2400   64.0280 N.2   2001  AMP2001     0.0021
     21  C2        16.5710   39.5880   62.8980 C.3   2001  AMP2001     0.5254
     22  N3        15.7030   38.6560   62.3210 N.2   2001  AMP2001    -0.0055
     23  C4        15.5930   37.3960   62.9080 C.2   2001  AMP2001     0.3518
@<TRIPOS>BOND
     1    10     9    1
     2     9    11    1
     3     9     7    1
     4    12    11    1
     5    11    13    1
     6     7     6    1
     7     7     8    1
     8     6     5    1
     9     2     1    2
    10    13     8    1
    11    13    14    1
    12     5     1    1
    13     1     4    1
    14     1     3    1
    15    22    21    1
    16    22    23    2
    17    14    23    1
    18    14    15    1
    19    21    20    1
    20    23    17    1
    21    15    16    1
    22    20    18    2
    23    17    16    2
    24    17    18    1
    25    18    19    1
