@<TRIPOS>MOLECULE
2yvp_RBY_A_1.pdb
 36 39 0 0 0
SMALL
GASTEIGER

@<TRIPOS>ATOM
      1  PA        11.4350   31.5540   62.0780 P.3   186  RBY186      0.3820
      2  O5'       11.6470   32.9010   61.1410 O.3   186  RBY186     -0.2896
      3  C5'       11.1640   33.6980   60.1090 C.3   186  RBY186      0.1836
      4  C4'       12.5030   34.5870   60.2320 C.3   186  RBY186      0.1822
      5  O4'       13.1640   34.9420   61.5460 O.3   186  RBY186     -0.3135
      6  C3'       13.7510   35.0120   59.3140 C.3   186  RBY186      0.2184
      7  O3'       13.4750   35.4930   58.1320 O.3   186  RBY186     -0.2174
      8  C2'       14.8430   35.8930   60.1730 C.3   186  RBY186      0.2570
      9  O2'       15.4630   36.9820   59.5720 O.3   186  RBY186     -0.2130
     10  C1'       14.0700   36.2570   61.4370 C.3   186  RBY186      0.3186
     11  N9        14.9250   36.2940   62.5150 N.pl3 186  RBY186     -0.1439
     12  C8        15.1210   35.1500   63.2880 C.3   186  RBY186      0.3377
     13  N7        15.9850   35.4140   64.2170 N.2   186  RBY186     -0.2095
     14  C5        16.3700   36.7190   64.0970 C.2   186  RBY186      0.2526
     15  C6        17.2780   37.5670   64.8070 C.2   186  RBY186      0.4393
     16  N6        18.0080   37.1220   65.8470 N.pl3 186  RBY186      0.2180
     17  N1        17.4310   38.8250   64.4430 N.2   186  RBY186      0.0021
     18  C2        16.7730   39.3790   63.4190 C.3   186  RBY186      0.5254
     19  N3        15.9090   38.6650   62.6830 N.2   186  RBY186     -0.0055
     20  C4        15.6860   37.3200   63.0000 C.2   186  RBY186      0.3518
     21  CX        12.6740   31.5630   63.0090 C.3   186  RBY186      0.2354
     22  PB        13.8670   30.2670   63.5360 P.3   186  RBY186      0.3823
     23  O1B       14.7500   31.4980   62.7540 O.2   186  RBY186     -0.2548
     24  OR5       14.2040   30.2920   64.9210 O.3   186  RBY186     -0.2839
     25  CR5       13.8010   29.6180   66.0810 C.3   186  RBY186      0.2179
     26  CR4       14.5890   30.2210   67.0900 C.2   186  RBY186      0.1864
     27  OR4       15.7610   30.5380   67.7030 O.2   186  RBY186     -0.4475
     28  CR3       13.5170   31.1200   67.3990 C.2   186  RBY186      0.2417
     29  OR3       12.2920   31.3800   66.9270 O.2   186  RBY186     -0.2855
     30  CR2       13.9480   32.0300   68.4120 C.3   186  RBY186      0.2875
     31  OR2       13.0460   32.2310   69.5470 O.3   186  RBY186     -0.2077
     32  CR1       15.4060   31.5690   68.6830 C.3   186  RBY186      0.3560
     33  OR1       16.2690   32.6930   68.4710 O.3   186  RBY186     -0.1710
     34  O2A       10.2270   31.7100   63.0940 O.3   186  RBY186     -0.1392
     35  O2B       14.0050   28.8150   62.7590 O.3   186  RBY186     -0.1392
     36  O1A       11.3360   30.2340   61.1450 O.2   186  RBY186     -0.2548
@<TRIPOS>BOND
     1     7     6    1
     2     6     8    1
     3     6     4    1
     4     9     8    1
     5     3     4    1
     6     3     2    1
     7     8    10    1
     8     4     5    1
     9     2     1    1
    10    36     1    2
    11    10     5    1
    12    10    11    1
    13     1    21    1
    14     1    34    1
    15    11    20    1
    16    11    12    1
    17    19    20    2
    18    19    18    1
    19    23    22    2
    20    35    22    1
    21    20    14    1
    22    21    22    1
    23    12    13    1
    24    18    17    1
    25    22    24    1
    26    14    13    2
    27    14    15    1
    28    17    15    2
    29    15    16    1
    30    24    25    1
    31    25    26    1
    32    29    28    1
    33    26    28    2
    34    26    27    1
    35    28    30    1
    36    27    32    1
    37    30    32    1
    38    30    31    1
    39    33    32    1
