@<TRIPOS>MOLECULE
2yvv_LBT_A_1.pdb
 23 24 0 0 0
SMALL
GASTEIGER

@<TRIPOS>ATOM
      1  C1        14.5470   19.1840   54.8320 C.3   2001  LBT2001     0.2695
      2  C2        13.9940   18.5630   56.1080 C.3   2001  LBT2001     0.2406
      3  C3        13.5560   19.6570   57.0920 C.3   2001  LBT2001     0.2198
      4  C4        14.5990   20.7810   57.2450 C.3   2001  LBT2001     0.2144
      5  C5        15.3370   21.1190   55.9260 C.3   2001  LBT2001     0.1835
      6  C6        16.5800   21.9890   56.1360 C.3   2001  LBT2001     0.2142
      7  O1        14.8740   18.1700   53.8940 O.3   2001  LBT2001    -0.3257
      8  O2        12.9160   17.7270   55.7550 O.3   2001  LBT2001    -0.2149
      9  O3        13.3390   19.0880   58.3690 O.3   2001  LBT2001    -0.2174
     10  O4        15.5040   20.4160   58.2980 O.3   2001  LBT2001    -0.2176
     11  O5        15.6820   19.9530   55.1920 O.3   2001  LBT2001    -0.3256
     12  O6        17.5550   21.7510   55.1340 O.3   2001  LBT2001    -0.2176
     13  C1'       14.5210   18.1460   49.6580 C.3   2001  LBT2001     0.3023
     14  C2'       14.6490   19.5220   50.3560 C.3   2001  LBT2001     0.2433
     15  C3'       15.2210   19.3940   51.7750 C.3   2001  LBT2001     0.2168
     16  C4'       14.4430   18.3170   52.5470 C.3   2001  LBT2001     0.1804
     17  C5'       14.6220   17.0190   51.7500 C.3   2001  LBT2001     0.1804
     18  C6'       14.1810   15.7600   52.4970 C.3   2001  LBT2001     0.2141
     19  O1'       15.7790   17.6570   49.2190 O.3   2001  LBT2001    -0.1869
     20  O2'       15.4030   20.4670   49.6020 O.3   2001  LBT2001    -0.2148
     21  O3'       15.1700   20.6490   52.4190 O.3   2001  LBT2001    -0.2175
     22  O5'       13.9320   17.1670   50.5130 O.3   2001  LBT2001    -0.3237
     23  O6'       14.9950   14.6790   52.0910 O.3   2001  LBT2001    -0.2176
@<TRIPOS>BOND
     1    19    13    1
     2    20    14    1
     3    13    14    1
     4    13    22    1
     5    14    15    1
     6    22    17    1
     7    17    18    1
     8    17    16    1
     9    15    21    1
    10    15    16    1
    11    23    18    1
    12    16     7    1
    13     7     1    1
    14     1    11    1
    15     1     2    1
    16    12     6    1
    17    11     5    1
    18     8     2    1
    19     5     6    1
    20     5     4    1
    21     2     3    1
    22     3     4    1
    23     3     9    1
    24     4    10    1
