@<TRIPOS>MOLECULE
2yvw_EPU_A_1.pdb
 44 46 0 0 0
SMALL
GASTEIGER

@<TRIPOS>ATOM
      1  N1U      100.8430   44.2350   10.6130 N.am  501  EPU501     -0.1766
      2  C2U      102.1840   44.2960   10.8760 C.1   501  EPU501      0.2845
      3  N3U      102.9920   43.2540   10.5270 N.2   501  EPU501     -0.2452
      4  C4U      102.4830   42.1350    9.9130 C.1   501  EPU501      0.2182
      5  C5U      101.0810   42.0550    9.6290 C.2   501  EPU501      0.1242
      6  C6U      100.2910   43.1080    9.9860 C.2   501  EPU501      0.0929
      7  O2U      102.6660   45.2810   11.4230 O.2   501  EPU501     -0.1918
      8  O4U      103.2170   41.2140    9.6080 O.2   501  EPU501     -0.2085
      9  C1D       99.9640   45.3590   10.9890 C.3   501  EPU501      0.2401
     10  C2D       99.5480   46.1610    9.7320 C.3   501  EPU501      0.2319
     11  O2D      100.4650   47.1860    9.3720 O.3   501  EPU501     -0.2157
     12  C3D       98.1270   46.6680   10.0680 C.3   501  EPU501      0.2158
     13  C4D       97.6400   45.7130   11.2010 C.3   501  EPU501      0.1799
     14  O4D       98.7380   44.8610   11.5660 O.3   501  EPU501     -0.3320
     15  O3D       98.2240   48.0050   10.5890 O.3   501  EPU501     -0.2175
     16  C5D       96.5400   44.7900   10.6330 C.3   501  EPU501      0.1813
     17  O5D       97.1150   44.1730    9.4600 O.3   501  EPU501     -0.3112
     18  PA        96.3820   42.8060    9.0050 P.3   501  EPU501      0.2189
     19  O1A       97.4270   41.8270    8.6370 O.2   501  EPU501     -0.5170
     20  O2A       95.4760   42.1930   10.1800 O.3   501  EPU501     -0.4371
     21  O3A       95.4310   43.1850    7.7580 O.3   501  EPU501     -0.2703
     22  PB        95.7510   42.3420    6.4110 P.3   501  EPU501      0.2208
     23  O1B       95.7990   40.8870    6.6850 O.3   501  EPU501     -0.4371
     24  O2B       97.1430   42.8140    5.7820 O.2   501  EPU501     -0.5170
     25  C1        93.3310   42.0590    5.7120 C.3   501  EPU501      0.2644
     26  C2        92.2920   42.3780    4.6060 C.3   501  EPU501      0.1940
     27  C3        92.0860   43.9120    4.5610 C.3   501  EPU501      0.2235
     28  C4        91.5400   44.3550    5.9350 C.3   501  EPU501      0.2230
     29  C5        92.5690   43.9740    7.0230 C.3   501  EPU501      0.1845
     30  C6        92.0480   44.3700    8.4190 C.3   501  EPU501      0.2142
     31  C7        92.6280   40.6050    2.9220 C.2   501  EPU501      0.2421
     32  C8        93.1330   40.1570    1.5740 C.3   501  EPU501      0.0964
     33  N2        92.8080   41.8970    3.3150 N.am  501  EPU501     -0.1981
     34  O1        94.5840   42.6910    5.3490 O.3   501  EPU501     -0.2864
     35  O3        91.1240   44.2660    3.5470 O.2   501  EPU501     -0.4682
     36  O4        91.3420   45.7710    5.9280 O.3   501  EPU501     -0.2165
     37  O5        92.8270   42.5330    7.0110 O.3   501  EPU501     -0.3259
     38  O6        90.7780   43.7610    8.6780 O.3   501  EPU501     -0.2176
     39  O7        92.0640   39.8060    3.6490 O.2   501  EPU501     -0.2733
     40  C1E       91.5680   44.5470    1.1450 C.2   501  EPU501      0.4211
     41  O1E       92.5270   44.5160    0.3940 O.co2 501  EPU501     -0.2371
     42  O2E       90.3660   44.1470    0.7120 O.co2 501  EPU501     -0.2371
     43  C2E       91.6990   45.0240    2.5370 C.2   501  EPU501      0.2182
     44  C3E       92.2940   46.2110    2.7810 C.2   501  EPU501      0.0471
@<TRIPOS>BOND
     1    41    40   ar
     2    42    40   ar
     3    40    43    1
     4    32    31    1
     5    43    44    2
     6    43    35    1
     7    31    33   am
     8    31    39    2
     9    33    26    1
    10    35    27    1
    11    27    26    1
    12    27    28    1
    13    26    25    1
    14    34    25    1
    15    34    22    1
    16    25    37    1
    17    24    22    2
    18    36    28    1
    19    28    29    1
    20    22    23    1
    21    22    21    1
    22    37    29    1
    23    29    30    1
    24    21    18    1
    25    30    38    1
    26    19    18    2
    27    18    17    1
    28    18    20    1
    29    11    10    1
    30    17    16    1
    31     8     4    2
    32     5     4    1
    33     5     6    2
    34    10    12    1
    35    10     9    1
    36     4     3    2
    37     6     1    1
    38    12    15    1
    39    12    13    1
    40     3     2    2
    41     1     2   am
    42     1     9    1
    43    16    13    1
    44     2     7    2
    45     9    14    1
    46    13    14    1
