@<TRIPOS>MOLECULE
2yw2_ATP_A_1.pdb
 31 33 0 0 0
SMALL
GASTEIGER

@<TRIPOS>ATOM
      1  PG         6.8020   -8.9470    2.5800 P.3   646  ATP646      0.5373
      2  O1G        6.3870   -7.7950    1.7420 O.2   646  ATP646     -0.2221
      3  O2G        8.3990   -8.8940    2.7760 O.3   646  ATP646     -0.1143
      4  O3G        6.4000  -10.3390    1.8610 O.3   646  ATP646     -0.1143
      5  PB         4.5150   -8.5920    3.9060 P.3   646  ATP646      0.2277
      6  O1B        3.9380   -8.5950    5.2710 O.3   646  ATP646     -0.4368
      7  O2B        4.2050   -7.1510    3.2400 O.2   646  ATP646     -0.5168
      8  O3B        6.1070   -8.8510    4.0390 O.3   646  ATP646     -0.2258
      9  PA         3.2310   -9.4120    1.6350 P.3   646  ATP646      0.2189
     10  O1A        4.3360   -9.2930    0.6700 O.2   646  ATP646     -0.5170
     11  O2A        2.4140   -8.0190    1.6970 O.3   646  ATP646     -0.4371
     12  O3A        3.8250   -9.8300    3.0900 O.3   646  ATP646     -0.2700
     13  O5'        2.2550  -10.5850    1.1220 O.3   646  ATP646     -0.3112
     14  C5'        1.1920  -10.7540    2.0670 C.3   646  ATP646      0.1813
     15  C4'        0.2110  -11.7710    1.4810 C.3   646  ATP646      0.1821
     16  O4'        0.5660  -13.1330    1.8960 O.3   646  ATP646     -0.3135
     17  C3'       -1.2270  -11.5380    1.9670 C.3   646  ATP646      0.2184
     18  O3'       -1.9040  -10.5450    1.1780 O.3   646  ATP646     -0.2174
     19  C2'       -1.8320  -12.9340    1.8460 C.3   646  ATP646      0.2570
     20  O2'       -2.3020  -13.1680    0.5220 O.3   646  ATP646     -0.2130
     21  C1'       -0.6680  -13.8680    2.2290 C.3   646  ATP646      0.3186
     22  N9        -0.7250  -14.1830    3.6790 N.pl3 646  ATP646     -0.1439
     23  C8         0.0370  -13.6160    4.6770 C.3   646  ATP646      0.3377
     24  N7        -0.2760  -14.1220    5.8300 N.2   646  ATP646     -0.2095
     25  C5        -1.2530  -15.0430    5.6690 C.2   646  ATP646      0.2526
     26  C6        -1.9770  -15.9040    6.5390 C.2   646  ATP646      0.4393
     27  N6        -1.7290  -15.9030    7.9000 N.pl3 646  ATP646      0.2180
     28  N1        -2.9160  -16.7250    6.0100 N.2   646  ATP646      0.0021
     29  C2        -3.1730  -16.7420    4.6950 C.3   646  ATP646      0.5254
     30  N3        -2.5140  -15.9520    3.8420 N.2   646  ATP646     -0.0055
     31  C4        -1.5570  -15.0980    4.2790 C.2   646  ATP646      0.3518
@<TRIPOS>BOND
     1    20    19    1
     2    10     9    2
     3    13     9    1
     4    13    14    1
     5    18    17    1
     6    15    16    1
     7    15    17    1
     8    15    14    1
     9     9    11    1
    10     9    12    1
    11     2     1    2
    12    19    17    1
    13    19    21    1
    14     4     1    1
    15    16    21    1
    16    21    22    1
    17     1     3    1
    18     1     8    1
    19    12     5    1
    20     7     5    2
    21    22    31    1
    22    22    23    1
    23    30    31    2
    24    30    29    1
    25     5     8    1
    26     5     6    1
    27    31    25    1
    28    23    24    1
    29    29    28    1
    30    25    24    2
    31    25    26    1
    32    28    26    2
    33    26    27    1
