@<TRIPOS>MOLECULE
2yw9_NAP_D_1.pdb
 48 52 0 0 0
SMALL
GASTEIGER

@<TRIPOS>ATOM
      1  PA        45.0790  -25.3560   75.4310 P.3   500  NAP500      0.2189
      2  O1A       45.0480  -26.3080   74.3050 O.2   500  NAP500     -0.5170
      3  O2A       46.0710  -25.8190   76.4220 O.3   500  NAP500     -0.4371
      4  O5B       43.6050  -25.2380   76.0920 O.3   500  NAP500     -0.3112
      5  C5B       43.3800  -25.0910   77.4860 C.3   500  NAP500      0.1813
      6  C4B       43.1090  -26.4400   78.1570 C.3   500  NAP500      0.1820
      7  O4B       41.9760  -26.3940   79.0200 O.3   500  NAP500     -0.3136
      8  C3B       42.8390  -27.5420   77.1430 C.3   500  NAP500      0.2157
      9  O3B       43.6520  -28.6610   77.4220 O.3   500  NAP500     -0.2175
     10  C2B       41.3870  -27.8870   77.3850 C.3   500  NAP500      0.2314
     11  O2B       41.0380  -29.1970   76.9870 O.3   500  NAP500     -0.2630
     12  C1B       41.2460  -27.6000   78.8660 C.3   500  NAP500      0.3158
     13  N9A       39.8180  -27.5430   79.2340 N.pl3 500  NAP500     -0.1439
     14  C8A       38.8140  -26.8190   78.6360 C.3   500  NAP500      0.3377
     15  N7A       37.6510  -27.0860   79.2810 N.2   500  NAP500     -0.2095
     16  C5A       37.8940  -27.9750   80.2750 C.2   500  NAP500      0.2526
     17  C6A       37.0840  -28.5880   81.2300 C.2   500  NAP500      0.4393
     18  N6A       35.7830  -28.3330   81.2890 N.pl3 500  NAP500      0.2180
     19  N1A       37.6350  -29.4710   82.1310 N.2   500  NAP500      0.0021
     20  C2A       38.9830  -29.7510   82.0890 C.3   500  NAP500      0.5254
     21  N3A       39.7820  -29.1440   81.1410 N.2   500  NAP500     -0.0055
     22  C4A       39.2510  -28.2730   80.2490 C.2   500  NAP500      0.3518
     23  O3        45.4430  -23.8670   74.9050 O.3   500  NAP500     -0.2703
     24  PN        46.3350  -22.6950   75.5820 P.3   500  NAP500      0.2189
     25  O1N       46.2030  -21.4540   74.7850 O.2   500  NAP500     -0.5170
     26  O2N       47.6780  -23.2360   75.8940 O.3   500  NAP500     -0.4371
     27  O5D       45.5500  -22.4940   76.9810 O.3   500  NAP500     -0.3112
     28  C5D       46.2180  -22.5060   78.2260 C.3   500  NAP500      0.1813
     29  C4D       45.8660  -21.2400   79.0060 C.3   500  NAP500      0.1799
     30  O4D       46.6130  -20.1310   78.5320 O.3   500  NAP500     -0.3327
     31  C3D       44.4010  -20.8740   78.8520 C.3   500  NAP500      0.2158
     32  O3D       43.8850  -20.5370   80.1160 O.3   500  NAP500     -0.2175
     33  C2D       44.4140  -19.6560   77.9500 C.3   500  NAP500      0.2309
     34  O2D       43.3170  -18.8070   78.1910 O.3   500  NAP500     -0.2158
     35  C1D       45.7530  -19.0270   78.3070 C.3   500  NAP500      0.2263
     36  N1N       46.2990  -18.1620   77.2450 N.pl3 500  NAP500     -0.2787
     37  C2N       46.5180  -18.6660   75.9940 C.3   500  NAP500      0.1244
     38  C3N       47.0370  -17.8650   74.9860 C.2   500  NAP500      0.0544
     39  C7N       47.2810  -18.4270   73.6130 C.2   500  NAP500      0.2818
     40  O7N       47.4040  -17.5530   72.5190 O.2   500  NAP500     -0.2670
     41  N7N       47.3910  -19.7440   73.4540 N.am  500  NAP500     -0.0839
     42  C4N       47.3360  -16.5380   75.2660 C.2   500  NAP500      0.0033
     43  C5N       47.1130  -16.0380   76.5440 C.2   500  NAP500      0.0157
     44  C6N       46.5920  -16.8620   77.5330 C.2   500  NAP500      0.0633
     45  P2B       40.2380  -29.3480   75.5820 P.3   500  NAP500      0.5328
     46  O1X       41.1130  -28.8570   74.4450 O.2   500  NAP500     -0.2224
     47  O2X       39.8670  -30.7950   75.3550 O.3   500  NAP500     -0.1145
     48  O3X       38.9670  -28.5230   75.5990 O.3   500  NAP500     -0.1145
@<TRIPOS>BOND
     1    40    39    2
     2    41    39   am
     3    39    38    1
     4     2     1    2
     5    46    45    2
     6    25    24    2
     7    23     1    1
     8    23    24    1
     9    38    42    2
    10    38    37    1
    11    42    43    1
    12    47    45    1
    13     1     4    1
    14     1     3    1
    15    45    48    1
    16    45    11    1
    17    24    26    1
    18    24    27    1
    19    37    36    1
    20     4     5    1
    21    43    44    2
    22    27    28    1
    23    11    10    1
    24     8    10    1
    25     8     9    1
    26     8     6    1
    27    36    44    1
    28    36    35    1
    29    10    12    1
    30     5     6    1
    31    33    34    1
    32    33    35    1
    33    33    31    1
    34     6     7    1
    35    28    29    1
    36    35    30    1
    37    30    29    1
    38    14    13    1
    39    14    15    1
    40    31    29    1
    41    31    32    1
    42    12     7    1
    43    12    13    1
    44    13    22    1
    45    15    16    2
    46    22    16    1
    47    22    21    2
    48    16    17    1
    49    21    20    1
    50    17    18    1
    51    17    19    2
    52    20    19    1
