@<TRIPOS>MOLECULE
2ywc_XMP_A_1.pdb
 24 26 0 0 0
SMALL
GASTEIGER

@<TRIPOS>ATOM
      1  P        -25.9470   30.6220   61.9040 P.3   701  XMP701      0.5327
      2  O1P      -24.8810   30.4330   63.1050 O.3   701  XMP701     -0.1145
      3  O2P      -25.6490   31.9970   61.1190 O.3   701  XMP701     -0.1145
      4  O5'      -27.4180   30.7160   62.4880 O.3   701  XMP701     -0.2675
      5  O3P      -25.8370   29.4820   60.9590 O.2   701  XMP701     -0.2224
      6  C5'      -27.7970   29.4660   63.0760 C.3   701  XMP701      0.1859
      7  C4'      -29.1020   29.6780   63.8610 C.3   701  XMP701      0.1801
      8  O4'      -28.8270   30.4550   65.0700 O.3   701  XMP701     -0.3326
      9  C1'      -29.4640   31.7630   64.9410 C.3   701  XMP701      0.2293
     10  N9       -28.5490   32.8180   65.3830 N.pl3 701  XMP701     -0.2353
     11  C4       -28.6650   33.4690   66.5570 C.2   701  XMP701      0.2316
     12  N3       -29.5730   33.3910   67.6240 N.2   701  XMP701     -0.2901
     13  N1       -28.4270   35.0900   68.8070 N.2   701  XMP701     -0.2311
     14  C2       -29.4420   34.1930   68.7160 C.1   701  XMP701      0.3668
     15  O2       -30.2530   34.1050   69.6280 O.2   701  XMP701     -0.1744
     16  C6       -27.4970   35.2280   67.8060 C.1   701  XMP701      0.2388
     17  O6       -26.5970   36.0350   67.9070 O.2   701  XMP701     -0.2068
     18  C5       -27.6060   34.3800   66.6040 C.2   701  XMP701      0.2183
     19  N7       -26.8950   34.2440   65.4520 N.2   701  XMP701     -0.2322
     20  C8       -27.4460   33.3190   64.7230 C.3   701  XMP701      0.2246
     21  C2'      -29.8970   31.9180   63.4710 C.3   701  XMP701      0.2310
     22  O2'      -31.0270   32.7780   63.3410 O.3   701  XMP701     -0.2158
     23  C3'      -30.1640   30.4730   63.0350 C.3   701  XMP701      0.2158
     24  O3'      -31.4950   30.0640   63.4100 O.3   701  XMP701     -0.2175
@<TRIPOS>BOND
     1     5     1    2
     2     3     1    1
     3     1     4    1
     4     1     2    1
     5     4     6    1
     6    23    24    1
     7    23    21    1
     8    23     7    1
     9     6     7    1
    10    22    21    1
    11    21     9    1
    12     7     8    1
    13    20    10    1
    14    20    19    1
    15     9     8    1
    16     9    10    1
    17    10    11    1
    18    19    18    2
    19    11    18    1
    20    11    12    2
    21    18    16    1
    22    12    14    2
    23    16    17    2
    24    16    13    2
    25    14    13    2
    26    14    15    2
