@<TRIPOS>MOLECULE
2ywf_GNP_A_1.pdb
 32 34 0 0 0
SMALL
GASTEIGER

@<TRIPOS>ATOM
      1  PG       -21.3650   32.6150    9.5960 P.3   801  GNP801      0.4884
      2  O1G      -21.8190   31.6480   10.6620 O.3   801  GNP801     -0.1240
      3  O2G      -22.3250   32.6360    8.4250 O.2   801  GNP801     -0.2331
      4  O3G      -19.9730   32.2950    9.1480 O.3   801  GNP801     -0.1240
      5  N3B      -21.3930   34.1750   10.3220 N.3   801  GNP801     -0.0163
      6  PB       -20.9810   35.5940    9.5310 P.3   801  GNP801      0.4669
      7  O1B      -19.5470   35.9500    9.6620 O.3   801  GNP801     -0.1253
      8  O2B      -21.4760   35.5060    8.0920 O.2   801  GNP801     -0.2351
      9  O3A      -21.7950   36.7380   10.3530 O.3   801  GNP801     -0.2360
     10  PA       -23.1270   37.5670    9.9030 P.3   801  GNP801      0.2220
     11  O1A      -22.8500   38.4740    8.7390 O.2   801  GNP801     -0.5170
     12  O2A      -24.2030   36.5370    9.7530 O.3   801  GNP801     -0.4370
     13  O5'      -23.3290   38.4720   11.1770 O.3   801  GNP801     -0.3111
     14  C5'      -23.6090   37.9120   12.4860 C.3   801  GNP801      0.1813
     15  C4'      -24.3540   38.9280   13.3280 C.3   801  GNP801      0.1799
     16  O4'      -23.5500   40.1630   13.3900 O.3   801  GNP801     -0.3326
     17  C3'      -25.7250   39.3590   12.7770 C.3   801  GNP801      0.2158
     18  O3'      -26.6150   39.5300   13.9110 O.3   801  GNP801     -0.2175
     19  C2'      -25.4490   40.6590   12.0930 C.3   801  GNP801      0.2310
     20  O2'      -26.5590   41.5470   11.9650 O.3   801  GNP801     -0.2158
     21  C1'      -24.3200   41.2790   12.9420 C.3   801  GNP801      0.2293
     22  N9       -23.4370   42.1840   12.2140 N.pl3 801  GNP801     -0.2354
     23  C8       -22.7950   42.0120   11.0090 C.3   801  GNP801      0.2246
     24  N7       -22.0650   43.0360   10.6230 N.2   801  GNP801     -0.2322
     25  C5       -22.2480   43.9440   11.6600 C.2   801  GNP801      0.2182
     26  C6       -21.7010   45.2780   11.8240 C.1   801  GNP801      0.2372
     27  O6       -20.9560   45.9200   11.0960 O.2   801  GNP801     -0.2069
     28  N1       -22.1360   45.8850   13.0440 N.2   801  GNP801     -0.2485
     29  C2       -22.9780   45.2910   13.9690 C.1   801  GNP801      0.2531
     30  N2       -23.2810   46.0090   15.0600 N.pl3 801  GNP801     -0.0226
     31  N3       -23.4830   44.0520   13.8050 N.2   801  GNP801     -0.3074
     32  C4       -23.0740   43.4410   12.6290 C.2   801  GNP801      0.2300
@<TRIPOS>BOND
     1     8     6    2
     2     3     1    2
     3    11    10    2
     4     4     1    1
     5     6     7    1
     6     6     5    1
     7     6     9    1
     8     1     5    1
     9     1     2    1
    10    12    10    1
    11    10     9    1
    12    10    13    1
    13    24    23    1
    14    24    25    2
    15    23    22    1
    16    27    26    2
    17    13    14    1
    18    25    26    1
    19    25    32    1
    20    26    28    2
    21    20    19    1
    22    19    17    1
    23    19    21    1
    24    22    32    1
    25    22    21    1
    26    14    15    1
    27    32    31    2
    28    17    15    1
    29    17    18    1
    30    21    16    1
    31    28    29    2
    32    15    16    1
    33    31    29    2
    34    29    30    1
