@<TRIPOS>MOLECULE
2ywg_GTP_A_1.pdb
 32 34 0 0 0
SMALL
GASTEIGER

@<TRIPOS>ATOM
      1  PG       -21.6250  -32.9260   -9.8140 P.3   701  GTP701      0.5373
      2  O1G      -21.9490  -32.0060  -10.9270 O.2   701  GTP701     -0.2221
      3  O2G      -22.6050  -32.7200   -8.5520 O.3   701  GTP701     -0.1143
      4  O3G      -20.1270  -32.7060   -9.2650 O.3   701  GTP701     -0.1143
      5  O3B      -21.7320  -34.4780  -10.2270 O.3   701  GTP701     -0.2258
      6  PB       -21.2090  -35.6120   -9.2110 P.3   701  GTP701      0.2277
      7  O1B      -19.7290  -35.5760   -9.2270 O.2   701  GTP701     -0.5168
      8  O2B      -21.9040  -35.4200   -7.9180 O.3   701  GTP701     -0.4368
      9  O3A      -21.7110  -36.9810   -9.8980 O.3   701  GTP701     -0.2700
     10  PA       -23.1910  -37.5550   -9.6270 P.3   701  GTP701      0.2189
     11  O1A      -23.1390  -38.3610   -8.3870 O.3   701  GTP701     -0.4371
     12  O2A      -24.1520  -36.4320   -9.7030 O.2   701  GTP701     -0.5170
     13  O5'      -23.4430  -38.5390  -10.8740 O.3   701  GTP701     -0.3112
     14  C5'      -23.7310  -37.9960  -12.1640 C.3   701  GTP701      0.1813
     15  C4'      -24.3270  -39.0620  -13.0850 C.3   701  GTP701      0.1799
     16  O4'      -23.4600  -40.2120  -13.0590 O.3   701  GTP701     -0.3326
     17  C3'      -25.6550  -39.5260  -12.4810 C.3   701  GTP701      0.2158
     18  O3'      -26.4600  -40.1300  -13.4980 O.3   701  GTP701     -0.2175
     19  C2'      -25.1510  -40.5970  -11.5170 C.3   701  GTP701      0.2310
     20  O2'      -26.2300  -41.4650  -11.1580 O.3   701  GTP701     -0.2158
     21  C1'      -24.2250  -41.2970  -12.5100 C.3   701  GTP701      0.2293
     22  N9       -23.3710  -42.3250  -11.8700 N.pl3 701  GTP701     -0.2354
     23  C8       -22.7230  -42.2080  -10.7130 C.3   701  GTP701      0.2246
     24  N7       -22.0780  -43.3420  -10.4510 N.2   701  GTP701     -0.2322
     25  C5       -22.3150  -44.1920  -11.4460 C.2   701  GTP701      0.2182
     26  C6       -21.9190  -45.5000  -11.6980 C.1   701  GTP701      0.2372
     27  O6       -21.1940  -46.1010  -10.9060 O.2   701  GTP701     -0.2069
     28  N1       -22.3650  -46.1270  -12.8660 N.2   701  GTP701     -0.2485
     29  C2       -23.1950  -45.4220  -13.7460 C.1   701  GTP701      0.2531
     30  N2       -23.6370  -46.0060  -14.8570 N.pl3 701  GTP701     -0.0226
     31  N3       -23.5550  -44.1600  -13.4700 N.2   701  GTP701     -0.3074
     32  C4       -23.1400  -43.5420  -12.3550 C.2   701  GTP701      0.2300
@<TRIPOS>BOND
     1    30    29    1
     2    29    31    2
     3    29    28    2
     4    18    17    1
     5    31    32    2
     6    15    16    1
     7    15    17    1
     8    15    14    1
     9    16    21    1
    10    28    26    2
    11    21    22    1
    12    21    19    1
    13    17    19    1
    14    32    22    1
    15    32    25    1
    16    14    13    1
    17    22    23    1
    18    26    25    1
    19    26    27    2
    20    19    20    1
    21    25    24    2
    22     2     1    2
    23    13    10    1
    24    23    24    1
    25     5     1    1
    26     5     6    1
    27     9    10    1
    28     9     6    1
    29     1     4    1
    30     1     3    1
    31    12    10    2
    32    10    11    1
    33     7     6    2
    34     6     8    1
