@<TRIPOS>MOLECULE
2ywh_GDP_A_1.pdb
 28 30 0 0 0
SMALL
GASTEIGER

@<TRIPOS>ATOM
      1  PB        20.9740   35.6100   -9.5010 P.3   801  GDP801      0.5373
      2  O1B       21.2210   34.6460  -10.5960 O.2   801  GDP801     -0.2221
      3  O2B       19.5390   36.3070   -9.2740 O.3   801  GDP801     -0.1143
      4  O3B       21.8860   35.6450   -8.1740 O.3   801  GDP801     -0.1143
      5  O3A       21.6250   36.9310  -10.1560 O.3   801  GDP801     -0.2261
      6  PA        22.9940   37.5720   -9.5980 P.3   801  GDP801      0.2231
      7  O1A       22.7910   38.3130   -8.3330 O.3   801  GDP801     -0.4370
      8  O2A       24.0200   36.3430   -9.4330 O.2   801  GDP801     -0.5169
      9  O5'       23.5760   38.4960  -10.7810 O.3   801  GDP801     -0.3111
     10  C5'       23.9080   37.9160  -12.0450 C.3   801  GDP801      0.1813
     11  C4'       24.5350   38.9470  -12.9880 C.3   801  GDP801      0.1799
     12  O4'       23.6670   40.0950  -13.0420 O.3   801  GDP801     -0.3326
     13  C3'       25.8530   39.4440  -12.3900 C.3   801  GDP801      0.2158
     14  O3'       26.6650   40.0140  -13.4210 O.3   801  GDP801     -0.2175
     15  C2'       25.3330   40.5470  -11.4710 C.3   801  GDP801      0.2310
     16  O2'       26.3980   41.4490  -11.1590 O.3   801  GDP801     -0.2158
     17  C1'       24.3880   41.2030  -12.4760 C.3   801  GDP801      0.2293
     18  N9        23.4790   42.1760  -11.8280 N.pl3 801  GDP801     -0.2354
     19  C8        22.7650   41.9700  -10.7230 C.3   801  GDP801      0.2246
     20  N7        22.0580   43.0620  -10.4430 N.2   801  GDP801     -0.2322
     21  C5        22.3220   43.9740  -11.3730 C.2   801  GDP801      0.2182
     22  C6        21.8800   45.2750  -11.5820 C.1   801  GDP801      0.2372
     23  O6        21.0740   45.7930  -10.8130 O.2   801  GDP801     -0.2069
     24  N1        22.3700   45.9850  -12.6850 N.2   801  GDP801     -0.2485
     25  C2        23.2890   45.3640  -13.5410 C.1   801  GDP801      0.2531
     26  N2        23.7840   46.0310  -14.5790 N.pl3 801  GDP801     -0.0226
     27  N3        23.6900   44.1060  -13.3090 N.2   801  GDP801     -0.3074
     28  C4        23.2310   43.4090  -12.2590 C.2   801  GDP801      0.2300
@<TRIPOS>BOND
     1    26    25    1
     2    25    27    2
     3    25    24    2
     4    14    13    1
     5    27    28    2
     6    12    11    1
     7    12    17    1
     8    11    13    1
     9    11    10    1
    10    24    22    2
    11    17    18    1
    12    17    15    1
    13    13    15    1
    14    28    18    1
    15    28    21    1
    16    10     9    1
    17    18    19    1
    18    22    21    1
    19    22    23    2
    20    15    16    1
    21    21    20    2
    22     9     6    1
    23    19    20    1
    24     2     1    2
    25     5     6    1
    26     5     1    1
    27     6     8    2
    28     6     7    1
    29     1     3    1
    30     1     4    1
