@<TRIPOS>MOLECULE
2ywp_A42_A_1.pdb
 23 24 0 0 0
SMALL
GASTEIGER

@<TRIPOS>ATOM
      1  C1        -8.2180    9.1210  -16.5840 C.2     1  A421        0.1759
      2  N2        -8.4960   10.4450  -16.8740 N.2     1  A421       -0.2474
      3  C3        -7.5890   11.1700  -17.6270 C.3     1  A421        0.2465
      4  C4        -6.3680   10.5790  -18.1140 C.2     1  A421        0.3669
      5  N5        -6.0850    9.2320  -17.8190 N.2     1  A421       -0.0563
      6  C6        -7.0040    8.5030  -17.0580 C.3     1  A421        0.3183
      7  C7        -9.1410    8.3950  -15.8240 C.1     1  A421        0.1194
      8  N8        -9.9500    7.8050  -15.2330 N.1     1  A421       -0.1895
      9  N9        -5.4610   11.3170  -18.8640 N.am    1  A421        0.0494
     10  C10       -4.2900   10.9980  -19.5030 C.2     1  A421        0.4578
     11  O11       -3.8930   11.7460  -20.3940 O.2     1  A421       -0.2174
     12  N12       -3.6650    9.7930  -19.1740 N.am    1  A421       -0.1339
     13  C13       -2.3070    9.4070  -19.2470 C.ar    1  A421        0.1120
     14  C14       -1.3250   10.1140  -20.0850 C.ar    1  A421        0.0343
     15  C15        0.0460    9.7020  -20.1450 C.ar    1  A421        0.0930
     16  C16        0.5260    8.5640  -19.3860 C.ar    1  A421        0.1523
     17  C17       -0.4380    7.8670  -18.5580 C.ar    1  A421        0.0760
     18  C18       -1.8370    8.2590  -18.4750 C.ar    1  A421        0.1571
     19  O19       -2.5680    7.4170  -17.6020 O.3     1  A421       -0.4700
     20  C20       -3.5290    6.4780  -18.0800 C.3     1  A421        0.2525
     21  O21        1.8950    8.1970  -19.4790 O.3     1  A421       -0.4705
     22  C22        2.2220    7.0150  -20.2130 C.3     1  A421        0.2525
     23 CL1         1.1210   10.6200  -21.1700 Cl      1  A421       -0.0790
@<TRIPOS>BOND
     1    23    15    1
     2    11    10    2
     3    22    21    1
     4    15    14   ar
     5    15    16   ar
     6    14    13   ar
     7    10    12   am
     8    10     9   am
     9    21    16    1
    10    16    17   ar
    11    13    12    1
    12    13    18   ar
    13     9     4    1
    14    17    18   ar
    15    18    19    1
    16     4     5    2
    17     4     3    1
    18    20    19    1
    19     5     6    1
    20     3     2    1
    21     6     1    1
    22     2     1    2
    23     1     7    1
    24     7     8    3
