@<TRIPOS>MOLECULE
2ywv_ADP_A_1.pdb
 27 29 0 0 0
SMALL
GASTEIGER

@<TRIPOS>ATOM
      1  PB         6.5770    0.5960    9.1220 P.3   600  ADP600      0.5373
      2  O1B        6.5210   -0.7480    9.7100 O.3   600  ADP600     -0.1143
      3  O2B        5.7330    1.0800    7.8880 O.2   600  ADP600     -0.2221
      4  O3B        7.8560    1.4990    9.4610 O.3   600  ADP600     -0.1143
      5  PA         6.8330   -1.2500    7.0720 P.3   600  ADP600      0.2231
      6  O1A        6.1940   -0.8050    5.8310 O.2   600  ADP600     -0.5169
      7  O2A        7.1600   -2.7830    7.3510 O.3   600  ADP600     -0.4370
      8  O3A        7.5860   -0.1210    8.0130 O.3   600  ADP600     -0.2261
      9  O5'        8.2630   -1.3380    6.2320 O.3   600  ADP600     -0.3111
     10  C5'        8.4640   -0.2790    5.2360 C.3   600  ADP600      0.1813
     11  C4'        9.3590    0.8440    5.7950 C.3   600  ADP600      0.1821
     12  O4'       10.3340    1.2790    4.7990 O.3   600  ADP600     -0.3135
     13  C3'        8.5300    2.0880    6.1700 C.3   600  ADP600      0.2184
     14  O3'        9.0720    2.7290    7.3360 O.3   600  ADP600     -0.2174
     15  C2'        8.6180    2.9510    4.9210 C.3   600  ADP600      0.2570
     16  O2'        8.3550    4.3290    5.2220 O.3   600  ADP600     -0.2130
     17  C1'       10.0500    2.6720    4.4460 C.3   600  ADP600      0.3186
     18  N9        10.2030    2.8330    2.9960 N.pl3 600  ADP600     -0.1439
     19  C8         9.3260    2.4580    2.0070 C.3   600  ADP600      0.3377
     20  N7         9.8360    2.7190    0.8320 N.2   600  ADP600     -0.2095
     21  C5        11.0770    3.2410    0.9950 C.2   600  ADP600      0.2526
     22  C6        12.1260    3.6510    0.1300 C.2   600  ADP600      0.4393
     23  N6        12.0060    3.5170   -1.2360 N.pl3 600  ADP600      0.2180
     24  N1        13.2530    4.1690    0.6740 N.2   600  ADP600      0.0021
     25  C2        13.4190    4.2570    2.0010 C.3   600  ADP600      0.5254
     26  N3        12.4400    3.9290    2.8430 N.2   600  ADP600     -0.0055
     27  C4        11.2960    3.3710    2.3920 C.2   600  ADP600      0.3518
@<TRIPOS>BOND
     1    23    22    1
     2    22    24    2
     3    22    21    1
     4    24    25    1
     5    20    21    2
     6    20    19    1
     7    21    27    1
     8    25    26    1
     9    19    18    1
    10    27    26    2
    11    27    18    1
    12    18    17    1
    13    17    12    1
    14    17    15    1
    15    12    11    1
    16    15    16    1
    17    15    13    1
    18    10    11    1
    19    10     9    1
    20    11    13    1
    21     6     5    2
    22    13    14    1
    23     9     5    1
    24     5     7    1
    25     5     8    1
    26     3     1    2
    27     8     1    1
    28     1     4    1
    29     1     2    1
