@<TRIPOS>MOLECULE
2yww_ATP_A_1.pdb
 31 33 0 0 0
SMALL
GASTEIGER

@<TRIPOS>ATOM
      1  PG        30.2890   31.8840   59.6310 P.3   402  ATP402      0.5373
      2  O1G       29.0520   31.0910   59.5140 O.3   402  ATP402     -0.1143
      3  O2G       30.5620   33.2290   58.8300 O.2   402  ATP402     -0.2221
      4  O3G       31.5570   31.1530   60.2600 O.3   402  ATP402     -0.1143
      5  PB        30.7240   29.5550   58.1370 P.3   402  ATP402      0.2277
      6  O1B       29.4920   28.8890   57.6870 O.2   402  ATP402     -0.5168
      7  O2B       32.1240   28.7890   58.2220 O.3   402  ATP402     -0.4368
      8  O3B       30.7250   31.2150   58.1540 O.3   402  ATP402     -0.2258
      9  PA        32.5990   29.6920   56.0170 P.3   402  ATP402      0.2189
     10  O1A       33.2540   31.0100   55.9160 O.3   402  ATP402     -0.4371
     11  O2A       33.1640   28.3570   55.3460 O.2   402  ATP402     -0.5170
     12  O3A       30.9840   29.6820   56.4730 O.3   402  ATP402     -0.2700
     13  O5'       32.1580   29.9390   54.4380 O.3   402  ATP402     -0.3112
     14  C5'       31.2520   31.0660   54.2400 C.3   402  ATP402      0.1813
     15  C4'       31.0260   31.3430   52.7280 C.3   402  ATP402      0.1821
     16  O4'       32.2390   31.8920   52.0890 O.3   402  ATP402     -0.3135
     17  C3'       30.6600   30.0590   51.9300 C.3   402  ATP402      0.2184
     18  O3'       29.5520   30.3270   51.0530 O.3   402  ATP402     -0.2174
     19  C2'       31.9500   29.7520   51.1660 C.3   402  ATP402      0.2570
     20  O2'       31.7290   28.9300   50.0180 O.3   402  ATP402     -0.2130
     21  C1'       32.4520   31.1600   50.8430 C.3   402  ATP402      0.3186
     22  N9        33.8830   31.1400   50.4690 N.pl3 402  ATP402     -0.1439
     23  C8        34.9440   30.8670   51.2890 C.3   402  ATP402      0.3377
     24  N7        36.0650   30.9840   50.6360 N.2   402  ATP402     -0.2095
     25  C5        35.8030   31.2990   49.3470 C.2   402  ATP402      0.2526
     26  C6        36.5960   31.5370   48.1790 C.2   402  ATP402      0.4393
     27  N6        37.9830   31.5540   48.2550 N.pl3 402  ATP402      0.2180
     28  N1        35.9650   31.7410   46.9960 N.2   402  ATP402      0.0021
     29  C2        34.6270   31.8580   46.9250 C.3   402  ATP402      0.5254
     30  N3        33.8520   31.6910   48.0080 N.2   402  ATP402     -0.0055
     31  C4        34.3920   31.3950   49.2170 C.2   402  ATP402      0.3518
@<TRIPOS>BOND
     1    29    28    1
     2    29    30    1
     3    28    26    2
     4    30    31    2
     5    26    27    1
     6    26    25    1
     7    31    25    1
     8    31    22    1
     9    25    24    2
    10    20    19    1
    11    22    21    1
    12    22    23    1
    13    24    23    1
    14    21    19    1
    15    21    16    1
    16    18    17    1
    17    19    17    1
    18    17    15    1
    19    16    15    1
    20    15    14    1
    21    14    13    1
    22    13     9    1
    23    11     9    2
    24    10     9    1
    25     9    12    1
    26    12     5    1
    27     6     5    2
    28     5     8    1
    29     5     7    1
    30     8     1    1
    31     3     1    2
    32     2     1    1
    33     1     4    1
