@<TRIPOS>MOLECULE
2yx1_SFG_A_1.pdb
 27 29 0 0 0
SMALL
GASTEIGER

@<TRIPOS>ATOM
      1  N         59.6600   36.8450    4.0160 N.3   401  SFG401     -0.1208
      2  CA        58.4710   36.0030    3.8130 C.3   401  SFG401      0.1944
      3  C         57.3390   36.8380    3.2090 C.2   401  SFG401      0.3819
      4  O         57.5560   38.0560    3.0270 O.co2 401  SFG401     -0.2441
      5  OXT       56.2760   36.2330    2.9430 O.co2 401  SFG401     -0.2441
      6  CB        58.0160   35.4180    5.1520 C.3   401  SFG401      0.0321
      7  CG        59.1280   34.5920    5.8020 C.3   401  SFG401      0.0212
      8  CD        58.6270   34.0100    7.1250 C.3   401  SFG401      0.0944
      9  NE        58.1160   35.1090    7.9580 N.3   401  SFG401     -0.1328
     10  C5'       59.7740   33.3260    7.8710 C.3   401  SFG401      0.0514
     11  C4'       60.4150   32.2340    7.0110 C.3   401  SFG401      0.1537
     12  O4'       61.6480   31.8500    7.6320 O.3   401  SFG401     -0.3161
     13  C3'       59.5940   30.9520    6.8360 C.3   401  SFG401      0.2159
     14  O3'       59.2720   30.7770    5.4520 O.3   401  SFG401     -0.2175
     15  C2'       60.5610   29.8570    7.2920 C.3   401  SFG401      0.2569
     16  O2'       60.4950   28.7520    6.3860 O.3   401  SFG401     -0.2130
     17  C1'       61.9110   30.5470    7.0990 C.3   401  SFG401      0.3185
     18  N9        62.9790   29.9640    7.9380 N.pl3 401  SFG401     -0.1439
     19  C8        62.8420   29.5590    9.1990 C.3   401  SFG401      0.3377
     20  N7        64.0340   29.2220    9.6870 N.2   401  SFG401     -0.2095
     21  C5        64.9370   29.4030    8.7270 C.2   401  SFG401      0.2526
     22  C6        66.3100   29.2190    8.6380 C.2   401  SFG401      0.4393
     23  N6        66.9970   28.7300    9.6670 N.pl3 401  SFG401      0.2180
     24  N1        66.9310   29.5080    7.4850 N.2   401  SFG401      0.0021
     25  C2        66.2580   29.9590    6.4410 C.3   401  SFG401      0.5254
     26  N3        64.9500   30.1390    6.4890 N.2   401  SFG401     -0.0055
     27  C4        64.2640   29.8740    7.6090 C.2   401  SFG401      0.3518
@<TRIPOS>BOND
     1     5     3   ar
     2     4     3   ar
     3     3     2    1
     4     2     1    1
     5     2     6    1
     6     6     7    1
     7    14    13    1
     8     7     8    1
     9    16    15    1
    10    25    26    1
    11    25    24    1
    12    26    27    2
    13    13    11    1
    14    13    15    1
    15    11    12    1
    16    11    10    1
    17    17    15    1
    18    17    12    1
    19    17    18    1
    20     8    10    1
    21     8     9    1
    22    24    22    2
    23    27    18    1
    24    27    21    1
    25    18    19    1
    26    22    21    1
    27    22    23    1
    28    21    20    2
    29    19    20    1
