@<TRIPOS>MOLECULE
2yx4_GLN_A_1.pdb
 10 9 0 0 0
SMALL
GASTEIGER

@<TRIPOS>ATOM
      1  N         54.8700   33.0200    8.7410 N.3   1001  GLN1001    -0.1208
      2  CA        53.8360   32.3760    7.8670 C.3   1001  GLN1001     0.1948
      3  C         54.1960   32.5240    6.3930 C.2   1001  GLN1001     0.3819
      4  O         53.3250   32.9820    5.6230 O.co2 1001  GLN1001    -0.2441
      5  CB        52.4680   33.0110    8.1160 C.3   1001  GLN1001     0.0403
      6  CG        52.0070   32.9780    9.5610 C.3   1001  GLN1001     0.0906
      7  CD        50.5300   33.2980    9.7000 C.2   1001  GLN1001     0.2608
      8  OE1       50.0630   34.3370    9.2330 O.2   1001  GLN1001    -0.2717
      9  NE2       49.7850   32.4040   10.3460 N.am  1001  GLN1001    -0.0878
     10  OXT       55.3400   32.1730    6.0350 O.co2 1001  GLN1001    -0.2441
@<TRIPOS>BOND
     1     4     3   ar
     2    10     3   ar
     3     3     2    1
     4     2     5    1
     5     2     1    1
     6     5     6    1
     7     8     7    2
     8     6     7    1
     9     7     9   am
