@<TRIPOS>MOLECULE
2yx6_ADP_C_1.pdb
 27 29 0 0 0
SMALL
GASTEIGER

@<TRIPOS>ATOM
      1  PB       -41.3150   30.4900   13.6060 P.3   1001  ADP1001     0.5373
      2  O1B      -41.9660   31.3150   12.3230 O.2   1001  ADP1001    -0.2221
      3  O2B      -39.9310   29.7910   13.0990 O.3   1001  ADP1001    -0.1143
      4  O3B      -41.0120   31.3450   14.7840 O.3   1001  ADP1001    -0.1143
      5  PA       -42.1880   27.8160   13.6780 P.3   1001  ADP1001     0.2231
      6  O1A      -41.1840   27.5920   12.6100 O.2   1001  ADP1001    -0.5169
      7  O2A      -43.4940   27.1220   13.6050 O.3   1001  ADP1001    -0.4370
      8  O3A      -42.4720   29.3770   13.8670 O.3   1001  ADP1001    -0.2261
      9  O5'      -41.4670   27.5070   15.0910 O.3   1001  ADP1001    -0.3111
     10  C5'      -40.0460   27.6190   15.2590 C.3   1001  ADP1001     0.1813
     11  C4'      -39.6400   27.3970   16.7270 C.3   1001  ADP1001     0.1821
     12  O4'      -38.2170   27.1270   16.9560 O.3   1001  ADP1001    -0.3135
     13  C3'      -39.9270   28.7700   17.3160 C.3   1001  ADP1001     0.2184
     14  O3'      -40.1330   28.6560   18.7290 O.3   1001  ADP1001    -0.2174
     15  C2'      -38.6230   29.4590   16.9950 C.3   1001  ADP1001     0.2570
     16  O2'      -38.4880   30.6210   17.7790 O.3   1001  ADP1001    -0.2130
     17  C1'      -37.5860   28.3490   17.3510 C.3   1001  ADP1001     0.3186
     18  N9       -36.4720   28.6710   16.4830 N.pl3 1001  ADP1001    -0.1439
     19  C8       -36.4690   28.7670   15.1530 C.3   1001  ADP1001     0.3377
     20  N7       -35.2360   29.0620   14.7070 N.2   1001  ADP1001    -0.2095
     21  C5       -34.4500   29.1650   15.7650 C.2   1001  ADP1001     0.2526
     22  C6       -33.1020   29.4800   15.9370 C.2   1001  ADP1001     0.4393
     23  N6       -32.2590   29.7700   14.9300 N.pl3 1001  ADP1001     0.2180
     24  N1       -32.6310   29.4870   17.1640 N.2   1001  ADP1001     0.0021
     25  C2       -33.4110   29.2360   18.2130 C.3   1001  ADP1001     0.5254
     26  N3       -34.6890   28.9260   18.0810 N.2   1001  ADP1001    -0.0055
     27  C4       -35.2440   28.9240   16.8790 C.2   1001  ADP1001     0.3518
@<TRIPOS>BOND
     1     2     1    2
     2     6     5    2
     3     3     1    1
     4     7     5    1
     5     1     8    1
     6     1     4    1
     7     5     8    1
     8     5     9    1
     9    20    19    1
    10    20    21    2
    11    23    22    1
    12     9    10    1
    13    19    18    1
    14    10    11    1
    15    21    22    1
    16    21    27    1
    17    22    24    2
    18    18    27    1
    19    18    17    1
    20    11    12    1
    21    11    13    1
    22    27    26    2
    23    12    17    1
    24    15    13    1
    25    15    17    1
    26    15    16    1
    27    24    25    1
    28    13    14    1
    29    26    25    1
