@<TRIPOS>MOLECULE
2yx7_GLN_A_1.pdb
 10 9 0 0 0
SMALL
GASTEIGER

@<TRIPOS>ATOM
      1  N         34.6460   54.2550   -8.3970 N.3   202  GLN202     -0.1208
      2  CA        33.2920   53.7900   -7.9820 C.3   202  GLN202      0.1948
      3  C         33.3310   53.1980   -6.5770 C.2   202  GLN202      0.3819
      4  O         34.1950   52.3280   -6.3240 O.co2 202  GLN202     -0.2441
      5  CB        32.7690   52.7390   -8.9630 C.3   202  GLN202      0.0403
      6  CG        33.6220   51.4830   -9.0340 C.3   202  GLN202      0.0906
      7  CD        32.9970   50.3980   -9.8890 C.2   202  GLN202      0.2608
      8  OE1       33.5270   49.2910   -9.9930 O.2   202  GLN202     -0.2717
      9  NE2       31.8610   50.7100  -10.5050 N.am  202  GLN202     -0.0878
     10  OXT       32.4960   53.6150   -5.7460 O.co2 202  GLN202     -0.2441
@<TRIPOS>BOND
     1     9     7   am
     2     8     7    2
     3     7     6    1
     4     6     5    1
     5     5     2    1
     6     1     2    1
     7     2     3    1
     8     3     4   ar
     9     3    10   ar
