@<TRIPOS>MOLECULE
2yxc_HEM_A_1.pdb
 43 50 0 0 0
SMALL
GASTEIGER

@<TRIPOS>ATOM
      1  CHA       21.5810   41.8630   25.9040 C.2   1004  HEM1004     0.0000
      2  CHB       21.3970   37.1550   24.9290 C.2   1004  HEM1004     0.0000
      3  CHC       25.4850   36.4660   27.3380 C.2   1004  HEM1004     0.0000
      4  CHD       25.8440   41.2130   28.0210 C.2   1004  HEM1004     0.0000
      5  C1A       21.0630   40.6140   25.5060 C.ar  1004  HEM1004     0.0000
      6  C2A       19.8580   40.3840   24.8710 C.ar  1004  HEM1004     0.0000
      7  C3A       19.7700   39.0160   24.6550 C.ar  1004  HEM1004     0.0000
      8  C4A       20.9710   38.4870   25.0810 C.ar  1004  HEM1004     0.0000
      9  CMA       18.5970   38.2530   24.0550 C.3   1004  HEM1004     0.0000
     10  CAA       18.8170   41.3920   24.4480 C.3   1004  HEM1004     0.0000
     11  CBA       18.8980   41.7030   22.9680 C.3   1004  HEM1004     0.0000
     12  CGA       17.7140   42.5040   22.4810 C.2   1004  HEM1004     0.0000
     13  O1A       16.5710   42.0420   22.6710 O.co2 1004  HEM1004     0.0000
     14  O2A       17.9270   43.5950   21.9130 O.co2 1004  HEM1004     0.0000
     15  C1B       22.5740   36.5220   25.3820 C.2   1004  HEM1004     0.0000
     16  C2B       22.9430   35.2230   25.1050 C.2   1004  HEM1004     0.0000
     17  C3B       24.1180   35.0000   25.8200 C.2   1004  HEM1004     0.0000
     18  C4B       24.4070   36.1980   26.4740 C.2   1004  HEM1004     0.0000
     19  CMB       22.1770   34.2740   24.1920 C.3   1004  HEM1004     0.0000
     20  CAB       24.8970   33.8500   25.8510 C.3   1004  HEM1004     0.0000
     21  CBB       25.6370   33.4760   24.6540 C.3   1004  HEM1004     0.0000
     22  C1C       25.9040   37.6960   27.8780 C.ar  1004  HEM1004     0.0000
     23  C2C       26.9460   37.8720   28.7670 C.ar  1004  HEM1004     0.0000
     24  C3C       27.0780   39.2500   28.9450 C.ar  1004  HEM1004     0.0000
     25  C4C       26.0800   39.8340   28.1750 C.ar  1004  HEM1004     0.0000
     26  CMC       27.7510   36.7570   29.4080 C.3   1004  HEM1004     0.0000
     27  CAC       28.0310   39.9380   29.7050 C.3   1004  HEM1004     0.0000
     28  CBC       29.4280   39.5050   29.7520 C.3   1004  HEM1004     0.0000
     29  C1D       24.7670   41.8640   27.4000 C.2   1004  HEM1004     0.0000
     30  C2D       24.5940   43.2250   27.3250 C.2   1004  HEM1004     0.0000
     31  C3D       23.3270   43.4230   26.7860 C.2   1004  HEM1004     0.0000
     32  C4D       22.8380   42.1630   26.4810 C.2   1004  HEM1004     0.0000
     33  CMD       25.5850   44.2910   27.7620 C.3   1004  HEM1004     0.0000
     34  CAD       22.6130   44.7440   26.5800 C.3   1004  HEM1004     0.0000
     35  CBD       21.9050   45.2210   27.8380 C.3   1004  HEM1004     0.0000
     36  CGD       20.9730   46.3840   27.5760 C.2   1004  HEM1004     0.0000
     37  O1D       21.4540   47.4490   27.1320 O.co2 1004  HEM1004     0.0000
     38  O2D       19.7540   46.2330   27.8170 O.co2 1004  HEM1004     0.0000
     39  NA        21.6840   39.4460   25.6680 N.ar  1004  HEM1004     0.0000
     40  NB        23.4940   37.0990   26.1380 N.2   1004  HEM1004     0.0000
     41  NC        25.3490   38.8770   27.6010 N.ar  1004  HEM1004     0.0000
     42  ND        23.7460   41.2520   26.8080 N.2   1004  HEM1004     0.0000
     43 FE         23.5490   39.1630   26.5680 Fe    1004  HEM1004     0.0000
@<TRIPOS>BOND
     1    14    12   ar
     2    12    13   ar
     3    12    11    1
     4    11    10    1
     5     9     7    1
     6    19    16    1
     7    10     6    1
     8    21    20    1
     9     7     6   ar
    10     7     8   ar
    11     6     5   ar
    12     2     8    2
    13     2    15    1
    14     8    39   ar
    15    16    15    1
    16    16    17    2
    17    15    40    2
    18     5    39   ar
    19     5     1    2
    20    39    43    1
    21    17    20    1
    22    17    18    1
    23     1    32    1
    24    40    18    1
    25    40    43    1
    26    18     3    2
    27    32    31    1
    28    32    42    2
    29    43    42    1
    30    43    41    1
    31    34    31    1
    32    34    35    1
    33    31    30    2
    34    42    29    1
    35    37    36   ar
    36    30    29    1
    37    30    33    1
    38     3    22    1
    39    29     4    2
    40    36    38   ar
    41    36    35    1
    42    41    22   ar
    43    41    25   ar
    44    22    23   ar
    45     4    25    1
    46    25    24   ar
    47    23    24   ar
    48    23    26    1
    49    24    27    1
    50    27    28    1
