@<TRIPOS>MOLECULE
2yxl_SFG_A_1.pdb
 27 29 0 0 0
SMALL
GASTEIGER

@<TRIPOS>ATOM
      1  N        -21.1200   76.5500   16.9320 N.3   5748  SFG5748    -0.1208
      2  CA       -20.8240   77.8000   16.2090 C.3   5748  SFG5748     0.1944
      3  C        -21.2260   77.6620   14.7260 C.2   5748  SFG5748     0.3819
      4  O        -21.4660   78.7140   14.0970 O.co2 5748  SFG5748    -0.2441
      5  OXT      -21.2990   76.5080   14.2520 O.co2 5748  SFG5748    -0.2441
      6  CB       -19.3340   78.1630   16.3600 C.3   5748  SFG5748     0.0321
      7  CG       -18.9850   78.4810   17.8260 C.3   5748  SFG5748     0.0212
      8  CD       -17.5280   78.9340   18.0110 C.3   5748  SFG5748     0.0944
      9  NE       -16.6370   77.8280   17.6330 N.3   5748  SFG5748    -0.1328
     10  C5'      -17.2080   79.3020   19.4770 C.3   5748  SFG5748     0.0514
     11  C4'      -18.1880   80.3190   20.1150 C.3   5748  SFG5748     0.1537
     12  O4'      -18.1790   80.0440   21.5360 O.3   5748  SFG5748    -0.3161
     13  C3'      -17.7520   81.7890   19.9790 C.3   5748  SFG5748     0.2159
     14  O3'      -18.7830   82.5150   19.2960 O.3   5748  SFG5748    -0.2175
     15  C2'      -17.6090   82.2820   21.4270 C.3   5748  SFG5748     0.2569
     16  O2'      -18.1260   83.6100   21.5790 O.3   5748  SFG5748    -0.2130
     17  C1'      -18.4990   81.2950   22.1740 C.3   5748  SFG5748     0.3185
     18  N9       -18.2050   81.1640   23.6310 N.pl3 5748  SFG5748    -0.1439
     19  C8       -17.0000   81.0580   24.1960 C.3   5748  SFG5748     0.3377
     20  N7       -17.1320   80.9440   25.5180 N.2   5748  SFG5748    -0.2095
     21  C5       -18.4310   80.9780   25.8000 C.2   5748  SFG5748     0.2526
     22  C6       -19.1650   80.9060   26.9820 C.2   5748  SFG5748     0.4393
     23  N6       -18.5530   80.7750   28.1570 N.pl3 5748  SFG5748     0.2180
     24  N1       -20.5070   80.9710   26.9200 N.2   5748  SFG5748     0.0021
     25  C2       -21.1290   81.1020   25.7550 C.3   5748  SFG5748     0.5254
     26  N3       -20.4570   81.1740   24.6120 N.2   5748  SFG5748    -0.0055
     27  C4       -19.1140   81.1140   24.6020 C.2   5748  SFG5748     0.3518
@<TRIPOS>BOND
     1     4     3   ar
     2     5     3   ar
     3     3     2    1
     4     2     6    1
     5     2     1    1
     6     6     7    1
     7     9     8    1
     8     7     8    1
     9     8    10    1
    10    14    13    1
    11    10    11    1
    12    13    11    1
    13    13    15    1
    14    11    12    1
    15    15    16    1
    16    15    17    1
    17    12    17    1
    18    17    18    1
    19    18    19    1
    20    18    27    1
    21    19    20    1
    22    27    26    2
    23    27    21    1
    24    26    25    1
    25    20    21    2
    26    25    24    1
    27    21    22    1
    28    24    22    2
    29    22    23    1
