@<TRIPOS>MOLECULE
2yxn_AZY_A_1.pdb
 16 16 0 0 0
SMALL
GASTEIGER

@<TRIPOS>ATOM
      1  OXT        4.7590   28.4790   15.5960 O.co2 501  AZY501     -0.2440
      2  C          5.4710   28.3070   16.6080 C.2   501  AZY501      0.3822
      3  O          5.0740   28.1950   17.7880 O.co2 501  AZY501     -0.2440
      4  CA         6.9840   28.2370   16.3960 C.3   501  AZY501      0.1986
      5  N          7.2890   27.7450   15.0430 N.3   501  AZY501     -0.1205
      6  CB         7.5660   29.6390   16.5970 C.3   501  AZY501      0.0570
      7  CG         9.0970   29.5980   16.5680 C.ar  501  AZY501     -0.0184
      8  CD2        9.7820   28.9300   17.5780 C.ar  501  AZY501      0.0211
      9  CD1        9.7950   30.1660   15.5050 C.ar  501  AZY501     -0.0008
     10  CE1       11.1820   30.0450   15.4530 C.ar  501  AZY501      0.0434
     11  CZ        11.8640   29.3640   16.4570 C.ar  501  AZY501      0.2159
     12  OH        13.2120   29.1970   16.3760 O.3   501  AZY501     -0.2849
     13  CE2       11.1680   28.8090   17.5280 C.ar  501  AZY501      0.1552
     14  N1        11.8020   28.1770   18.5150 N.2   501  AZY501     -0.0675
     15  N2        12.9160   28.0420   18.5270 N.2   501  AZY501     -0.1615
     16  N3        14.0280   27.8980   18.5450 N.2   501  AZY501      0.0682
@<TRIPOS>BOND
     1     5     4    1
     2    10     9   ar
     3    10    11   ar
     4     9     7   ar
     5     1     2   ar
     6    12    11    1
     7     4     6    1
     8     4     2    1
     9    11    13   ar
    10     7     6    1
    11     7     8   ar
    12     2     3   ar
    13    13     8   ar
    14    13    14    1
    15    14    15    2
    16    15    16    2
