@<TRIPOS>MOLECULE
2yxs_LAT_A_1.pdb
 23 24 0 0 0
SMALL
GASTEIGER

@<TRIPOS>ATOM
      1  C1        15.5110   25.5520   -6.7830 C.3   401  LAT401      0.2695
      2  C2        15.9170   26.8530   -6.0590 C.3   401  LAT401      0.2406
      3  C3        17.3860   26.7150   -5.6110 C.3   401  LAT401      0.2198
      4  C4        17.5010   25.5050   -4.6660 C.3   401  LAT401      0.2144
      5  C5        17.0340   24.2480   -5.4460 C.3   401  LAT401      0.1835
      6  C6        17.1390   23.0300   -4.5200 C.3   401  LAT401      0.2142
      7  O1        14.1390   25.7010   -7.2070 O.3   401  LAT401     -0.3257
      8  O2        15.7830   27.9660   -6.9510 O.3   401  LAT401     -0.2149
      9  O3        17.8010   27.9040   -4.9260 O.3   401  LAT401     -0.2174
     10  O4        16.6620   25.7130   -3.5150 O.3   401  LAT401     -0.2176
     11  O5        15.6460   24.4090   -5.8750 O.3   401  LAT401     -0.3256
     12  O6        16.7170   21.8600   -5.2160 O.3   401  LAT401     -0.2176
     13  C1'       11.7400   23.2780   -9.6840 C.3   401  LAT401      0.3023
     14  C2'       11.8470   22.8870   -8.1910 C.3   401  LAT401      0.2433
     15  C3'       12.3220   24.1180   -7.4030 C.3   401  LAT401      0.2168
     16  C4'       13.6930   24.5430   -7.9530 C.3   401  LAT401      0.1804
     17  C5'       13.5180   24.8730   -9.4750 C.3   401  LAT401      0.1804
     18  C6'       14.8720   25.2830  -10.0820 C.3   401  LAT401      0.2141
     19  O1'       11.3000   22.1390  -10.4290 O.3   401  LAT401     -0.1869
     20  O2'       10.5650   22.4790   -7.7020 O.3   401  LAT401     -0.2148
     21  O3'       12.4410   23.7930   -6.0160 O.3   401  LAT401     -0.2175
     22  O5'       13.0370   23.7030  -10.1970 O.3   401  LAT401     -0.3237
     23  O6'       14.7080   25.5800  -11.4690 O.3   401  LAT401     -0.2176
@<TRIPOS>BOND
     1    23    18    1
     2    19    13    1
     3    22    13    1
     4    22    17    1
     5    18    17    1
     6    13    14    1
     7    17    16    1
     8    14    20    1
     9    14    15    1
    10    16    15    1
    11    16     7    1
    12    15    21    1
    13     7     1    1
    14     8     2    1
    15     1     2    1
    16     1    11    1
    17     2     3    1
    18    11     5    1
    19     3     9    1
    20     3     4    1
    21     5     4    1
    22     5     6    1
    23    12     6    1
    24     4    10    1
