@<TRIPOS>MOLECULE
2yxu_ATP_A_1.pdb
 31 33 0 0 0
SMALL
GASTEIGER

@<TRIPOS>ATOM
      1  PG        26.7490    1.4590   46.8620 P.3   1410  ATP1410     0.5373
      2  O1G       25.8880    2.4230   45.9300 O.2   1410  ATP1410    -0.2221
      3  O2G       26.8290    1.8860   48.3650 O.3   1410  ATP1410    -0.1143
      4  O3G       28.1490    1.3760   46.2080 O.3   1410  ATP1410    -0.1143
      5  PB        26.2910   -1.8200   46.5120 P.3   1410  ATP1410     0.2277
      6  O1B       27.7560   -2.0220   46.2840 O.2   1410  ATP1410    -0.5168
      7  O2B       25.5180   -2.5740   47.4540 O.3   1410  ATP1410    -0.4368
      8  O3B       25.9920   -0.1590   46.7640 O.3   1410  ATP1410    -0.2258
      9  PA        25.4000   -3.0550   44.0560 P.3   1410  ATP1410     0.2189
     10  O1A       25.4020   -2.5140   42.6980 O.2   1410  ATP1410    -0.5170
     11  O2A       26.4330   -4.0440   44.2980 O.3   1410  ATP1410    -0.4371
     12  O3A       25.5580   -1.8460   45.0880 O.3   1410  ATP1410    -0.2700
     13  O5'       24.0270   -3.7450   44.5820 O.3   1410  ATP1410    -0.3112
     14  C5'       22.6630   -3.2360   44.9420 C.3   1410  ATP1410     0.1813
     15  C4'       21.7650   -4.2700   44.2400 C.3   1410  ATP1410     0.1821
     16  O4'       21.9790   -4.5040   42.8960 O.3   1410  ATP1410    -0.3135
     17  C3'       21.8760   -5.7190   44.9390 C.3   1410  ATP1410     0.2184
     18  O3'       21.5770   -5.7050   46.2890 O.3   1410  ATP1410    -0.2174
     19  C2'       21.0520   -6.4760   43.9990 C.3   1410  ATP1410     0.2570
     20  O2'       19.6650   -6.4600   44.2050 O.3   1410  ATP1410    -0.2130
     21  C1'       21.5400   -5.8850   42.6160 C.3   1410  ATP1410     0.3186
     22  N9        22.7970   -6.4140   41.9170 N.pl3 1410  ATP1410    -0.1439
     23  C8        23.9790   -5.7080   41.6520 C.3   1410  ATP1410     0.3377
     24  N7        24.9040   -6.3430   41.0300 N.2   1410  ATP1410    -0.2095
     25  C5        24.3360   -7.5890   40.8420 C.2   1410  ATP1410     0.2526
     26  C6        24.7890   -8.7700   40.2140 C.2   1410  ATP1410     0.4393
     27  N6        25.9900   -8.8030   39.6550 N.pl3 1410  ATP1410     0.2180
     28  N1        23.9530   -9.8650   40.1960 N.2   1410  ATP1410     0.0021
     29  C2        22.7290   -9.8150   40.7640 C.3   1410  ATP1410     0.5254
     30  N3        22.2130   -8.7420   41.3720 N.2   1410  ATP1410    -0.0055
     31  C4        23.0440   -7.6620   41.3850 C.2   1410  ATP1410     0.3518
@<TRIPOS>BOND
     1    27    26    1
     2    28    26    2
     3    28    29    1
     4    26    25    1
     5    29    30    1
     6    25    24    2
     7    25    31    1
     8    24    23    1
     9    30    31    2
    10    31    22    1
    11    23    22    1
    12    22    21    1
    13    21    16    1
    14    21    19    1
    15    10     9    2
    16    16    15    1
    17    19    20    1
    18    19    17    1
    19     9    11    1
    20     9    13    1
    21     9    12    1
    22    15    17    1
    23    15    14    1
    24    13    14    1
    25    17    18    1
    26    12     5    1
    27     2     1    2
    28     4     1    1
    29     6     5    2
    30     5     8    1
    31     5     7    1
    32     8     1    1
    33     1     3    1
