@<TRIPOS>MOLECULE
2yxx_PLP_A_1.pdb
 16 16 0 0 0
SMALL
GASTEIGER

@<TRIPOS>ATOM
      1  N1        45.0510   28.9820   31.8130 N.ar  401  PLP401     -0.2452
      2  C2        46.0480   29.9140   31.7020 C.ar  401  PLP401      0.0982
      3  C2A       47.5200   29.3990   31.6750 C.3   401  PLP401      0.0555
      4  C3        45.7370   31.2380   31.5560 C.ar  401  PLP401      0.2120
      5  O3        46.7330   32.1740   31.3330 O.3   401  PLP401     -0.2852
      6  C4        44.3600   31.6250   31.5570 C.ar  401  PLP401      0.0822
      7  C4A       43.9710   33.0360   31.3790 C.2   401  PLP401      0.2372
      8  O4A       44.8190   33.9150   31.3300 O.2   401  PLP401     -0.2830
      9  C5        43.3620   30.6740   31.6080 C.ar  401  PLP401      0.0333
     10  C6        43.7190   29.3440   31.7090 C.ar  401  PLP401      0.0969
     11  C5A       42.1570   31.6030   31.2480 C.3   401  PLP401      0.1819
     12  O4P       41.2700   31.3580   30.4570 O.3   401  PLP401     -0.2653
     13  P         39.8600   31.8500   30.4440 P.3   401  PLP401      0.5329
     14  O1P       39.4860   32.7510   31.6230 O.3   401  PLP401     -0.1145
     15  O2P       39.7280   32.2560   28.9770 O.2   401  PLP401     -0.2224
     16  O3P       39.2600   30.4710   30.5720 O.3   401  PLP401     -0.1145
@<TRIPOS>BOND
     1    15    13    2
     2    13    12    1
     3    13    16    1
     4    13    14    1
     5    12    11    1
     6    11     9    1
     7     8     7    2
     8     5     4    1
     9     7     6    1
    10     4     6   ar
    11     4     2   ar
    12     6     9   ar
    13     9    10   ar
    14     3     2    1
    15     2     1   ar
    16    10     1   ar
