@<TRIPOS>MOLECULE
2yy1_NLC_A_1.pdb
 26 27 0 0 0
SMALL
GASTEIGER

@<TRIPOS>ATOM
      1  C1        20.7610   20.6870   24.2760 C.3   161  NLC161      0.2917
      2  O1        19.7160   21.3450   24.9970 O.3   161  NLC161     -0.1879
      3  C2        20.1650   19.4910   23.5310 C.3   161  NLC161      0.1870
      4  N         19.1200   19.9600   22.6100 N.am  161  NLC161     -0.1991
      5  C7        19.4010   20.2480   21.3430 C.2   161  NLC161      0.2420
      6  C8        18.2130   20.7190   20.5010 C.3   161  NLC161      0.0964
      7  O7        20.5260   20.1470   20.8570 O.2   161  NLC161     -0.2733
      8  C3        19.5640   18.5050   24.5320 C.3   161  NLC161      0.2063
      9  O3        19.0850   17.3450   23.8450 O.3   161  NLC161     -0.2184
     10  C4        20.6340   18.0990   25.5460 C.3   161  NLC161      0.1796
     11  O4        20.0550   17.2370   26.5360 O.3   161  NLC161     -0.3258
     12  C5        21.1860   19.3620   26.1920 C.3   161  NLC161      0.1803
     13  C6        22.2530   19.0200   27.2350 C.3   161  NLC161      0.2141
     14  O6        23.3480   18.3490   26.6060 O.3   161  NLC161     -0.2176
     15  O5        21.7620   20.2230   25.1960 O.3   161  NLC161     -0.3243
     16  C12       20.3480   15.3130   27.9490 C.3   161  NLC161      0.2406
     17  O12       20.3750   16.1170   29.1310 O.3   161  NLC161     -0.2149
     18  C13       21.1740   14.0460   28.1750 C.3   161  NLC161      0.2198
     19  O13       20.5400   13.2560   29.1840 O.3   161  NLC161     -0.2174
     20  C14       21.2550   13.2500   26.8710 C.3   161  NLC161      0.2144
     21  C15       21.7780   14.1470   25.7460 C.3   161  NLC161      0.1835
     22  C16       21.8190   13.3590   24.4360 C.3   161  NLC161      0.2142
     23  C10       20.9050   16.1060   26.7650 C.3   161  NLC161      0.2695
     24  O16       22.2920   14.2060   23.3860 O.3   161  NLC161     -0.2176
     25  O15       20.9190   15.2870   25.5850 O.3   161  NLC161     -0.3256
     26  O40       19.9570   12.7600   26.5220 O.3   161  NLC161     -0.2176
@<TRIPOS>BOND
     1     6     5    1
     2     7     5    2
     3     5     4   am
     4     4     3    1
     5    24    22    1
     6     3     1    1
     7     3     8    1
     8     9     8    1
     9     1     2    1
    10     1    15    1
    11    22    21    1
    12     8    10    1
    13    15    12    1
    14    10    12    1
    15    10    11    1
    16    25    21    1
    17    25    23    1
    18    21    20    1
    19    12    13    1
    20    26    20    1
    21    11    23    1
    22    14    13    1
    23    23    16    1
    24    20    18    1
    25    16    18    1
    26    16    17    1
    27    18    19    1
