@<TRIPOS>MOLECULE
2yy2_IBM_A_1.pdb
 16 17 0 0 0
SMALL
GASTEIGER

@<TRIPOS>ATOM
      1  N9        75.4290   52.4650   39.9010 N.2   1103  IBM1103    -0.2256
      2  C8        74.5720   53.2550   40.6250 C.3   1103  IBM1103     0.2523
      3  N7        74.9290   53.2590   41.8840 N.2   1103  IBM1103    -0.2364
      4  C5        76.0290   52.4770   42.0380 C.ar  1103  IBM1103     0.1681
      5  C4        76.3620   51.9580   40.7670 C.ar  1103  IBM1103     0.1667
      6  N3        77.4690   51.1030   40.6140 N.ar  1103  IBM1103    -0.2651
      7  C2        78.2450   50.7620   41.7310 C.ar  1103  IBM1103     0.3350
      8  N1        77.9530   51.2500   42.9910 N.ar  1103  IBM1103    -0.2454
      9  C6        76.8730   52.0970   43.1950 C.ar  1103  IBM1103     0.2846
     10  O6        76.6110   52.5320   44.3160 O.2   1103  IBM1103    -0.2651
     11  O2        79.2060   50.0160   41.6080 O.2   1103  IBM1103    -0.2461
     12  C10       78.8080   50.8610   44.1520 C.3   1103  IBM1103     0.1383
     13  C11       77.7350   50.6050   39.2130 C.3   1103  IBM1103     0.1119
     14  C12       79.2280   50.4240   38.7890 C.3   1103  IBM1103     0.0228
     15  C13       79.2760   49.9280   37.3340 C.3   1103  IBM1103     0.0020
     16  C14       80.0330   51.7390   38.8820 C.3   1103  IBM1103     0.0020
@<TRIPOS>BOND
     1    15    14    1
     2    14    16    1
     3    14    13    1
     4    13     6    1
     5     1     2    1
     6     1     5    2
     7     6     5   ar
     8     6     7   ar
     9     2     3    1
    10     5     4   ar
    11    11     7    2
    12     7     8   ar
    13     3     4    2
    14     4     9   ar
    15     8     9   ar
    16     8    12    1
    17     9    10    2
