@<TRIPOS>MOLECULE
2yy5_WSA_A_1.pdb
 37 41 0 0 0
SMALL
GASTEIGER

@<TRIPOS>ATOM
      1  CD2       62.0300   -6.2930   77.7060 C.2   1350  WSA1350     0.0113
      2  CE3       62.2970   -6.2960   76.3410 C.2   1350  WSA1350    -0.0202
      3  CZ3       62.9270   -5.2030   75.7630 C.3   1350  WSA1350     0.0521
      4  CH2       63.2920   -4.1150   76.5480 C.2   1350  WSA1350    -0.0199
      5  CZ2       63.0240   -4.1130   77.9110 C.2   1350  WSA1350     0.0148
      6  CE2       62.3900   -5.2050   78.4840 C.2   1350  WSA1350     0.0804
      7  N11       62.0180   -5.4750   79.7340 N.2   1350  WSA1350    -0.2442
      8  CD1       61.4420   -6.6710   79.7720 C.2   1350  WSA1350     0.0946
      9  CG        61.4380   -7.2060   78.5560 C.2   1350  WSA1350     0.0000
     10  CB        60.9610   -8.6130   78.1940 C.3   1350  WSA1350     0.0564
     11  CA        59.5960   -8.6290   77.5070 C.3   1350  WSA1350     0.1753
     12  NH3       58.5850   -8.0180   78.3860 N.3   1350  WSA1350    -0.1226
     13  C         59.2220  -10.0850   77.2450 C.2   1350  WSA1350     0.2801
     14  O         58.7590  -10.7690   78.1630 O.2   1350  WSA1350    -0.2701
     15  NS        59.4250  -10.5720   76.0250 N.am  1350  WSA1350    -0.0576
     16  S         59.5390  -12.2020   76.0770 S.3   1350  WSA1350     0.0852
     17  O1S       60.4380  -12.6190   77.2040 O.3   1350  WSA1350    -0.0508
     18  O2S       58.1790  -12.8050   76.2770 O.3   1350  WSA1350    -0.0508
     19  O5'       60.0860  -12.6400   74.8290 O.3   1350  WSA1350    -0.2230
     20  C5'       61.4270  -12.2690   74.4900 C.3   1350  WSA1350     0.2064
     21  C4'       61.5240  -11.7380   73.0570 C.3   1350  WSA1350     0.1842
     22  O4'       60.8930  -12.6880   72.1780 O.3   1350  WSA1350    -0.3135
     23  C3'       60.7610  -10.4180   72.9010 C.3   1350  WSA1350     0.2185
     24  O3'       61.4970   -9.5350   72.0490 O.3   1350  WSA1350    -0.2174
     25  C2'       59.4700  -10.8710   72.2210 C.3   1350  WSA1350     0.2570
     26  O2'       58.9540   -9.7980   71.4300 O.3   1350  WSA1350    -0.2130
     27  C1'       60.0500  -11.9360   71.2910 C.3   1350  WSA1350     0.3186
     28  N9        58.9890  -12.8120   70.7450 N.pl3 1350  WSA1350    -0.1439
     29  C8        58.0840  -13.4780   71.4640 C.3   1350  WSA1350     0.3377
     30  N7        57.3360  -14.2280   70.6650 N.2   1350  WSA1350    -0.2095
     31  C5        57.7640  -14.0400   69.4100 C.2   1350  WSA1350     0.2526
     32  C4        58.8100  -13.1320   69.4700 C.2   1350  WSA1350     0.3518
     33  N3        59.4220  -12.7660   68.3300 N.2   1350  WSA1350    -0.0055
     34  C2        59.0350  -13.2680   67.1730 C.3   1350  WSA1350     0.5254
     35  N1        58.0440  -14.1370   67.0830 N.2   1350  WSA1350     0.0021
     36  C6        57.3880  -14.5460   68.1830 C.2   1350  WSA1350     0.4393
     37  N6        56.4040  -15.4400   68.0800 N.pl3 1350  WSA1350     0.2180
@<TRIPOS>BOND
     1    35    34    1
     2    35    36    2
     3    34    33    1
     4    37    36    1
     5    36    31    1
     6    33    32    2
     7    31    32    1
     8    31    30    2
     9    32    28    1
    10    30    29    1
    11    28    27    1
    12    28    29    1
    13    27    22    1
    14    27    25    1
    15    26    25    1
    16    24    23    1
    17    22    21    1
    18    25    23    1
    19    23    21    1
    20    21    20    1
    21    20    19    1
    22    19    16    1
    23     3     2    1
    24     3     4    1
    25    15    16    1
    26    15    13   am
    27    16    18    1
    28    16    17    1
    29     2     1    2
    30     4     5    2
    31    13    11    1
    32    13    14    2
    33    11    10    1
    34    11    12    1
    35     1     6    1
    36     1     9    1
    37     5     6    1
    38    10     9    1
    39     6     7    2
    40     9     8    2
    41     7     8    1
