@<TRIPOS>MOLECULE
2yy7_NAD_A_1.pdb
 44 48 0 0 0
SMALL
GASTEIGER

@<TRIPOS>ATOM
      1  PA        43.7700   22.8230   46.0010 P.3   3001  NAD3001     0.2189
      2  O1A       44.8720   23.2540   46.9060 O.3   3001  NAD3001    -0.4371
      3  O2A       44.1920   22.3700   44.6500 O.2   3001  NAD3001    -0.5170
      4  O5B       42.8180   21.7860   46.7250 O.3   3001  NAD3001    -0.3112
      5  C5B       41.9460   20.9650   46.0030 C.3   3001  NAD3001     0.1813
      6  C4B       41.6730   19.7110   46.7970 C.3   3001  NAD3001     0.1821
      7  O4B       40.6410   18.9890   46.1220 O.3   3001  NAD3001    -0.3135
      8  C3B       42.9220   18.8030   46.8950 C.3   3001  NAD3001     0.2184
      9  O3B       43.2110   18.4460   48.2580 O.3   3001  NAD3001    -0.2174
     10  C2B       42.5580   17.6170   45.9930 C.3   3001  NAD3001     0.2570
     11  O2B       43.1460   16.4030   46.4270 O.3   3001  NAD3001    -0.2130
     12  C1B       41.0250   17.6160   46.0920 C.3   3001  NAD3001     0.3186
     13  N9A       40.3840   16.8720   44.9980 N.pl3 3001  NAD3001    -0.1439
     14  C8A       40.7390   16.9150   43.6500 C.3   3001  NAD3001     0.3377
     15  N7A       39.9310   16.0790   42.9820 N.2   3001  NAD3001    -0.2095
     16  C5A       39.0750   15.5390   43.8780 C.2   3001  NAD3001     0.2526
     17  C6A       38.0700   14.5960   43.7310 C.2   3001  NAD3001     0.4393
     18  N6A       37.8610   14.0170   42.5680 N.pl3 3001  NAD3001     0.2180
     19  N1A       37.3640   14.1950   44.8350 N.2   3001  NAD3001     0.0021
     20  C2A       37.6380   14.7200   46.0890 C.3   3001  NAD3001     0.5254
     21  N3A       38.6550   15.6390   46.2620 N.2   3001  NAD3001    -0.0055
     22  C4A       39.3590   16.0240   45.1480 C.2   3001  NAD3001     0.3518
     23  O3        42.7990   24.0710   45.7240 O.3   3001  NAD3001    -0.2703
     24  PN        42.4020   25.3040   46.7020 P.3   3001  NAD3001     0.2189
     25  O1N       42.1270   24.8510   48.1060 O.3   3001  NAD3001    -0.4371
     26  O2N       43.3580   26.3980   46.3800 O.2   3001  NAD3001    -0.5170
     27  O5D       40.9850   25.7560   46.0510 O.3   3001  NAD3001    -0.3112
     28  C5D       39.7450   25.2430   46.5600 C.3   3001  NAD3001     0.1813
     29  C4D       38.5770   25.9310   45.8010 C.3   3001  NAD3001     0.1799
     30  O4D       38.7260   27.3380   45.8590 O.3   3001  NAD3001    -0.3327
     31  C3D       38.5380   25.6010   44.3060 C.3   3001  NAD3001     0.2158
     32  O3D       37.1780   25.5780   43.8830 O.3   3001  NAD3001    -0.2175
     33  C2D       39.1930   26.7990   43.6610 C.3   3001  NAD3001     0.2309
     34  O2D       38.7970   26.8560   42.3110 O.3   3001  NAD3001    -0.2158
     35  C1D       38.7100   27.9460   44.5490 C.3   3001  NAD3001     0.2263
     36  N1N       39.6230   29.1060   44.4250 N.pl3 3001  NAD3001    -0.2787
     37  C2N       40.9010   29.0320   44.9410 C.3   3001  NAD3001     0.1244
     38  C3N       41.7510   30.1260   44.8190 C.2   3001  NAD3001     0.0544
     39  C7N       43.1060   30.1200   45.4730 C.2   3001  NAD3001     0.2818
     40  O7N       43.8900   31.2330   45.2180 O.2   3001  NAD3001    -0.2670
     41  N7N       43.5480   29.0860   46.2110 N.am  3001  NAD3001    -0.0839
     42  C4N       41.3190   31.2890   44.1540 C.2   3001  NAD3001     0.0033
     43  C5N       40.0130   31.3580   43.6600 C.2   3001  NAD3001     0.0157
     44  C6N       39.1780   30.2640   43.7770 C.2   3001  NAD3001     0.0633
@<TRIPOS>BOND
     1    34    33    1
     2    18    17    1
     3    15    14    1
     4    15    16    2
     5    14    13    1
     6    43    44    2
     7    43    42    1
     8    33    31    1
     9    33    35    1
    10    17    16    1
    11    17    19    2
    12    44    36    1
    13    16    22    1
    14    32    31    1
    15    42    38    2
    16    31    29    1
    17    36    35    1
    18    36    37    1
    19    35    30    1
    20     3     1    2
    21    38    37    1
    22    38    39    1
    23    19    20    1
    24    13    22    1
    25    13    12    1
    26    22    21    2
    27    40    39    2
    28    39    41   am
    29    23     1    1
    30    23    24    1
    31    29    30    1
    32    29    28    1
    33    10    12    1
    34    10    11    1
    35    10     8    1
    36     1     4    1
    37     1     2    1
    38     5     4    1
    39     5     6    1
    40    27    28    1
    41    27    24    1
    42    20    21    1
    43    12     7    1
    44     7     6    1
    45    26    24    2
    46    24    25    1
    47     6     8    1
    48     8     9    1
