@<TRIPOS>MOLECULE
2yye_APC_A_1.pdb
 31 33 0 0 0
SMALL
GASTEIGER

@<TRIPOS>ATOM
      1  PG        56.0040    4.3210   79.9170 P.3   501  APC501      0.5389
      2  O1G       54.9940    3.2450   79.8930 O.3   501  APC501     -0.1143
      3  O2G       55.6880    5.4750   78.8390 O.2   501  APC501     -0.2220
      4  O3G       56.0700    5.0360   81.3460 O.3   501  APC501     -0.1143
      5  PB        58.2620    2.6560   80.5040 P.3   501  APC501      0.3895
      6  O1B       57.2970    2.2360   81.5540 O.3   501  APC501     -0.1388
      7  O2B       58.8060    1.5950   79.6280 O.2   501  APC501     -0.2544
      8  O3B       57.5420    3.8090   79.5930 O.3   501  APC501     -0.2026
      9  PA        59.3090    5.0490   82.1360 P.3   501  APC501      0.3820
     10  O1A       58.1100    4.8840   82.9880 O.3   501  APC501     -0.1392
     11  O2A       59.3100    6.1310   81.1300 O.2   501  APC501     -0.2548
     12  C3A       59.7050    3.4980   81.2630 C.3   501  APC501      0.2357
     13  O5'       60.6100    5.2070   83.0840 O.3   501  APC501     -0.2896
     14  C5'       61.8960    5.4170   82.4740 C.3   501  APC501      0.1836
     15  C4'       63.0080    4.6710   83.2200 C.3   501  APC501      0.1822
     16  O4'       63.2030    5.2810   84.5380 O.3   501  APC501     -0.3135
     17  C3'       62.5770    3.2180   83.4920 C.3   501  APC501      0.2184
     18  O3'       63.7220    2.3810   83.6950 O.3   501  APC501     -0.2174
     19  C2'       61.7940    3.3650   84.7790 C.3   501  APC501      0.2570
     20  O2'       61.8230    2.1140   85.4900 O.3   501  APC501     -0.2130
     21  C1'       62.6590    4.3700   85.5430 C.3   501  APC501      0.3186
     22  N9        61.8470    5.1500   86.5060 N.pl3 501  APC501     -0.1439
     23  C8        60.8250    5.9600   86.1800 C.3   501  APC501      0.3377
     24  N7        60.3850    6.5770   87.2890 N.2   501  APC501     -0.2095
     25  C5        61.1220    6.1600   88.3110 C.2   501  APC501      0.2526
     26  C6        61.1370    6.4610   89.6680 C.2   501  APC501      0.4393
     27  N6        60.2520    7.3160   90.1900 N.pl3 501  APC501      0.2180
     28  N1        62.0420    5.8630   90.4600 N.2   501  APC501      0.0021
     29  C2        62.9130    4.9850   89.9580 C.3   501  APC501      0.5254
     30  N3        62.9170    4.6790   88.6630 N.2   501  APC501     -0.0055
     31  C4        62.0440    5.2520   87.8210 C.2   501  APC501      0.3518
@<TRIPOS>BOND
     1     3     1    2
     2     8     1    1
     3     8     5    1
     4     7     5    2
     5     2     1    1
     6     1     4    1
     7     5    12    1
     8     5     6    1
     9    11     9    2
    10    12     9    1
    11     9    10    1
    12     9    13    1
    13    14    13    1
    14    14    15    1
    15    15    17    1
    16    15    16    1
    17    17    18    1
    18    17    19    1
    19    16    21    1
    20    19    20    1
    21    19    21    1
    22    21    22    1
    23    23    22    1
    24    23    24    1
    25    22    31    1
    26    24    25    2
    27    31    25    1
    28    31    30    2
    29    25    26    1
    30    30    29    1
    31    26    27    1
    32    26    28    2
    33    29    28    1
