@<TRIPOS>MOLECULE
2yyj_4HP_A_1.pdb
 11 11 0 0 0
SMALL
GASTEIGER

@<TRIPOS>ATOM
      1  C8        18.5750   13.5970   13.2520 C.2   550  4HP550      0.3692
      2  O1        18.6460   13.1970   14.4000 O.co2 550  4HP550     -0.2453
      3  O2        19.6090   13.4140   12.4410 O.co2 550  4HP550     -0.2453
      4  C7        17.3380   14.3150   12.7300 C.3   550  4HP550      0.1404
      5  C1        16.4900   14.8530   13.8610 C.ar  550  4HP550     -0.0107
      6  C2        15.7800   14.0190   14.7610 C.ar  550  4HP550     -0.0004
      7  C3        15.0300   14.6110   15.8040 C.ar  550  4HP550      0.0417
      8  C4        14.9940   16.0270   15.9380 C.ar  550  4HP550      0.1957
      9  C5        15.6980   16.8380   15.0330 C.ar  550  4HP550      0.0417
     10  C6        16.4400   16.2530   14.0040 C.ar  550  4HP550     -0.0004
     11  O4        14.2880   16.6060   16.9330 O.3   550  4HP550     -0.2866
@<TRIPOS>BOND
     1     3     1   ar
     2     4     1    1
     3     4     5    1
     4     1     2   ar
     5     5    10   ar
     6     5     6   ar
     7    10     9   ar
     8     6     7   ar
     9     9     8   ar
    10     7     8   ar
    11     8    11    1
