@<TRIPOS>MOLECULE
2yym_4HP_A_1.pdb
 11 11 0 0 0
SMALL
GASTEIGER

@<TRIPOS>ATOM
      1  C8        18.9170   13.8030   13.0960 C.2   550  4HP550      0.3692
      2  O1        19.2900   14.0670   14.2210 O.co2 550  4HP550     -0.2453
      3  O2        19.7780   13.2580   12.2330 O.co2 550  4HP550     -0.2453
      4  C7        17.4920   14.0930   12.6470 C.3   550  4HP550      0.1404
      5  C1        16.6890   14.7680   13.7400 C.ar  550  4HP550     -0.0107
      6  C2        15.9900   14.0020   14.6980 C.ar  550  4HP550     -0.0004
      7  C3        15.2620   14.6470   15.7170 C.ar  550  4HP550      0.0417
      8  C4        15.2320   16.0620   15.7790 C.ar  550  4HP550      0.1957
      9  C5        15.9270   16.8230   14.8130 C.ar  550  4HP550      0.0417
     10  C6        16.6530   16.1790   13.7970 C.ar  550  4HP550     -0.0004
     11  O4        14.5400   16.6840   16.7650 O.3   550  4HP550     -0.2866
@<TRIPOS>BOND
     1     3     1   ar
     2     4     1    1
     3     4     5    1
     4     1     2   ar
     5     5    10   ar
     6     5     6   ar
     7    10     9   ar
     8     6     7   ar
     9     9     8   ar
    10     7     8   ar
    11     8    11    1
