@<TRIPOS>MOLECULE
2yyu_C5P_A_1.pdb
 21 22 0 0 0
SMALL
GASTEIGER

@<TRIPOS>ATOM
      1  O3P       -5.0110   29.2710   63.4360 O.2   1301  C5P1301    -0.2224
      2  P         -6.4480   29.8310   63.9850 P.3   1301  C5P1301     0.5327
      3  O1P       -7.2110   31.0660   63.9510 O.3   1301  C5P1301    -0.1145
      4  O2P       -7.5300   28.6940   63.6500 O.3   1301  C5P1301    -0.1145
      5  O5'       -6.2670   29.9910   62.2530 O.3   1301  C5P1301    -0.2675
      6  C5'       -7.3230   30.5710   61.3020 C.3   1301  C5P1301     0.1859
      7  C4'       -6.8980   30.3820   59.8590 C.3   1301  C5P1301     0.1801
      8  O4'       -6.5670   28.9480   59.5840 O.3   1301  C5P1301    -0.3320
      9  C3'       -8.0300   30.8180   58.8650 C.3   1301  C5P1301     0.2158
     10  O3'       -7.6150   31.8650   58.0540 O.3   1301  C5P1301    -0.2175
     11  C2'       -8.4160   29.4770   58.1200 C.3   1301  C5P1301     0.2319
     12  O2'       -8.1950   29.4960   56.6990 O.3   1301  C5P1301    -0.2157
     13  C1'       -7.6240   28.3370   58.7910 C.3   1301  C5P1301     0.2400
     14  N1        -8.6250   27.3610   59.5310 N.am  1301  C5P1301    -0.1778
     15  C2        -9.1810   26.2020   58.8140 C.1   1301  C5P1301     0.2756
     16  N3       -10.1120   25.3550   59.5460 N.2   1301  C5P1301    -0.3024
     17  C4       -10.5160   25.5850   60.9170 C.2   1301  C5P1301     0.2346
     18  C5        -9.9760   26.7290   61.6770 C.2   1301  C5P1301     0.0687
     19  C6        -9.0630   27.5570   60.9580 C.2   1301  C5P1301     0.0836
     20  O2        -8.8930   25.9190   57.6130 O.2   1301  C5P1301    -0.1925
     21  N4       -11.4290   24.7260   61.5480 N.pl3 1301  C5P1301    -0.0921
@<TRIPOS>BOND
     1    12    11    1
     2    20    15    2
     3    10     9    1
     4    11    13    1
     5    11     9    1
     6    13    14    1
     7    13     8    1
     8    15    14   am
     9    15    16    2
    10     9     7    1
    11    14    19    1
    12    16    17    2
    13     8     7    1
    14     7     6    1
    15    17    21    1
    16    17    18    1
    17    19    18    2
    18     6     5    1
    19     5     2    1
    20     1     2    2
    21     4     2    1
    22     3     2    1
