@<TRIPOS>MOLECULE
2yyw_HEM_A_1.pdb
 43 50 0 0 0
SMALL
GASTEIGER

@<TRIPOS>ATOM
      1 FE         23.7480   39.1280   26.1370 Fe    1004  HEM1004     0.0000
      2  CHA       21.7430   41.8620   25.5510 C.2   1004  HEM1004     0.0000
      3  CHB       21.4810   37.1310   24.5770 C.2   1004  HEM1004     0.0000
      4  CHC       25.6250   36.3860   26.8700 C.2   1004  HEM1004     0.0000
      5  CHD       26.1310   41.1480   27.5150 C.2   1004  HEM1004     0.0000
      6  NA        21.9010   39.4460   25.2770 N.ar  1004  HEM1004     0.0000
      7  C1A       21.2160   40.6080   25.2100 C.ar  1004  HEM1004     0.0000
      8  C2A       20.0120   40.3760   24.5880 C.ar  1004  HEM1004     0.0000
      9  C3A       19.9100   39.0440   24.3010 C.ar  1004  HEM1004     0.0000
     10  C4A       21.1120   38.4870   24.7540 C.ar  1004  HEM1004     0.0000
     11  CMA       18.7930   38.2730   23.6230 C.3   1004  HEM1004     0.0000
     12  CAA       18.9490   41.4000   24.2160 C.3   1004  HEM1004     0.0000
     13  CBA       19.0640   41.7140   22.7110 C.3   1004  HEM1004     0.0000
     14  CGA       17.8660   42.5230   22.2210 C.2   1004  HEM1004     0.0000
     15  O1A       16.6940   42.1530   22.4960 O.co2 1004  HEM1004     0.0000
     16  O2A       18.0710   43.6040   21.6110 O.co2 1004  HEM1004     0.0000
     17  NB        23.6130   37.0950   25.7500 N.2   1004  HEM1004     0.0000
     18  C1B       22.6790   36.5090   24.9750 C.2   1004  HEM1004     0.0000
     19  C2B       23.0500   35.2130   24.6790 C.2   1004  HEM1004     0.0000
     20  C3B       24.2330   34.9450   25.3550 C.2   1004  HEM1004     0.0000
     21  C4B       24.5360   36.1480   26.0120 C.2   1004  HEM1004     0.0000
     22  CMB       22.2100   34.2970   23.7860 C.3   1004  HEM1004     0.0000
     23  CAB       25.0980   33.7930   25.3200 C.3   1004  HEM1004     0.0000
     24  CBB       25.8660   33.5840   24.0590 C.3   1004  HEM1004     0.0000
     25  NC        25.5440   38.8170   27.1090 N.ar  1004  HEM1004     0.0000
     26  C1C       26.0310   37.6090   27.4380 C.ar  1004  HEM1004     0.0000
     27  C2C       27.1140   37.7720   28.3140 C.ar  1004  HEM1004     0.0000
     28  C3C       27.2960   39.1540   28.4700 C.ar  1004  HEM1004     0.0000
     29  C4C       26.3000   39.7580   27.6850 C.ar  1004  HEM1004     0.0000
     30  CMC       27.8990   36.6390   28.9470 C.3   1004  HEM1004     0.0000
     31  CAC       28.2850   39.8370   29.2630 C.3   1004  HEM1004     0.0000
     32  CBC       29.7300   39.5210   29.0390 C.3   1004  HEM1004     0.0000
     33  ND        23.9140   41.1580   26.4610 N.2   1004  HEM1004     0.0000
     34  C1D       25.0220   41.7820   26.9130 C.2   1004  HEM1004     0.0000
     35  C2D       24.8120   43.1670   26.8660 C.2   1004  HEM1004     0.0000
     36  C3D       23.5430   43.3690   26.3500 C.2   1004  HEM1004     0.0000
     37  C4D       23.0160   42.1090   26.1010 C.2   1004  HEM1004     0.0000
     38  CMD       25.8630   44.2250   27.2880 C.3   1004  HEM1004     0.0000
     39  CAD       22.8360   44.6930   26.1660 C.3   1004  HEM1004     0.0000
     40  CBD       22.2370   45.2090   27.4500 C.3   1004  HEM1004     0.0000
     41  CGD       21.2440   46.3330   27.2280 C.2   1004  HEM1004     0.0000
     42  O1D       21.7010   47.4210   26.7660 O.co2 1004  HEM1004     0.0000
     43  O2D       20.0340   46.1540   27.4660 O.co2 1004  HEM1004     0.0000
@<TRIPOS>BOND
     1    16    14   ar
     2    14    15   ar
     3    14    13    1
     4    13    12    1
     5    11     9    1
     6    22    19    1
     7    24    23    1
     8    12     8    1
     9     9     8   ar
    10     9    10   ar
    11     3    10    2
    12     3    18    1
    13     8     7   ar
    14    19    18    1
    15    19    20    2
    16    10     6   ar
    17    18    17    2
    18     7     6   ar
    19     7     2    2
    20     6     1    1
    21    23    20    1
    22    20    21    1
    23     2    37    1
    24    17    21    1
    25    17     1    1
    26    21     4    2
    27    37    36    1
    28    37    33    2
    29     1    33    1
    30     1    25    1
    31    39    36    1
    32    39    40    1
    33    36    35    2
    34    33    34    1
    35    42    41   ar
    36    35    34    1
    37    35    38    1
    38     4    26    1
    39    34     5    2
    40    25    26   ar
    41    25    29   ar
    42    41    40    1
    43    41    43   ar
    44    26    27   ar
    45     5    29    1
    46    29    28   ar
    47    27    28   ar
    48    27    30    1
    49    28    31    1
    50    32    31    1
