@<TRIPOS>MOLECULE
2yyx_HEM_A_1.pdb
 43 50 0 0 0
SMALL
GASTEIGER

@<TRIPOS>ATOM
      1 FE         23.5880   39.4560   26.3480 Fe    1004  HEM1004     0.0000
      2  CHA       21.6480   42.1850   25.7060 C.2   1004  HEM1004     0.0000
      3  CHB       21.3040   37.4930   24.7800 C.2   1004  HEM1004     0.0000
      4  CHC       25.4290   36.6730   27.0770 C.2   1004  HEM1004     0.0000
      5  CHD       25.9040   41.4230   27.8040 C.2   1004  HEM1004     0.0000
      6  NA        21.7950   39.7770   25.4650 N.ar  1004  HEM1004     0.0000
      7  C1A       21.1450   40.9530   25.3160 C.ar  1004  HEM1004     0.0000
      8  C2A       19.8790   40.7350   24.7220 C.ar  1004  HEM1004     0.0000
      9  C3A       19.7690   39.4000   24.5080 C.ar  1004  HEM1004     0.0000
     10  C4A       20.9690   38.8330   24.9750 C.ar  1004  HEM1004     0.0000
     11  CMA       18.6220   38.6230   23.8710 C.3   1004  HEM1004     0.0000
     12  CAA       18.8480   41.7710   24.3180 C.3   1004  HEM1004     0.0000
     13  CBA       19.0070   42.0990   22.7960 C.3   1004  HEM1004     0.0000
     14  CGA       17.8460   42.9300   22.3040 C.2   1004  HEM1004     0.0000
     15  O1A       16.6700   42.5020   22.5050 O.co2 1004  HEM1004     0.0000
     16  O2A       18.0630   43.9730   21.6840 O.co2 1004  HEM1004     0.0000
     17  NB        23.4490   37.4530   25.9400 N.2   1004  HEM1004     0.0000
     18  C1B       22.5000   36.8710   25.1970 C.2   1004  HEM1004     0.0000
     19  C2B       22.8340   35.5420   24.9040 C.2   1004  HEM1004     0.0000
     20  C3B       24.0120   35.2780   25.5780 C.2   1004  HEM1004     0.0000
     21  C4B       24.3440   36.4810   26.2280 C.2   1004  HEM1004     0.0000
     22  CMB       21.9590   34.6410   24.0310 C.3   1004  HEM1004     0.0000
     23  CAB       24.8500   34.0700   25.5600 C.3   1004  HEM1004     0.0000
     24  CBB       25.6660   33.9220   24.3010 C.3   1004  HEM1004     0.0000
     25  NC        25.3360   39.1330   27.3120 N.ar  1004  HEM1004     0.0000
     26  C1C       25.8830   37.9140   27.5970 C.ar  1004  HEM1004     0.0000
     27  C2C       26.9400   38.0510   28.4870 C.ar  1004  HEM1004     0.0000
     28  C3C       27.1300   39.3890   28.7010 C.ar  1004  HEM1004     0.0000
     29  C4C       26.0920   40.0390   27.9230 C.ar  1004  HEM1004     0.0000
     30  CMC       27.7040   36.8800   29.1100 C.3   1004  HEM1004     0.0000
     31  CAC       28.0900   40.0750   29.5280 C.3   1004  HEM1004     0.0000
     32  CBC       29.5580   39.7390   29.2580 C.3   1004  HEM1004     0.0000
     33  ND        23.7600   41.4510   26.6580 N.2   1004  HEM1004     0.0000
     34  C1D       24.8400   42.0650   27.2200 C.2   1004  HEM1004     0.0000
     35  C2D       24.6840   43.4700   27.1650 C.2   1004  HEM1004     0.0000
     36  C3D       23.4430   43.6860   26.5690 C.2   1004  HEM1004     0.0000
     37  C4D       22.9120   42.4460   26.2920 C.2   1004  HEM1004     0.0000
     38  CMD       25.6870   44.4870   27.6890 C.3   1004  HEM1004     0.0000
     39  CAD       22.7520   45.0460   26.3950 C.3   1004  HEM1004     0.0000
     40  CBD       21.9820   45.4480   27.6500 C.3   1004  HEM1004     0.0000
     41  CGD       21.0770   46.6580   27.4490 C.2   1004  HEM1004     0.0000
     42  O1D       21.5270   47.6870   26.9400 O.co2 1004  HEM1004     0.0000
     43  O2D       19.8560   46.4550   27.7080 O.co2 1004  HEM1004     0.0000
@<TRIPOS>BOND
     1    16    14   ar
     2    14    15   ar
     3    14    13    1
     4    13    12    1
     5    11     9    1
     6    22    19    1
     7    24    23    1
     8    12     8    1
     9     9     8   ar
    10     9    10   ar
    11     8     7   ar
    12     3    10    2
    13     3    18    1
    14    19    18    1
    15    19    20    2
    16    10     6   ar
    17    18    17    2
    18     7     6   ar
    19     7     2    2
    20     6     1    1
    21    23    20    1
    22    20    21    1
    23     2    37    1
    24    17    21    1
    25    17     1    1
    26    21     4    2
    27    37    36    1
    28    37    33    2
    29     1    33    1
    30     1    25    1
    31    39    36    1
    32    39    40    1
    33    36    35    2
    34    33    34    1
    35    42    41   ar
    36     4    26    1
    37    35    34    1
    38    35    38    1
    39    34     5    2
    40    25    26   ar
    41    25    29   ar
    42    41    40    1
    43    41    43   ar
    44    26    27   ar
    45     5    29    1
    46    29    28   ar
    47    27    28   ar
    48    27    30    1
    49    28    31    1
    50    32    31    1
