@<TRIPOS>MOLECULE
2yyy_NAP_A_1.pdb
 48 52 0 0 0
SMALL
GASTEIGER

@<TRIPOS>ATOM
      1  PA        46.0340   25.0690   46.1030 P.3   2001  NAP2001     0.2189
      2  O1A       45.7920   25.4640   44.7030 O.2   2001  NAP2001    -0.5170
      3  O2A       46.9140   23.8880   46.3280 O.3   2001  NAP2001    -0.4371
      4  O5B       46.6940   26.3280   46.8530 O.3   2001  NAP2001    -0.3112
      5  C5B       47.0180   26.3100   48.2320 C.3   2001  NAP2001     0.1813
      6  C4B       47.8980   27.5140   48.4800 C.3   2001  NAP2001     0.1820
      7  O4B       48.2140   27.5960   49.8590 O.3   2001  NAP2001    -0.3136
      8  C3B       49.2140   27.4320   47.7070 C.3   2001  NAP2001     0.2157
      9  O3B       49.4340   28.7290   47.2040 O.3   2001  NAP2001    -0.2175
     10  C2B       50.2320   27.0850   48.7860 C.3   2001  NAP2001     0.2314
     11  O2B       51.4490   27.7120   48.5300 O.3   2001  NAP2001    -0.2630
     12  C1B       49.6090   27.7290   50.0010 C.3   2001  NAP2001     0.3158
     13  N9A       50.0480   27.1220   51.2580 N.pl3 2001  NAP2001    -0.1439
     14  C8A       50.6420   25.8840   51.4780 C.3   2001  NAP2001     0.3377
     15  N7A       50.8410   25.7560   52.8060 N.2   2001  NAP2001    -0.2095
     16  C5A       50.3610   26.8750   53.4250 C.2   2001  NAP2001     0.2526
     17  C6A       50.3140   27.2900   54.7600 C.2   2001  NAP2001     0.4393
     18  N6A       50.8080   26.5170   55.7560 N.pl3 2001  NAP2001     0.2180
     19  N1A       49.7330   28.4950   55.0540 N.2   2001  NAP2001     0.0021
     20  C2A       49.2450   29.3370   54.0750 C.3   2001  NAP2001     0.5254
     21  N3A       49.3170   28.9540   52.7570 N.2   2001  NAP2001    -0.0055
     22  C4A       49.8580   27.7390   52.4500 C.2   2001  NAP2001     0.3518
     23  O3        44.6100   24.7420   46.8080 O.3   2001  NAP2001    -0.2703
     24  PN        43.1510   25.3300   46.3550 P.3   2001  NAP2001     0.2189
     25  O1N       43.1920   26.8190   46.1890 O.3   2001  NAP2001    -0.4371
     26  O2N       42.6020   24.4680   45.2710 O.2   2001  NAP2001    -0.5170
     27  O5D       42.2650   24.9780   47.6810 O.3   2001  NAP2001    -0.3112
     28  C5D       42.3540   25.7730   48.8700 C.3   2001  NAP2001     0.1813
     29  C4D       41.0560   25.6050   49.6870 C.3   2001  NAP2001     0.1799
     30  O4D       40.0000   26.0030   48.8300 O.3   2001  NAP2001    -0.3327
     31  C3D       40.7030   24.1640   50.1320 C.3   2001  NAP2001     0.2158
     32  O3D       39.9480   24.1730   51.3470 O.3   2001  NAP2001    -0.2175
     33  C2D       39.7830   23.6530   49.0360 C.3   2001  NAP2001     0.2309
     34  O2D       38.9060   22.6170   49.4780 O.3   2001  NAP2001    -0.2158
     35  C1D       39.0370   24.9700   48.7290 C.3   2001  NAP2001     0.2263
     36  N1N       38.3410   25.0460   47.4340 N.pl3 2001  NAP2001    -0.2787
     37  C2N       38.9630   24.5910   46.2860 C.3   2001  NAP2001     0.1244
     38  C3N       38.2970   24.6420   45.0680 C.2   2001  NAP2001     0.0544
     39  C7N       38.9480   24.0500   43.8490 C.2   2001  NAP2001     0.2818
     40  O7N       38.1310   23.6340   42.8050 O.2   2001  NAP2001    -0.2670
     41  N7N       40.2640   23.9060   43.7670 N.am  2001  NAP2001    -0.0839
     42  C4N       36.9860   25.1730   45.0070 C.2   2001  NAP2001     0.0033
     43  C5N       36.3940   25.6750   46.1680 C.2   2001  NAP2001     0.0157
     44  C6N       37.0630   25.5820   47.3960 C.2   2001  NAP2001     0.0633
     45  P2B       52.6040   27.0160   47.6070 P.3   2001  NAP2001     0.5328
     46  O1X       52.9890   25.7440   48.3040 O.3   2001  NAP2001    -0.1145
     47  O2X       53.6670   27.9860   47.4680 O.3   2001  NAP2001    -0.1145
     48  O3X       51.8710   26.7580   46.2980 O.2   2001  NAP2001    -0.2224
@<TRIPOS>BOND
     1    40    39    2
     2    41    39   am
     3    39    38    1
     4     2     1    2
     5    42    38    2
     6    42    43    1
     7    38    37    1
     8    26    24    2
     9     1     3    1
    10     1    23    1
    11     1     4    1
    12    43    44    2
    13    25    24    1
    14    37    36    1
    15    48    45    2
    16    24    23    1
    17    24    27    1
    18     4     5    1
    19     9     8    1
    20    44    36    1
    21    36    35    1
    22    47    45    1
    23    45    46    1
    24    45    11    1
    25    27    28    1
    26     8     6    1
    27     8    10    1
    28     5     6    1
    29     6     7    1
    30    11    10    1
    31    35    30    1
    32    35    33    1
    33    10    12    1
    34    30    29    1
    35    28    29    1
    36    33    34    1
    37    33    31    1
    38    29    31    1
    39     7    12    1
    40    12    13    1
    41    31    32    1
    42    13    14    1
    43    13    22    1
    44    14    15    1
    45    22    21    2
    46    22    16    1
    47    21    20    1
    48    15    16    2
    49    16    17    1
    50    20    19    1
    51    17    19    2
    52    17    18    1
