@<TRIPOS>MOLECULE
2yz3_M5P_A_1.pdb
 15 15 0 0 0
SMALL
GASTEIGER

@<TRIPOS>ATOM
      1  C1        34.5260    5.8250  107.5980 C.ar  401  M5P401     -0.0043
      2  C2        35.6080    5.2180  106.9670 C.ar  401  M5P401     -0.0003
      3  C3        36.9080    5.5610  107.3290 C.ar  401  M5P401     -0.0000
      4  C4        37.1230    6.5060  108.3300 C.ar  401  M5P401     -0.0003
      5  C5        36.0420    7.1110  108.9610 C.ar  401  M5P401     -0.0043
      6  C6        34.7400    6.7780  108.5890 C.ar  401  M5P401     -0.0222
      7  C7        33.5480    7.5720  109.1320 C.3   401  M5P401      0.0264
      8  C8        33.7360    9.0420  108.7510 C.3   401  M5P401      0.0053
      9  C9        32.4350    9.7360  108.3440 C.3   401  M5P401      0.0125
     10  C10       32.7740   11.0190  107.5820 C.3   401  M5P401      0.1150
     11  C12       31.5750   11.5870  106.8220 C.2   401  M5P401      0.3652
     12  O2        31.4660   11.3770  105.6130 O.co2 401  M5P401     -0.2456
     13  O1        30.7330   12.2740  107.3930 O.co2 401  M5P401     -0.2456
     14  C11       33.3840   12.0800  108.4950 C.3   401  M5P401      0.0799
     15  S1        35.1490   12.3230  108.0790 S.3   401  M5P401     -0.0816
@<TRIPOS>BOND
     1    12    11   ar
     2    11    13   ar
     3    11    10    1
     4     2     3   ar
     5     2     1   ar
     6     3     4   ar
     7    10     9    1
     8    10    14    1
     9     1     6   ar
    10    15    14    1
    11     4     5   ar
    12     9     8    1
    13     6     5   ar
    14     6     7    1
    15     8     7    1
