@<TRIPOS>MOLECULE
2yzb_URC_A_1.pdb
 12 13 0 0 0
SMALL
GASTEIGER

@<TRIPOS>ATOM
      1  N1        29.7520   72.2100   53.4250 N.2   2304  URC2304    -0.2289
      2  C2        30.9050   71.5250   53.8170 C.1   2304  URC2304     0.3754
      3  C6        28.4440   71.7290   53.5480 C.1   2304  URC2304     0.2604
      4  N3        30.7740   70.2740   54.3730 N.2   2304  URC2304    -0.2368
      5  O11       32.0000   71.9950   53.6830 O.2   2304  URC2304    -0.1738
      6  C4        29.5660   69.7270   54.5330 C.1   2304  URC2304     0.2099
      7  C5        28.4000   70.3800   54.1530 C.2   2304  URC2304     0.3262
      8  N9        29.3040   68.5320   55.0520 N.2   2304  URC2304    -0.2373
      9  O13       27.4910   72.4170   53.1690 O.2   2304  URC2304    -0.2051
     10  N7        27.3810   69.5840   54.4380 N.2   2304  URC2304    -0.2823
     11  C8        27.9700   68.4840   54.9760 C.1   2304  URC2304     0.3665
     12  O24       27.3360   67.5320   55.3560 O.2   2304  URC2304    -0.1745
@<TRIPOS>BOND
     1     9     3    2
     2     1     3    2
     3     1     2    2
     4     3     7    1
     5     5     2    2
     6     2     4    2
     7     7    10    2
     8     7     6    1
     9     4     6    2
    10    10    11    2
    11     6     8    2
    12    11     8    2
    13    11    12    2
