@<TRIPOS>MOLECULE
2yzc_1AL_A_1.pdb
 12 11 0 0 0
SMALL
GASTEIGER

@<TRIPOS>ATOM
      1  C1        20.3940   68.1470    9.2260 C.2   303  1AL303      0.3609
      2  O2        19.1710   67.9630    9.3400 O.2   303  1AL303     -0.2474
      3  N3        20.9800   69.3530    9.4580 N.am  303  1AL303     -0.0678
      4  N4        21.1100   67.0110    8.8510 N.am  303  1AL303     -0.1545
      5  C5        22.9400   66.8630   10.7930 C.2   303  1AL303      0.4050
      6  O6        22.0570   67.0930   11.6400 O.co2 303  1AL303     -0.2417
      7  O7        24.0940   66.4750   11.0340 O.co2 303  1AL303     -0.2417
      8  C8        22.4890   66.8160    9.3010 C.3   303  1AL303      0.2960
      9  C9        24.4310   67.7070    8.1030 C.2   303  1AL303      0.3609
     10  O10       25.6010   67.3710    7.8230 O.2   303  1AL303     -0.2474
     11  N11       24.0750   69.0070    8.3480 N.am  303  1AL303     -0.0678
     12  N12       23.4240   66.8090    8.1830 N.am  303  1AL303     -0.1545
@<TRIPOS>BOND
     1    10     9    2
     2     9    12   am
     3     9    11   am
     4    12     8    1
     5     4     1   am
     6     4     8    1
     7     1     2    2
     8     1     3   am
     9     8     5    1
    10     5     7   ar
    11     5     6   ar
