@<TRIPOS>MOLECULE
2yzd_AZA_A_1.pdb
 11 12 0 0 0
SMALL
GASTEIGER

@<TRIPOS>ATOM
      1  N1        19.9310   67.9990    9.5430 N.2   1301  AZA1301    -0.2300
      2  C2        19.6980   66.6880    9.1370 C.1   1301  AZA1301     0.3745
      3  O2        18.6280   66.1430    9.3330 O.2   1301  AZA1301    -0.1738
      4  N3        20.7260   66.0050    8.4960 N.2   1301  AZA1301    -0.2491
      5  C4        21.9160   66.6170    8.2770 C.1   1301  AZA1301     0.1531
      6  C5        22.1630   67.9230    8.6740 C.2   1301  AZA1301     0.2717
      7  C6        21.1280   68.7110    9.3610 C.1   1301  AZA1301     0.2477
      8  O6        21.2230   69.8660    9.7600 O.2   1301  AZA1301    -0.2062
      9  N7        23.4110   68.2400    8.3190 N.2   1301  AZA1301    -0.1149
     10  N8        23.8660   67.1210    7.7270 N.pl3 1301  AZA1301    -0.0026
     11  N9        22.9820   66.1010    7.6800 N.2   1301  AZA1301    -0.0705
@<TRIPOS>BOND
     1    11    10    1
     2    11     5    2
     3    10     9    1
     4     5     4    2
     5     5     6    1
     6     9     6    2
     7     4     2    2
     8     6     7    1
     9     2     3    2
    10     2     1    2
    11     7     1    2
    12     7     8    2
