@<TRIPOS>MOLECULE
2yzl_ADP_A_1.pdb
 27 29 0 0 0
SMALL
GASTEIGER

@<TRIPOS>ATOM
      1  PB        35.4140   27.7700   19.9420 P.3   500  ADP500      0.5373
      2  O1B       35.9130   26.6170   20.7000 O.3   500  ADP500     -0.1143
      3  O2B       35.3470   29.2720   20.4880 O.3   500  ADP500     -0.1143
      4  O3B       34.4420   27.4760   18.6780 O.2   500  ADP500     -0.2221
      5  PA        33.9660   28.1830   22.3230 P.3   500  ADP500      0.2231
      6  O1A       32.6620   28.1100   23.0120 O.2   500  ADP500     -0.5169
      7  O2A       35.3300   28.5320   23.0810 O.3   500  ADP500     -0.4370
      8  O3A       34.0500   27.4380   20.8360 O.3   500  ADP500     -0.2261
      9  O5'       34.2970   26.7220   23.0040 O.3   500  ADP500     -0.3111
     10  C5'       33.2640   25.7420   22.7690 C.3   500  ADP500      0.1813
     11  C4'       33.9190   24.4030   22.4650 C.3   500  ADP500      0.1821
     12  O4'       33.4130   23.3680   23.3650 O.3   500  ADP500     -0.3135
     13  C3'       33.6080   23.9630   21.0290 C.3   500  ADP500      0.2184
     14  O3'       34.8150   23.5310   20.3820 O.3   500  ADP500     -0.2174
     15  C2'       32.5800   22.8450   21.2080 C.3   500  ADP500      0.2570
     16  O2'       32.6440   21.9240   20.1280 O.3   500  ADP500     -0.2130
     17  C1'       32.9700   22.2370   22.5660 C.3   500  ADP500      0.3186
     18  N9        31.8290   21.5680   23.2430 N.pl3 500  ADP500     -0.1439
     19  C8        30.5510   22.0550   23.4120 C.3   500  ADP500      0.3377
     20  N7        29.8160   21.1950   24.0700 N.2   500  ADP500     -0.2095
     21  C5        30.5590   20.0940   24.3510 C.2   500  ADP500      0.2526
     22  C6        30.3260   18.8360   24.9960 C.2   500  ADP500      0.4393
     23  N6        29.1760   18.6090   25.7320 N.pl3 500  ADP500      0.2180
     24  N1        31.2640   17.8690   24.8720 N.2   500  ADP500      0.0021
     25  C2        32.4890   18.1450   24.4100 C.3   500  ADP500      0.5254
     26  N3        32.8110   19.3730   23.9910 N.2   500  ADP500     -0.0055
     27  C4        31.8670   20.3280   23.8400 C.2   500  ADP500      0.3518
@<TRIPOS>BOND
     1     4     1    2
     2     1     3    1
     3     1     2    1
     4     1     8    1
     5    16    15    1
     6    14    13    1
     7     8     5    1
     8    13    15    1
     9    13    11    1
    10    15    17    1
    11     5     9    1
    12     5     6    2
    13     5     7    1
    14    11    10    1
    15    11    12    1
    16    17    18    1
    17    17    12    1
    18    10     9    1
    19    18    19    1
    20    18    27    1
    21    19    20    1
    22    27    26    2
    23    27    21    1
    24    26    25    1
    25    20    21    2
    26    21    22    1
    27    25    24    1
    28    24    22    2
    29    22    23    1
