@<TRIPOS>MOLECULE
2yzn_ANP_A_1.pdb
 31 33 0 0 0
SMALL
GASTEIGER

@<TRIPOS>ATOM
      1  PG        25.4960   12.4040   56.4420 P.3   401  ANP401      0.4884
      2  O1G       26.0580   12.3540   55.0650 O.2   401  ANP401     -0.2331
      3  O2G       26.4020   11.4750   57.3980 O.3   401  ANP401     -0.1240
      4  O3G       23.9790   11.8570   56.4240 O.3   401  ANP401     -0.1240
      5  PB        24.3110   14.3400   58.1260 P.3   401  ANP401      0.4669
      6  O1B       24.3030   15.7840   58.4670 O.3   401  ANP401     -0.1253
      7  O2B       22.8700   13.9810   57.4870 O.2   401  ANP401     -0.2351
      8  N3B       25.5560   14.0190   57.0040 N.3   401  ANP401     -0.0163
      9  PA        25.7200   14.0540   60.4220 P.3   401  ANP401      0.2220
     10  O1A       27.0150   13.9730   59.7090 O.2   401  ANP401     -0.5170
     11  O2A       25.4250   15.5900   60.7980 O.3   401  ANP401     -0.4370
     12  O3A       24.5230   13.4480   59.4830 O.3   401  ANP401     -0.2360
     13  O5'       25.8100   13.1870   61.7880 O.3   401  ANP401     -0.3111
     14  C5'       24.5090   13.2020   62.4050 C.3   401  ANP401      0.1813
     15  C4'       24.6180   13.5570   63.8980 C.3   401  ANP401      0.1821
     16  O4'       25.6410   12.7430   64.5540 O.3   401  ANP401     -0.3135
     17  C3'       25.0200   15.0270   64.1090 C.3   401  ANP401      0.2184
     18  O3'       23.8750   15.8840   64.1500 O.3   401  ANP401     -0.2174
     19  C2'       25.8030   14.9980   65.4250 C.3   401  ANP401      0.2570
     20  O2'       24.9610   15.2640   66.5510 O.3   401  ANP401     -0.2130
     21  C1'       26.4160   13.5850   65.4710 C.3   401  ANP401      0.3186
     22  N9        27.8420   13.6260   65.0640 N.pl3 401  ANP401     -0.1439
     23  C8        28.3520   13.4300   63.8000 C.3   401  ANP401      0.3377
     24  N7        29.6500   13.5220   63.8120 N.2   401  ANP401     -0.2095
     25  C5        30.0660   13.7830   65.0700 C.2   401  ANP401      0.2526
     26  C6        31.3260   13.9830   65.6850 C.2   401  ANP401      0.4393
     27  N6        32.4830   13.9220   64.9360 N.pl3 401  ANP401      0.2180
     28  N1        31.3710   14.2330   67.0140 N.2   401  ANP401      0.0021
     29  C2        30.2570   14.2950   67.7580 C.3   401  ANP401      0.5254
     30  N3        29.0500   14.1110   67.2180 N.2   401  ANP401     -0.0055
     31  C4        28.9100   13.8560   65.8960 C.2   401  ANP401      0.3518
@<TRIPOS>BOND
     1     2     1    2
     2     4     1    1
     3     1     8    1
     4     1     3    1
     5     8     5    1
     6     7     5    2
     7     5     6    1
     8     5    12    1
     9    12     9    1
    10    10     9    2
    11     9    11    1
    12     9    13    1
    13    13    14    1
    14    14    15    1
    15    23    24    1
    16    23    22    1
    17    24    25    2
    18    15    17    1
    19    15    16    1
    20    17    18    1
    21    17    19    1
    22    16    21    1
    23    27    26    1
    24    22    21    1
    25    22    31    1
    26    25    26    1
    27    25    31    1
    28    19    21    1
    29    19    20    1
    30    26    28    2
    31    31    30    2
    32    28    29    1
    33    30    29    1
