@<TRIPOS>MOLECULE
2yzq_SAM_A_1.pdb
 27 29 0 0 0
SMALL
GASTEIGER

@<TRIPOS>ATOM
      1  N         26.3480   -4.8160    6.5530 N.3   6075  SAM6075    -0.1208
      2  CA        26.3470   -5.4310    5.2170 C.3   6075  SAM6075     0.1952
      3  C         25.0180   -6.1230    4.9710 C.2   6075  SAM6075     0.3819
      4  O         24.7060   -6.4640    3.8410 O.co2 6075  SAM6075    -0.2441
      5  OXT       24.2590   -6.3420    5.8980 O.co2 6075  SAM6075    -0.2441
      6  CB        27.5000   -6.4400    5.1300 C.3   6075  SAM6075     0.0414
      7  CG        27.8280   -6.7310    3.6640 C.3   6075  SAM6075     0.0503
      8  SD        29.3650   -7.6940    3.5450 S.3   6075  SAM6075    -0.1761
      9  CE        29.3130   -8.0920    1.7650 C.3   6075  SAM6075     0.0590
     10  C5'       29.0120   -9.2570    4.3810 C.3   6075  SAM6075     0.0806
     11  C4'       30.0660  -10.2910    3.9810 C.3   6075  SAM6075     0.1622
     12  O4'       31.3680   -9.6600    3.9070 O.3   6075  SAM6075    -0.3153
     13  C3'       30.1670  -11.4260    5.0090 C.3   6075  SAM6075     0.2168
     14  O3'       30.2710  -12.6840    4.3220 O.3   6075  SAM6075    -0.2175
     15  C2'       31.4490  -11.0790    5.7790 C.3   6075  SAM6075     0.2569
     16  O2'       32.0360  -12.2370    6.3820 O.3   6075  SAM6075    -0.2130
     17  C1'       32.2950  -10.4630    4.6550 C.3   6075  SAM6075     0.3185
     18  N9        33.3840   -9.6150    5.1450 N.pl3 6075  SAM6075    -0.1439
     19  C8        33.3310   -8.5940    6.0660 C.3   6075  SAM6075     0.3377
     20  N7        34.4950   -8.0020    6.1290 N.2   6075  SAM6075    -0.2095
     21  C5        35.3800   -8.6880    5.3570 C.2   6075  SAM6075     0.2526
     22  C6        36.7740   -8.6080    5.0830 C.2   6075  SAM6075     0.4393
     23  N6        37.5640   -7.6540    5.6920 N.pl3 6075  SAM6075     0.2180
     24  N1        37.3210   -9.4850    4.2150 N.2   6075  SAM6075     0.0021
     25  C2        36.6010  -10.4600    3.6490 C.3   6075  SAM6075     0.5254
     26  N3        35.2890  -10.5540    3.8500 N.2   6075  SAM6075    -0.0055
     27  C4        34.6560   -9.7180    4.7090 C.2   6075  SAM6075     0.3518
@<TRIPOS>BOND
     1     9     8    1
     2     8     7    1
     3     8    10    1
     4    25    26    1
     5    25    24    1
     6     7     6    1
     7     4     3   ar
     8    26    27    2
     9    12    11    1
    10    12    17    1
    11    11    10    1
    12    11    13    1
    13    24    22    2
    14    14    13    1
    15    17    18    1
    16    17    15    1
    17    27    18    1
    18    27    21    1
    19     3     2    1
    20     3     5   ar
    21    13    15    1
    22    22    21    1
    23    22    23    1
    24     6     2    1
    25    18    19    1
    26     2     1    1
    27    21    20    2
    28    15    16    1
    29    19    20    1
