@<TRIPOS>MOLECULE
2z02_ATP_A_1.pdb
 31 33 0 0 0
SMALL
GASTEIGER

@<TRIPOS>ATOM
      1  PG       -12.9890   26.4210  -28.8200 P.3   1527  ATP1527     0.5373
      2  O1G      -12.1760   26.3300  -30.0520 O.2   1527  ATP1527    -0.2221
      3  O2G      -13.9190   25.2320  -28.2700 O.3   1527  ATP1527    -0.1143
      4  O3G      -13.3180   27.9170  -28.2690 O.3   1527  ATP1527    -0.1143
      5  PB       -14.3210   28.0170  -30.6490 P.3   1527  ATP1527     0.2277
      6  O1B      -13.0250   28.6800  -30.8930 O.3   1527  ATP1527    -0.4368
      7  O2B      -15.6510   28.3390  -31.4680 O.2   1527  ATP1527    -0.5168
      8  O3B      -14.2760   26.5770  -29.8510 O.3   1527  ATP1527    -0.2258
      9  PA       -13.4730   27.9240  -33.2970 P.3   1527  ATP1527     0.2189
     10  O1A      -14.4470   28.0390  -34.3930 O.2   1527  ATP1527    -0.5170
     11  O2A      -11.9040   28.1740  -33.4820 O.3   1527  ATP1527    -0.4371
     12  O3A      -13.9550   27.0690  -31.9590 O.3   1527  ATP1527    -0.2700
     13  O5'      -13.0120   26.4640  -33.9580 O.3   1527  ATP1527    -0.3112
     14  C5'      -14.1170   25.5300  -34.1550 C.3   1527  ATP1527     0.1813
     15  C4'      -13.8080   24.1030  -33.6080 C.3   1527  ATP1527     0.1821
     16  O4'      -12.8600   23.3400  -34.4170 O.3   1527  ATP1527    -0.3135
     17  C3'      -13.2150   24.1060  -32.1720 C.3   1527  ATP1527     0.2184
     18  O3'      -14.2170   23.6910  -31.2310 O.3   1527  ATP1527    -0.2174
     19  C2'      -12.0270   23.1230  -32.2600 C.3   1527  ATP1527     0.2570
     20  O2'      -11.8880   22.3480  -31.0640 O.3   1527  ATP1527    -0.2130
     21  C1'      -12.3890   22.3070  -33.5140 C.3   1527  ATP1527     0.3186
     22  N9       -11.2270   21.5890  -34.0930 N.pl3 1527  ATP1527    -0.1439
     23  C8        -9.9490   22.0610  -34.2650 C.3   1527  ATP1527     0.3377
     24  N7        -9.2240   21.1820  -34.9090 N.2   1527  ATP1527    -0.2095
     25  C5        -9.9580   20.0620  -35.1220 C.2   1527  ATP1527     0.2526
     26  C6        -9.7210   18.7880  -35.7250 C.2   1527  ATP1527     0.4393
     27  N6        -8.5080   18.5000  -36.3240 N.pl3 1527  ATP1527     0.2180
     28  N1       -10.7060   17.8590  -35.6960 N.2   1527  ATP1527     0.0021
     29  C2       -11.9110   18.1290  -35.1720 C.3   1527  ATP1527     0.5254
     30  N3       -12.1850   19.3200  -34.6330 N.2   1527  ATP1527    -0.0055
     31  C4       -11.2510   20.3000  -34.5800 C.2   1527  ATP1527     0.3518
@<TRIPOS>BOND
     1    27    26    1
     2    26    28    2
     3    26    25    1
     4    28    29    1
     5    29    30    1
     6    25    24    2
     7    25    31    1
     8    24    23    1
     9    30    31    2
    10    31    22    1
    11    16    15    1
    12    16    21    1
    13    10     9    2
    14    23    22    1
    15    14    13    1
    16    14    15    1
    17    22    21    1
    18    13     9    1
    19    15    17    1
    20    21    19    1
    21    11     9    1
    22     9    12    1
    23    19    17    1
    24    19    20    1
    25    17    18    1
    26    12     5    1
    27     7     5    2
    28     6     5    1
    29     5     8    1
    30     2     1    2
    31     8     1    1
    32     1     3    1
    33     1     4    1
