@<TRIPOS>MOLECULE
2z08_ATP_A_1.pdb
 31 33 0 0 0
SMALL
GASTEIGER

@<TRIPOS>ATOM
      1  PG        19.5360    2.8370   12.0250 P.3   1001  ATP1001     0.5373
      2  O1G       20.2120    1.6680   12.6460 O.3   1001  ATP1001    -0.1143
      3  O2G       18.6120    2.5290   10.7520 O.2   1001  ATP1001    -0.2221
      4  O3G       18.8720    3.8930   13.0070 O.3   1001  ATP1001    -0.1143
      5  PB        21.2450    5.0880   11.3510 P.3   1001  ATP1001     0.2277
      6  O1B       22.5240    5.3020   10.6390 O.2   1001  ATP1001    -0.5168
      7  O2B       21.0550    5.6260   12.8410 O.3   1001  ATP1001    -0.4368
      8  O3B       20.7290    3.5770   11.2680 O.3   1001  ATP1001    -0.2258
      9  PA        18.8700    6.7610   10.8470 P.3   1001  ATP1001     0.2189
     10  O1A       17.9010    6.6010    9.7550 O.2   1001  ATP1001    -0.5170
     11  O2A       18.4560    6.5910   12.3520 O.3   1001  ATP1001    -0.4371
     12  O3A       20.1930    5.9070   10.4560 O.3   1001  ATP1001    -0.2700
     13  O5'       19.4830    8.2450   10.7140 O.3   1001  ATP1001    -0.3112
     14  C5'       19.2070    9.1840    9.6650 C.3   1001  ATP1001     0.1813
     15  C4'       18.6270   10.4630   10.2660 C.3   1001  ATP1001     0.1821
     16  O4'       17.3490   10.1510   10.8550 O.3   1001  ATP1001    -0.3135
     17  C3'       19.4450   11.0510   11.4150 C.3   1001  ATP1001     0.2184
     18  O3'       20.5780   11.7640   10.8980 O.3   1001  ATP1001    -0.2174
     19  C2'       18.3870   12.0190   11.9490 C.3   1001  ATP1001     0.2570
     20  O2'       18.2930   13.1440   11.0670 O.3   1001  ATP1001    -0.2130
     21  C1'       17.1080   11.1740   11.8400 C.3   1001  ATP1001     0.3186
     22  N9        16.8510   10.4510   13.1020 N.pl3 1001  ATP1001    -0.1439
     23  C8        17.2050    9.2130   13.4430 C.3   1001  ATP1001     0.3377
     24  N7        16.7960    8.9490   14.6860 N.2   1001  ATP1001    -0.2095
     25  C5        16.1530   10.0250   15.1410 C.2   1001  ATP1001     0.2526
     26  C6        15.5230   10.3370   16.3420 C.2   1001  ATP1001     0.4393
     27  N6        15.4990    9.5170   17.3980 N.pl3 1001  ATP1001     0.2180
     28  N1        14.9580   11.5480   16.4150 N.2   1001  ATP1001     0.0021
     29  C2        14.9840   12.4320   15.4280 C.3   1001  ATP1001     0.5254
     30  N3        15.5950   12.1810   14.2760 N.2   1001  ATP1001    -0.0055
     31  C4        16.1730   10.9740   14.1280 C.2   1001  ATP1001     0.3518
@<TRIPOS>BOND
     1    14    15    1
     2    14    13    1
     3    10     9    2
     4    15    16    1
     5    15    17    1
     6    12     9    1
     7    12     5    1
     8     6     5    2
     9    13     9    1
    10     3     1    2
    11     9    11    1
    12    16    21    1
    13    18    17    1
    14    20    19    1
    15     8     5    1
    16     8     1    1
    17     5     7    1
    18    17    19    1
    19    21    19    1
    20    21    22    1
    21     1     2    1
    22     1     4    1
    23    22    23    1
    24    22    31    1
    25    23    24    1
    26    31    30    2
    27    31    25    1
    28    30    29    1
    29    24    25    2
    30    25    26    1
    31    29    28    1
    32    26    28    2
    33    26    27    1
