@<TRIPOS>MOLECULE
2z09_ACP_A_1.pdb
 31 33 0 0 0
SMALL
GASTEIGER

@<TRIPOS>ATOM
      1  PG        19.5310   34.9910   32.2290 P.3   2001  ACP2001     0.1295
      2  O1G       18.9900   34.1600   31.1240 O.2   2001  ACP2001    -0.4595
      3  O2G       18.5760   35.1630   33.4930 O.3   2001  ACP2001    -0.3567
      4  O3G       19.8740   36.4450   31.6270 O.3   2001  ACP2001    -0.3567
      5  PB        21.3650   32.6850   32.8310 P.3   2001  ACP2001     0.3815
      6  O1B       22.6350   32.3770   33.5040 O.3   2001  ACP2001    -0.1391
      7  O2B       21.2030   32.1650   31.3310 O.2   2001  ACP2001    -0.2547
      8  C3B       21.1330   34.4740   32.8780 C.3   2001  ACP2001     0.1768
      9  PA        18.9910   31.1520   33.3860 P.3   2001  ACP2001     0.2209
     10  O1A       18.5440   31.3640   31.9820 O.2   2001  ACP2001    -0.5170
     11  O2A       17.9070   31.3320   34.5270 O.3   2001  ACP2001    -0.4371
     12  O3A       20.2090   32.1140   33.7940 O.3   2001  ACP2001    -0.2483
     13  O5'       19.6020   29.6690   33.5500 O.3   2001  ACP2001    -0.3111
     14  C5'       19.3210   28.7770   34.6370 C.3   2001  ACP2001     0.1813
     15  C4'       18.7230   27.4960   34.0470 C.3   2001  ACP2001     0.1821
     16  O4'       17.4480   27.7500   33.4260 O.3   2001  ACP2001    -0.3135
     17  C3'       19.5320   26.8570   32.9160 C.3   2001  ACP2001     0.2184
     18  O3'       20.6290   26.0710   33.3940 O.3   2001  ACP2001    -0.2174
     19  C2'       18.4760   25.9050   32.3400 C.3   2001  ACP2001     0.2570
     20  O2'       18.2670   24.7650   33.1830 O.3   2001  ACP2001    -0.2130
     21  C1'       17.1910   26.7340   32.4360 C.3   2001  ACP2001     0.3186
     22  N9        16.8830   27.4700   31.1840 N.pl3 2001  ACP2001    -0.1439
     23  C8        17.2590   28.7020   30.8360 C.3   2001  ACP2001     0.3377
     24  N7        16.8410   28.9280   29.5930 N.2   2001  ACP2001    -0.2095
     25  C5        16.2010   27.8430   29.1510 C.2   2001  ACP2001     0.2526
     26  C6        15.5980   27.4890   27.9480 C.2   2001  ACP2001     0.4393
     27  N6        15.6090   28.2900   26.8730 N.pl3 2001  ACP2001     0.2180
     28  N1        15.0800   26.2520   27.8830 N.2   2001  ACP2001     0.0021
     29  C2        15.1060   25.3870   28.8930 C.3   2001  ACP2001     0.5254
     30  N3        15.6610   25.6890   30.0600 N.2   2001  ACP2001    -0.0055
     31  C4        16.2170   26.9100   30.1790 C.2   2001  ACP2001     0.3518
@<TRIPOS>BOND
     1    27    26    1
     2    28    26    2
     3    28    29    1
     4    26    25    1
     5    29    30    1
     6    25    24    2
     7    25    31    1
     8    24    23    1
     9    30    31    2
    10    31    22    1
    11    23    22    1
    12     2     1    2
    13    22    21    1
    14     7     5    2
    15     4     1    1
    16    10     9    2
    17     1     8    1
    18     1     3    1
    19    19    21    1
    20    19    17    1
    21    19    20    1
    22    21    16    1
    23     5     8    1
    24     5     6    1
    25     5    12    1
    26    17    18    1
    27    17    15    1
    28     9    13    1
    29     9    12    1
    30     9    11    1
    31    16    15    1
    32    13    14    1
    33    15    14    1
