@<TRIPOS>MOLECULE
2z0k_A5A_A_1.pdb
 28 30 0 0 0
SMALL
GASTEIGER

@<TRIPOS>ATOM
      1  N         33.2830   38.3400   28.9870 N.3   600  A5A600     -0.1230
      2  CA        34.4820   37.9450   29.7410 C.3   600  A5A600      0.1710
      3  CB        35.6090   37.5870   28.7700 C.3   600  A5A600      0.0305
      4  C         34.9210   39.1000   30.6440 C.2   600  A5A600      0.2798
      5  O         34.4090   40.2130   30.5390 O.2   600  A5A600     -0.2701
      6  N3S       35.8940   38.8050   31.5020 N.am  600  A5A600     -0.0577
      7  S         36.4540   39.9320   32.5380 S.3   600  A5A600      0.0852
      8  O1S       37.0760   41.0670   31.7810 O.3   600  A5A600     -0.0508
      9  O2S       37.4870   39.3020   33.4250 O.3   600  A5A600     -0.0508
     10  O5'       35.3650   40.4320   33.3200 O.3   600  A5A600     -0.2230
     11  C5'       35.3110   40.1900   34.7280 C.3   600  A5A600      0.2064
     12  C4'       36.2870   41.1000   35.4780 C.3   600  A5A600      0.1842
     13  O4'       35.7890   42.4430   35.6030 O.3   600  A5A600     -0.3135
     14  C3'       36.4680   40.6400   36.9220 C.3   600  A5A600      0.2185
     15  O3'       37.3710   39.5310   36.9340 O.3   600  A5A600     -0.2174
     16  C2'       37.1790   41.8850   37.4500 C.3   600  A5A600      0.2570
     17  O2'       38.5160   41.9500   36.9470 O.3   600  A5A600     -0.2130
     18  C1'       36.3250   42.9910   36.8230 C.3   600  A5A600      0.3186
     19  N9        35.1870   43.3080   37.7150 N.pl3 600  A5A600     -0.1439
     20  C8        34.1980   42.4860   38.0600 C.3   600  A5A600      0.3377
     21  N7        33.3890   43.0970   38.9230 N.2   600  A5A600     -0.2095
     22  C5        33.8650   44.3210   39.1260 C.2   600  A5A600      0.2526
     23  C6        33.4660   45.4030   39.9020 C.2   600  A5A600      0.4393
     24  N6        32.3880   45.3110   40.6760 N.pl3 600  A5A600      0.2180
     25  N1        34.1910   46.5320   39.8700 N.2   600  A5A600      0.0021
     26  C2        35.2760   46.6330   39.1180 C.3   600  A5A600      0.5254
     27  N3        35.6850   45.6210   38.3710 N.2   600  A5A600     -0.0055
     28  C4        35.0100   44.4620   38.3530 C.2   600  A5A600      0.3518
@<TRIPOS>BOND
     1     3     2    1
     2     1     2    1
     3     2     4    1
     4     5     4    2
     5     4     6   am
     6     6     7    1
     7     8     7    1
     8     7    10    1
     9     7     9    1
    10    10    11    1
    11    11    12    1
    12    12    13    1
    13    12    14    1
    14    13    18    1
    15    18    16    1
    16    18    19    1
    17    14    15    1
    18    14    16    1
    19    17    16    1
    20    19    20    1
    21    19    28    1
    22    20    21    1
    23    28    27    2
    24    28    22    1
    25    27    26    1
    26    21    22    2
    27    26    25    1
    28    22    23    1
    29    25    23    2
    30    23    24    1
