@<TRIPOS>MOLECULE
2z0p_4PT_A_1.pdb
 28 28 0 0 0
SMALL
GASTEIGER

@<TRIPOS>ATOM
      1  OP1      -26.0630   15.7820   91.8840 O.3   501  4PT501     -0.1145
      2  P1       -25.4980   15.6550   90.5220 P.3   501  4PT501      0.5327
      3  OP3      -25.9630   14.3050   89.7770 O.2   501  4PT501     -0.2224
      4  OP2      -23.8870   15.6450   90.5310 O.3   501  4PT501     -0.1145
      5  O1       -25.9280   16.8870   89.5760 O.3   501  4PT501     -0.2673
      6  C1       -25.3370   17.0420   88.2830 C.3   501  4PT501      0.1917
      7  C2       -24.7630   18.4540   88.1520 C.3   501  4PT501      0.2120
      8  O2       -25.8200   19.4050   88.3090 O.3   501  4PT501     -0.2177
      9  C3       -24.1370   18.6250   86.7670 C.3   501  4PT501      0.1890
     10  O3       -23.5810   19.9370   86.6440 O.3   501  4PT501     -0.2674
     11  P3       -21.9940   20.1570   86.8120 P.3   501  4PT501      0.5327
     12  O11      -21.5520   19.3540   88.1350 O.3   501  4PT501     -0.1145
     13  O10      -21.6260   21.5900   86.8760 O.3   501  4PT501     -0.1145
     14  O12      -21.3080   19.4020   85.5660 O.2   501  4PT501     -0.2224
     15  C4       -25.1910   18.4110   85.6790 C.3   501  4PT501      0.1865
     16  O4       -24.5690   18.5240   84.3970 O.3   501  4PT501     -0.2675
     17  P4       -24.4720   19.9530   83.6620 P.3   501  4PT501      0.5327
     18  OP5      -22.9300   20.4060   83.7540 O.3   501  4PT501     -0.1145
     19  OP6      -24.7500   19.6790   82.1010 O.2   501  4PT501     -0.2224
     20  OP4      -25.3950   20.9590   84.2340 O.3   501  4PT501     -0.1145
     21  C5       -25.8380   17.0290   85.8050 C.3   501  4PT501      0.1890
     22  O5       -26.8920   16.8840   84.8490 O.3   501  4PT501     -0.2674
     23  P5       -26.5940   16.6940   83.2770 P.3   501  4PT501      0.5327
     24  OP8      -25.0060   16.4980   83.0960 O.3   501  4PT501     -0.1145
     25  OP7      -27.1210   17.8190   82.4740 O.2   501  4PT501     -0.2224
     26  OP9      -27.2620   15.2850   82.8770 O.3   501  4PT501     -0.1145
     27  C6       -26.4000   16.7960   87.2100 C.3   501  4PT501      0.2120
     28  O6       -26.8530   15.4440   87.3100 O.3   501  4PT501     -0.2177
@<TRIPOS>BOND
     1    19    17    2
     2    25    23    2
     3    26    23    1
     4    24    23    1
     5    23    22    1
     6    17    18    1
     7    17    20    1
     8    17    16    1
     9    16    15    1
    10    22    21    1
    11    14    11    2
    12    15    21    1
    13    15     9    1
    14    21    27    1
    15    10     9    1
    16    10    11    1
    17     9     7    1
    18    11    13    1
    19    11    12    1
    20    27    28    1
    21    27     6    1
    22     7     6    1
    23     7     8    1
    24     6     5    1
    25     5     2    1
    26     3     2    2
    27     2     4    1
    28     2     1    1
