@<TRIPOS>MOLECULE
2z0x_5CA_A_1.pdb
 29 31 0 0 0
SMALL
GASTEIGER

@<TRIPOS>ATOM
      1  N         17.5810   38.1500   29.1850 N.3   200  5CA200     -0.1220
      2  CA        18.5850   37.7100   30.1650 C.3   200  5CA200      0.1825
      3  CB        19.5490   36.7100   29.5200 C.3   200  5CA200      0.0971
      4  SG        20.3000   37.3300   27.9660 S.3   200  5CA200     -0.0800
      5  C         19.2710   38.9400   30.7690 C.2   200  5CA200      0.2807
      6  O         18.9470   40.0680   30.4060 O.2   200  5CA200     -0.2701
      7  N3S       20.1960   38.6950   31.6940 N.am  200  5CA200     -0.0576
      8  S         20.9780   39.9040   32.4670 S.3   200  5CA200      0.0852
      9  O1S       21.6350   40.7800   31.5480 O.3   200  5CA200     -0.0508
     10  O2S       21.9710   39.2730   33.3990 O.3   200  5CA200     -0.0508
     11  O5'       20.0450   40.6760   33.2300 O.3   200  5CA200     -0.2230
     12  C5'       19.8720   40.3260   34.6050 C.3   200  5CA200      0.2064
     13  C4'       20.8740   41.0830   35.4790 C.3   200  5CA200      0.1842
     14  O4'       20.4040   42.4210   35.7240 O.3   200  5CA200     -0.3135
     15  C3'       21.0490   40.4420   36.8540 C.3   200  5CA200      0.2185
     16  O3'       22.0130   39.3860   36.7840 O.3   200  5CA200     -0.2174
     17  C2'       21.6450   41.6240   37.6140 C.3   200  5CA200      0.2570
     18  O2'       23.0460   41.7960   37.3680 O.3   200  5CA200     -0.2130
     19  C1'       20.8410   42.7960   37.0440 C.3   200  5CA200      0.3186
     20  N9        19.6280   43.0520   37.8510 N.pl3 200  5CA200     -0.1439
     21  C8        18.6280   42.2170   38.1370 C.3   200  5CA200      0.3377
     22  N7        17.7790   42.8080   38.9810 N.2   200  5CA200     -0.2095
     23  C5        18.2430   44.0290   39.2280 C.2   200  5CA200      0.2526
     24  C6        17.8320   45.0950   40.0190 C.2   200  5CA200      0.4393
     25  N6        16.7440   44.9920   40.7800 N.pl3 200  5CA200      0.2180
     26  N1        18.5720   46.2140   40.0330 N.2   200  5CA200      0.0021
     27  C2        19.6810   46.3330   39.3230 C.3   200  5CA200      0.5254
     28  N3        20.1070   45.3370   38.5650 N.2   200  5CA200     -0.0055
     29  C4        19.4170   44.1890   38.5020 C.2   200  5CA200      0.3518
@<TRIPOS>BOND
     1     4     3    1
     2     1     2    1
     3     3     2    1
     4     2     5    1
     5     6     5    2
     6     5     7   am
     7     9     8    1
     8     7     8    1
     9     8    11    1
    10     8    10    1
    11    11    12    1
    12    12    13    1
    13    13    14    1
    14    13    15    1
    15    14    19    1
    16    16    15    1
    17    15    17    1
    18    19    17    1
    19    19    20    1
    20    18    17    1
    21    20    21    1
    22    20    29    1
    23    21    22    1
    24    29    28    2
    25    29    23    1
    26    28    27    1
    27    22    23    2
    28    23    24    1
    29    27    26    1
    30    24    26    2
    31    24    25    1
