@<TRIPOS>MOLECULE
2z0y_SAM_A_1.pdb
 27 29 0 0 0
SMALL
GASTEIGER

@<TRIPOS>ATOM
      1  N         33.4340    7.9720   24.5250 N.3   300  SAM300     -0.1208
      2  CA        33.5600    8.4250   23.1320 C.3   300  SAM300      0.1952
      3  C         35.0280    8.3340   22.7100 C.2   300  SAM300      0.3819
      4  O         35.8610    8.9190   23.4350 O.co2 300  SAM300     -0.2441
      5  OXT       35.2850    7.6730   21.6800 O.co2 300  SAM300     -0.2441
      6  CB        33.0780    9.8730   23.0190 C.3   300  SAM300      0.0414
      7  CG        31.6220   10.0100   23.4720 C.3   300  SAM300      0.0503
      8  SD        30.4520    8.9950   22.4970 S.3   300  SAM300     -0.1761
      9  CE        30.3320    9.9930   21.0280 C.3   300  SAM300      0.0590
     10  C5'       28.7530    9.1430   23.1600 C.3   300  SAM300      0.0806
     11  C4'       27.9640    7.8350   23.0780 C.3   300  SAM300      0.1622
     12  O4'       27.8040    7.3560   21.7330 O.3   300  SAM300     -0.3153
     13  C3'       28.7120    6.7030   23.7790 C.3   300  SAM300      0.2168
     14  O3'       28.5390    6.8500   25.1910 O.3   300  SAM300     -0.2175
     15  C2'       27.8480    5.5480   23.2770 C.3   300  SAM300      0.2569
     16  O2'       26.5700    5.5930   23.9170 O.3   300  SAM300     -0.2130
     17  C1'       27.6960    5.9210   21.8010 C.3   300  SAM300      0.3185
     18  N9        28.8030    5.3550   20.9980 N.pl3 300  SAM300     -0.1439
     19  C8        29.5780    6.0320   20.1520 C.3   300  SAM300      0.3377
     20  N7        30.4060    5.1920   19.5340 N.2   300  SAM300     -0.2095
     21  C5        30.1560    3.9680   19.9910 C.2   300  SAM300      0.2526
     22  C6        30.6780    2.7100   19.7200 C.2   300  SAM300      0.4393
     23  N6        31.6330    2.5610   18.8050 N.pl3 300  SAM300      0.2180
     24  N1        30.1880    1.6490   20.3770 N.2   300  SAM300      0.0021
     25  C2        29.2230    1.7860   21.2690 C.3   300  SAM300      0.5254
     26  N3        28.7000    2.9670   21.5510 N.2   300  SAM300     -0.0055
     27  C4        29.1400    4.0710   20.9310 C.2   300  SAM300      0.3518
@<TRIPOS>BOND
     1    23    22    1
     2    20    21    2
     3    20    19    1
     4    22    21    1
     5    22    24    2
     6    21    27    1
     7    19    18    1
     8    24    25    1
     9    27    18    1
    10    27    26    2
    11    18    17    1
    12     9     8    1
    13    25    26    1
    14     5     3   ar
    15    12    17    1
    16    12    11    1
    17    17    15    1
    18     8    10    1
    19     8     7    1
    20     3     2    1
    21     3     4   ar
    22     6     2    1
    23     6     7    1
    24    11    10    1
    25    11    13    1
    26     2     1    1
    27    15    13    1
    28    15    16    1
    29    13    14    1
