@<TRIPOS>MOLECULE
2z1k_GLC_A_1.pdb
 11 11 0 0 0
SMALL
GASTEIGER

@<TRIPOS>ATOM
      1  C1         4.4640   28.5220   45.9190 C.3   501  GLC501      0.1777
      2  C2         3.8230   29.1930   44.6930 C.3   501  GLC501      0.2141
      3  C3         2.7220   30.1540   45.1540 C.3   501  GLC501      0.2173
      4  C4         1.6920   29.3950   45.9960 C.3   501  GLC501      0.2142
      5  C5         2.4090   28.7330   47.1780 C.3   501  GLC501      0.1810
      6  C6         1.4960   27.9020   48.0610 C.3   501  GLC501      0.2141
      7  O2         4.8100   29.9080   43.9640 O.3   501  GLC501     -0.2176
      8  O3         2.0890   30.7600   44.0340 O.3   501  GLC501     -0.2175
      9  O4         0.7060   30.3210   46.4840 O.3   501  GLC501     -0.2176
     10  O5         3.4620   27.8640   46.6960 O.3   501  GLC501     -0.3481
     11  O6         0.9700   26.7890   47.3580 O.3   501  GLC501     -0.2176
@<TRIPOS>BOND
     1     7     2    1
     2     8     3    1
     3     2     3    1
     4     2     1    1
     5     3     4    1
     6     1    10    1
     7     4     9    1
     8     4     5    1
     9    10     5    1
    10     5     6    1
    11    11     6    1
