@<TRIPOS>MOLECULE
2z1m_NDP_A_1.pdb
 48 52 0 0 0
SMALL
GASTEIGER

@<TRIPOS>ATOM
      1  PA       139.3550    9.6320   46.8270 P.3   1001  NDP1001     0.2189
      2  O1A      137.8880    9.8500   46.7240 O.2   1001  NDP1001    -0.5170
      3  O2A      139.7910    9.6300   48.2510 O.3   1001  NDP1001    -0.4371
      4  O5B      140.1430   10.7430   45.9620 O.3   1001  NDP1001    -0.3112
      5  C5B      139.7620   11.0490   44.6340 C.3   1001  NDP1001     0.1813
      6  C4B      140.1050   12.5080   44.3720 C.3   1001  NDP1001     0.1820
      7  O4B      139.6660   12.9150   43.0900 O.3   1001  NDP1001    -0.3136
      8  C3B      139.4550   13.4480   45.3880 C.3   1001  NDP1001     0.2157
      9  O3B      140.4630   14.1120   46.1290 O.3   1001  NDP1001    -0.2175
     10  C2B      138.6060   14.3880   44.5370 C.3   1001  NDP1001     0.2314
     11  O2B      138.5550   15.7260   44.9970 O.3   1001  NDP1001    -0.2630
     12  C1B      139.2710   14.2730   43.1690 C.3   1001  NDP1001     0.3158
     13  N9A      138.3700   14.6500   42.0620 N.pl3 1001  NDP1001    -0.1439
     14  C8A      137.0280   14.3620   41.9390 C.3   1001  NDP1001     0.3377
     15  N7A      136.5840   14.8890   40.7740 N.2   1001  NDP1001    -0.2095
     16  C5A      137.6180   15.5010   40.1440 C.2   1001  NDP1001     0.2526
     17  C6A      137.7060   16.2000   38.9310 C.2   1001  NDP1001     0.4393
     18  N6A      136.5790   16.6640   38.3680 N.pl3 1001  NDP1001     0.2180
     19  N1A      138.9340   16.7280   38.5440 N.2   1001  NDP1001     0.0021
     20  C2A      140.0470   16.5790   39.3480 C.3   1001  NDP1001     0.5254
     21  N3A      139.9470   15.8980   40.5540 N.2   1001  NDP1001    -0.0055
     22  C4A      138.7520   15.3630   40.9450 C.2   1001  NDP1001     0.3518
     23  O3       139.7820    8.2680   46.0630 O.3   1001  NDP1001    -0.2703
     24  PN       140.8200    7.1370   46.6080 P.3   1001  NDP1001     0.2189
     25  O1N      140.0800    6.2690   47.5640 O.3   1001  NDP1001    -0.4371
     26  O2N      142.1370    7.6940   47.0140 O.2   1001  NDP1001    -0.5170
     27  O5D      141.0690    6.3100   45.2360 O.3   1001  NDP1001    -0.3112
     28  C5D      141.7360    6.9240   44.1470 C.3   1001  NDP1001     0.1813
     29  C4D      141.3750    6.2530   42.8200 C.3   1001  NDP1001     0.1799
     30  O4D      141.3110    4.8410   42.9380 O.3   1001  NDP1001    -0.3327
     31  C3D      140.0140    6.6660   42.2930 C.3   1001  NDP1001     0.2158
     32  O3D      140.0980    6.6580   40.8860 O.3   1001  NDP1001    -0.2175
     33  C2D      139.1010    5.5410   42.7020 C.3   1001  NDP1001     0.2309
     34  O2D      137.9370    5.5290   41.9030 O.3   1001  NDP1001    -0.2158
     35  C1D      140.0500    4.3640   42.4810 C.3   1001  NDP1001     0.2263
     36  N1N      139.6620    3.1190   43.1750 N.pl3 1001  NDP1001    -0.2787
     37  C2N      139.7430    3.0860   44.5400 C.3   1001  NDP1001     0.1244
     38  C3N      139.9130    1.8990   45.2390 C.2   1001  NDP1001     0.0544
     39  C7N      140.0280    1.9790   46.7270 C.2   1001  NDP1001     0.2818
     40  O7N      139.9080    0.8040   47.4730 O.2   1001  NDP1001    -0.2670
     41  N7N      140.3120    3.1610   47.2850 N.am  1001  NDP1001    -0.0839
     42  C4N      140.0300    0.5520   44.5470 C.2   1001  NDP1001     0.0033
     43  C5N      139.9470    0.7120   43.0580 C.2   1001  NDP1001     0.0157
     44  C6N      139.7610    1.9600   42.4550 C.2   1001  NDP1001     0.0633
     45  P2B      137.3790   16.1940   46.0050 P.3   1001  NDP1001     0.5328
     46  O1X      137.3390   17.7050   46.0600 O.3   1001  NDP1001    -0.1145
     47  O2X      136.0380   15.6680   45.5260 O.2   1001  NDP1001    -0.2224
     48  O3X      137.6920   15.6680   47.3980 O.3   1001  NDP1001    -0.1145
@<TRIPOS>BOND
     1    18    17    1
     2    19    17    2
     3    19    20    1
     4    17    16    1
     5    20    21    1
     6    16    15    2
     7    16    22    1
     8    21    22    2
     9    15    14    1
    10    32    31    1
    11    22    13    1
    12    34    33    1
    13    14    13    1
    14    13    12    1
    15    31    33    1
    16    31    29    1
    17    44    43    2
    18    44    36    1
    19    35    33    1
    20    35    30    1
    21    35    36    1
    22    29    30    1
    23    29    28    1
    24    43    42    1
    25     7    12    1
    26     7     6    1
    27    12    10    1
    28    36    37    1
    29    28    27    1
    30     6     5    1
    31     6     8    1
    32    10    11    1
    33    10     8    1
    34    37    38    1
    35    42    38    2
    36     5     4    1
    37    11    45    1
    38    27    24    1
    39    38    39    1
    40     8     9    1
    41    47    45    2
    42     4     1    1
    43    45    46    1
    44    45    48    1
    45    23    24    1
    46    23     1    1
    47    24    26    2
    48    24    25    1
    49     2     1    2
    50    39    41   am
    51    39    40    2
    52     1     3    1
