@<TRIPOS>MOLECULE
2z1m_GDP_A_1.pdb
 28 30 0 0 0
SMALL
GASTEIGER

@<TRIPOS>ATOM
      1  PB       132.5240   -0.1520   47.3040 P.3   1002  GDP1002     0.5373
      2  O1B      132.9230    0.8620   46.2660 O.2   1002  GDP1002    -0.2221
      3  O2B      131.0150   -0.2790   47.3470 O.3   1002  GDP1002    -0.1143
      4  O3B      133.1760   -1.5000   46.9670 O.3   1002  GDP1002    -0.1143
      5  O3A      133.1230    0.4110   48.6860 O.3   1002  GDP1002    -0.2261
      6  PA       132.2800    0.6760   50.0280 P.3   1002  GDP1002     0.2231
      7  O1A      133.2880    0.6580   51.1530 O.3   1002  GDP1002    -0.4370
      8  O2A      131.5260    1.9830   49.9990 O.2   1002  GDP1002    -0.5169
      9  O5'      131.2400   -0.5630   50.0840 O.3   1002  GDP1002    -0.3111
     10  C5'      131.6620   -1.9170   50.3020 C.3   1002  GDP1002     0.1813
     11  C4'      130.4280   -2.7820   50.5620 C.3   1002  GDP1002     0.1799
     12  O4'      129.9110   -2.4750   51.8620 O.3   1002  GDP1002    -0.3326
     13  C3'      129.3030   -2.5230   49.5530 C.3   1002  GDP1002     0.2158
     14  O3'      128.7380   -3.7460   49.0720 O.3   1002  GDP1002    -0.2175
     15  C2'      128.2460   -1.7800   50.3410 C.3   1002  GDP1002     0.2310
     16  O2'      126.9210   -2.0690   49.8920 O.3   1002  GDP1002    -0.2158
     17  C1'      128.4940   -2.2680   51.7670 C.3   1002  GDP1002     0.2293
     18  N9       127.9870   -1.2950   52.7740 N.pl3 1002  GDP1002    -0.2354
     19  C8       127.1800   -1.6200   53.7990 C.3   1002  GDP1002     0.2246
     20  N7       126.8770   -0.5420   54.5540 N.2   1002  GDP1002    -0.2322
     21  C5       127.4920    0.5080   54.0140 C.2   1002  GDP1002     0.2182
     22  C6       127.5850    1.9500   54.3300 C.1   1002  GDP1002     0.2372
     23  O6       126.9790    2.4130   55.3110 O.2   1002  GDP1002    -0.2069
     24  N1       128.3240    2.7270   53.5320 N.2   1002  GDP1002    -0.2485
     25  C2       128.9810    2.2370   52.4600 C.1   1002  GDP1002     0.2531
     26  N2       129.7140    3.0890   51.7100 N.pl3 1002  GDP1002    -0.0226
     27  N3       128.9480    0.9250   52.1120 N.2   1002  GDP1002    -0.3074
     28  C4       128.2250    0.0270   52.8360 C.2   1002  GDP1002     0.2300
@<TRIPOS>BOND
     1     2     1    2
     2     4     1    1
     3     1     3    1
     4     1     5    1
     5     5     6    1
     6    14    13    1
     7    13    15    1
     8    13    11    1
     9    16    15    1
    10     8     6    2
    11     6     9    1
    12     6     7    1
    13     9    10    1
    14    10    11    1
    15    15    17    1
    16    11    12    1
    17    26    25    1
    18    17    12    1
    19    17    18    1
    20    27    25    2
    21    27    28    2
    22    25    24    2
    23    18    28    1
    24    18    19    1
    25    28    21    1
    26    24    22    2
    27    19    20    1
    28    21    22    1
    29    21    20    2
    30    22    23    2
