@<TRIPOS>MOLECULE
2z1s_CTT_A_1.pdb
 45 48 0 0 0
SMALL
GASTEIGER

@<TRIPOS>ATOM
      1  O1B       50.2290   20.5490   37.0940 O.2   500  CTT500     -0.2472
      2  C1B       51.1740   21.6880   37.1460 C.2   500  CTT500      0.3505
      3  C2B       52.1110   21.8910   38.3800 C.3   500  CTT500      0.2821
      4  O2B       51.3680   22.3800   39.4870 O.3   500  CTT500     -0.2082
      5  C3B       53.4300   22.7140   38.2480 C.3   500  CTT500      0.2238
      6  O3B       54.4460   22.5420   39.2890 O.3   500  CTT500     -0.2170
      7  O5B       51.7300   21.9750   35.8190 O.3   500  CTT500     -0.4451
      8  C5B       52.9820   22.6860   35.6150 C.3   500  CTT500      0.2312
      9  C6B       53.7240   22.1690   34.3750 C.3   500  CTT500      0.2280
     10  O6B       52.6760   22.0590   33.4030 O.3   500  CTT500     -0.2163
     11  C4B       53.9450   22.9620   36.7990 C.3   500  CTT500      0.1936
     12  O4B       54.4490   24.3050   36.6430 O.3   500  CTT500     -0.3245
     13  C1C       55.8550   24.1340   36.7570 C.3   500  CTT500      0.2696
     14  C2C       56.6490   24.9590   35.7200 C.3   500  CTT500      0.2404
     15  O2C       56.3350   24.5950   34.3700 O.3   500  CTT500     -0.2149
     16  C3C       58.1550   25.1440   35.9220 C.3   500  CTT500      0.2167
     17  O3C       58.6930   26.3370   35.2790 O.3   500  CTT500     -0.2175
     18  O5C       56.3230   23.8900   38.1210 O.3   500  CTT500     -0.3257
     19  C5C       57.7380   24.0320   38.2770 C.3   500  CTT500      0.1803
     20  C6C       58.2590   23.7540   39.6740 C.3   500  CTT500      0.2141
     21  O6C       58.3080   22.3040   39.6390 O.3   500  CTT500     -0.2176
     22  C4C       58.6310   24.8750   37.3740 C.3   500  CTT500      0.1804
     23  O4C       60.0270   24.5410   37.5290 O.3   500  CTT500     -0.3257
     24  C1D       60.6780   25.5660   38.3610 C.3   500  CTT500      0.2695
     25  C2D       61.9980   25.0030   38.9130 C.3   500  CTT500      0.2404
     26  O2D       61.7490   24.0030   39.9290 O.3   500  CTT500     -0.2149
     27  C3D       63.1030   25.9990   39.2670 C.3   500  CTT500      0.2167
     28  O3D       64.4230   25.3810   39.1750 O.3   500  CTT500     -0.2175
     29  O5D       60.6080   26.9470   37.8790 O.3   500  CTT500     -0.3257
     30  C5D       61.6250   27.9690   38.1410 C.3   500  CTT500      0.1803
     31  C6D       61.6410   28.9990   36.9620 C.3   500  CTT500      0.2141
     32  O6D       60.2890   29.5440   36.9310 O.3   500  CTT500     -0.2176
     33  C4D       62.9960   27.4700   38.7370 C.3   500  CTT500      0.1804
     34  O4D       63.6690   28.3420   39.6990 O.3   500  CTT500     -0.3257
     35  C1E       64.8380   28.8040   38.9890 C.3   500  CTT500      0.2695
     36  C2E       65.3340   30.2650   39.2370 C.3   500  CTT500      0.2406
     37  O2E       64.3810   31.0710   38.5430 O.3   500  CTT500     -0.2149
     38  C3E       66.8370   30.4750   38.9530 C.3   500  CTT500      0.2198
     39  O3E       67.4960   31.4210   39.7940 O.3   500  CTT500     -0.2174
     40  C4E       67.7240   29.2070   38.9220 C.3   500  CTT500      0.2144
     41  O4E       69.0800   29.3030   38.5890 O.3   500  CTT500     -0.2176
     42  O5E       65.7580   27.7020   38.8410 O.3   500  CTT500     -0.3256
     43  C5E       67.1750   27.8560   38.5730 C.3   500  CTT500      0.1835
     44  C6E       67.9860   26.6010   38.9610 C.3   500  CTT500      0.2142
     45  O6E       67.0820   25.6050   39.5480 O.3   500  CTT500     -0.2176
@<TRIPOS>BOND
     1    10     9    1
     2    15    14    1
     3     9     8    1
     4    17    16    1
     5     8     7    1
     6     8    11    1
     7    14    16    1
     8    14    13    1
     9     7     2    1
    10    16    22    1
    11    12    13    1
    12    12    11    1
    13    13    18    1
    14    11     5    1
    15    32    31    1
    16    31    30    1
    17     1     2    2
    18     2     3    1
    19    22    23    1
    20    22    19    1
    21    23    24    1
    22    29    30    1
    23    29    24    1
    24    18    19    1
    25    30    33    1
    26     5     3    1
    27     5     6    1
    28    19    20    1
    29    24    25    1
    30     3     4    1
    31    37    36    1
    32    43    42    1
    33    43    40    1
    34    43    44    1
    35    41    40    1
    36    33    27    1
    37    33    34    1
    38    42    35    1
    39    25    27    1
    40    25    26    1
    41    40    38    1
    42    38    36    1
    43    38    39    1
    44    44    45    1
    45    35    36    1
    46    35    34    1
    47    28    27    1
    48    21    20    1
