@<TRIPOS>MOLECULE
2z1u_ATP_A_1.pdb
 31 33 0 0 0
SMALL
GASTEIGER

@<TRIPOS>ATOM
      1  PG        18.8820   15.6510   10.2410 P.3   342  ATP342      0.5373
      2  O1G       18.3710   15.5950    8.7890 O.2   342  ATP342     -0.2221
      3  O2G       19.1530   14.2840   10.7890 O.3   342  ATP342     -0.1143
      4  O3G       18.0530   16.5290   11.1670 O.3   342  ATP342     -0.1143
      5  PB        20.9420   17.5960    9.5660 P.3   342  ATP342      0.2277
      6  O1B       19.8250   18.1000    8.6290 O.2   342  ATP342     -0.5168
      7  O2B       21.5860   18.5850   10.4890 O.3   342  ATP342     -0.4368
      8  O3B       20.3590   16.2970   10.3010 O.3   342  ATP342     -0.2258
      9  PA        21.9470   15.8620    7.5420 P.3   342  ATP342      0.2189
     10  O1A       22.3250   14.5540    8.2320 O.3   342  ATP342     -0.4371
     11  O2A       20.5800   15.8140    6.9190 O.2   342  ATP342     -0.5170
     12  O3A       22.1370   17.0810    8.6190 O.3   342  ATP342     -0.2700
     13  O5'       23.0400   16.3190    6.5090 O.3   342  ATP342     -0.3112
     14  C5'       24.4430   16.1390    6.7470 C.3   342  ATP342      0.1813
     15  C4'       25.1730   16.8470    5.6260 C.3   342  ATP342      0.1821
     16  O4'       24.9060   16.1020    4.4210 O.3   342  ATP342     -0.3135
     17  C3'       24.6640   18.2590    5.3900 C.3   342  ATP342      0.2184
     18  O3'       25.7910   19.0900    5.0480 O.3   342  ATP342     -0.2174
     19  C2'       23.7380   18.1450    4.1750 C.3   342  ATP342      0.2570
     20  O2'       23.7890   19.3460    3.4020 O.3   342  ATP342     -0.2130
     21  C1'       24.3300   16.9480    3.4050 C.3   342  ATP342      0.3186
     22  N9        23.3110   16.1490    2.6730 N.pl3 342  ATP342     -0.1439
     23  C8        22.4310   15.2780    3.1870 C.3   342  ATP342      0.3377
     24  N7        21.6780   14.7300    2.2050 N.2   342  ATP342     -0.2095
     25  C5        22.0780   15.3090    1.0580 C.2   342  ATP342      0.2526
     26  C6        21.6960   15.2060   -0.3710 C.2   342  ATP342      0.4393
     27  N6        20.6920   14.3780   -0.7330 N.pl3 342  ATP342      0.2180
     28  N1        22.3610   15.9550   -1.2440 N.2   342  ATP342      0.0021
     29  C2        23.3550   16.8020   -0.9140 C.3   342  ATP342      0.5254
     30  N3        23.7560   16.9280    0.3740 N.2   342  ATP342     -0.0055
     31  C4        23.1550   16.2140    1.3600 C.2   342  ATP342      0.3518
@<TRIPOS>BOND
     1    28    29    1
     2    28    26    2
     3    29    30    1
     4    27    26    1
     5    26    25    1
     6    30    31    2
     7    25    31    1
     8    25    24    2
     9    31    22    1
    10    24    23    1
    11    22    23    1
    12    22    21    1
    13    20    19    1
    14    21    19    1
    15    21    16    1
    16    19    17    1
    17    16    15    1
    18    18    17    1
    19    17    15    1
    20    15    14    1
    21    13    14    1
    22    13     9    1
    23    11     9    2
    24     9    10    1
    25     9    12    1
    26    12     5    1
    27     6     5    2
    28     2     1    2
    29     5     8    1
    30     5     7    1
    31     1     8    1
    32     1     3    1
    33     1     4    1
