@<TRIPOS>MOLECULE
2z1w_BDI_A_1.pdb
 15 16 0 0 0
SMALL
GASTEIGER

@<TRIPOS>ATOM
      1  N1        15.3260   16.8160   20.5860 N.2   600  BDI600     -0.3284
      2  C1        16.4920   17.0800   19.9530 C.1   600  BDI600      0.1153
      3  C6        16.6780   17.0770   18.4640 C.3   600  BDI600      0.1249
      4  C7        16.4440   18.4620   17.8730 C.3   600  BDI600      0.0181
      5  C8        16.6170   18.3760   16.3400 C.3   600  BDI600      0.0012
      6  C9        16.2990   19.7140   15.7300 C.3   600  BDI600      0.0000
      7  N2        17.4820   17.3890   20.7740 N.2   600  BDI600     -0.3284
      8  C2        16.9880   17.3380   22.0080 C.2   600  BDI600      0.2682
      9  C4        17.6070   17.5830   23.3510 C.1   600  BDI600      0.2079
     10  N5        16.7740   17.4320   24.3990 N.2   600  BDI600     -0.0598
     11  N4        15.4090   17.0720   24.3030 N.2   600  BDI600     -0.0598
     12  C5        14.7680   16.8290   23.1140 C.1   600  BDI600      0.2079
     13  O1        13.6020   16.5220   23.0620 O.2   600  BDI600     -0.2177
     14  C3        15.5740   16.9620   21.8890 C.2   600  BDI600      0.2682
     15  O3        18.8010   17.8980   23.4150 O.2   600  BDI600     -0.2177
@<TRIPOS>BOND
     1     6     5    1
     2     5     4    1
     3     4     3    1
     4     3     2    1
     5     2     1    2
     6     2     7    2
     7     1    14    2
     8     7     8    2
     9    14     8    1
    10    14    12    1
    11     8     9    1
    12    13    12    2
    13    12    11    2
    14     9    15    2
    15     9    10    2
    16    11    10    1
