@<TRIPOS>MOLECULE
2z1x_PRF_A_1.pdb
 13 14 0 0 0
SMALL
GASTEIGER

@<TRIPOS>ATOM
      1  N1        16.3010   16.9760   23.5930 N.2   600  PRF600     -0.2490
      2  C2        15.0840   16.4320   23.2330 C.1   600  PRF600      0.2607
      3  N3        14.7590   16.1390   22.0090 N.2   600  PRF600     -0.2698
      4  C4        15.7810   16.4220   20.9940 C.1   600  PRF600      0.1086
      5  C5        16.9870   16.9490   21.2690 C.2   600  PRF600      0.1649
      6  C6        17.2640   17.2490   22.6880 C.1   600  PRF600      0.2257
      7  O6        18.3430   17.7290   22.9920 O.2   600  PRF600     -0.2079
      8  C7        17.6380   17.0480   19.9990 C.2   600  PRF600      0.0222
      9  C10       19.0250   17.5730   19.6960 C.3   600  PRF600      0.1348
     10  N11       19.2630   17.4000   18.2520 N.3   600  PRF600     -0.1265
     11  C8        16.7830   16.5760   19.0620 C.3   600  PRF600      0.1624
     12  N9        15.6080   16.1780   19.6750 N.2   600  PRF600     -0.2042
     13  N2        14.1850   16.1950   24.2100 N.pl3 600  PRF600     -0.0220
@<TRIPOS>BOND
     1    10     9    1
     2    11    12    1
     3    11     8    1
     4    12     4    2
     5     9     8    1
     6     8     5    2
     7     4     5    1
     8     4     3    2
     9     5     6    1
    10     3     2    2
    11     6     7    2
    12     6     1    2
    13     2     1    2
    14     2    13    1
