@<TRIPOS>MOLECULE
2z1y_PLP_A_1.pdb
 15 15 0 0 0
SMALL
GASTEIGER

@<TRIPOS>ATOM
      1  N1        24.4000    1.4260   24.8310 N.ar  1400  PLP1400    -0.2452
      2  C2        23.7900    0.2490   24.6410 C.ar  1400  PLP1400     0.0978
      3  C2A       22.5130   -0.0430   25.4310 C.3   1400  PLP1400     0.0555
      4  C3        24.3260   -0.7010   23.7750 C.ar  1400  PLP1400     0.2049
      5  O3        23.6640   -1.8790   23.6100 O.3   1400  PLP1400    -0.2857
      6  C4        25.5140   -0.4530   23.0910 C.ar  1400  PLP1400     0.0182
      7  C4A       26.1510   -1.4500   22.1130 C.3   1400  PLP1400     0.0342
      8  C5        26.1120    0.7820   23.3320 C.ar  1400  PLP1400     0.0261
      9  C6        25.5280    1.6960   24.2020 C.ar  1400  PLP1400     0.0965
     10  C5A       27.4090    1.2400   22.6660 C.3   1400  PLP1400     0.1815
     11  O4P       27.1210    1.4990   21.2930 O.3   1400  PLP1400    -0.2653
     12  P         27.9870    2.5240   20.4050 P.3   1400  PLP1400     0.5329
     13  O1P       27.0780    3.8390   20.2760 O.3   1400  PLP1400    -0.1145
     14  O2P       29.3120    2.9180   21.2230 O.3   1400  PLP1400    -0.1145
     15  O3P       28.2520    1.9060   19.0860 O.2   1400  PLP1400    -0.2224
@<TRIPOS>BOND
     1    15    12    2
     2    13    12    1
     3    12    14    1
     4    12    11    1
     5    11    10    1
     6     7     6    1
     7    10     8    1
     8     6     8   ar
     9     6     4   ar
    10     8     9   ar
    11     5     4    1
    12     4     2   ar
    13     9     1   ar
    14     2     1   ar
    15     2     3    1
