@<TRIPOS>MOLECULE
2z1z_PLP_A_1.pdb
 15 15 0 0 0
SMALL
GASTEIGER

@<TRIPOS>ATOM
      1  N1        15.7180  -27.8980   26.6830 N.2   500  PLP500     -0.2458
      2  C2        15.6620  -26.9340   27.6720 C.2   500  PLP500      0.0942
      3  C2A       14.9550  -25.6220   27.4050 C.3   500  PLP500      0.0552
      4  C3        16.2760  -27.1940   28.9360 C.2   500  PLP500      0.1899
      5  O3        16.2870  -26.3910   29.9050 O.2   500  PLP500     -0.2898
      6  C4        16.8990  -28.4250   29.1630 C.3   500  PLP500      0.0852
      7  C4A       17.5320  -28.8040   30.4900 C.3   500  PLP500      0.0127
      8  C5        16.9250  -29.3850   28.1710 C.2   500  PLP500      0.0118
      9  C6        16.3180  -29.1060   26.9110 C.2   500  PLP500      0.0929
     10  C5A       17.6590  -30.6190   28.6590 C.3   500  PLP500      0.1779
     11  O4P       17.7680  -31.7240   27.7630 O.3   500  PLP500     -0.2656
     12  P         18.6450  -33.0490   28.2140 P.3   500  PLP500      0.5329
     13  O1P       19.6560  -33.0750   27.0200 O.2   500  PLP500     -0.2224
     14  O2P       19.2800  -32.6440   29.5380 O.3   500  PLP500     -0.1145
     15  O3P       17.6730  -34.2350   28.3460 O.3   500  PLP500     -0.1145
@<TRIPOS>BOND
     1     1     9    1
     2     1     2    2
     3     9     8    2
     4    13    12    2
     5     3     2    1
     6     2     4    1
     7    11    12    1
     8    11    10    1
     9     8    10    1
    10     8     6    1
    11    12    15    1
    12    12    14    1
    13     4     6    1
    14     4     5    2
    15     6     7    1
