@<TRIPOS>MOLECULE
2z20_PLP_A_1.pdb
 15 15 0 0 0
SMALL
GASTEIGER

@<TRIPOS>ATOM
      1  N1        44.4690   -2.0700  -15.9740 N.2   701  PLP701     -0.2458
      2  C2        43.4220   -1.3240  -16.4370 C.2   701  PLP701      0.0942
      3  C2A       42.4680   -1.8100  -17.5010 C.3   701  PLP701      0.0552
      4  C3        43.2120   -0.0580  -15.9190 C.2   701  PLP701      0.1899
      5  O3        42.2450    0.6220  -16.3470 O.2   701  PLP701     -0.2898
      6  C4        44.0690    0.4450  -14.9370 C.3   701  PLP701      0.0852
      7  C4A       43.7760    1.8270  -14.4150 C.3   701  PLP701      0.0127
      8  C5        45.1440   -0.3300  -14.4600 C.2   701  PLP701      0.0118
      9  C6        45.3100   -1.6110  -15.0210 C.2   701  PLP701      0.0929
     10  C5A       46.1100    0.1830  -13.3780 C.3   701  PLP701      0.1779
     11  O4P       45.8300   -0.2810  -12.0220 O.3   701  PLP701     -0.2656
     12  P         46.5960    0.2400  -10.6800 P.3   701  PLP701      0.5329
     13  O1P       48.0340    0.4580  -11.0670 O.2   701  PLP701     -0.2224
     14  O2P       45.7790    1.4480  -10.3660 O.3   701  PLP701     -0.1145
     15  O3P       46.4580   -0.8460   -9.6530 O.3   701  PLP701     -0.1145
@<TRIPOS>BOND
     1     3     2    1
     2     2     1    2
     3     2     4    1
     4     5     4    2
     5     1     9    1
     6     4     6    1
     7     9     8    2
     8     6     8    1
     9     6     7    1
    10     8    10    1
    11    10    11    1
    12    11    12    1
    13    13    12    2
    14    12    14    1
    15    12    15    1
