@<TRIPOS>MOLECULE
2z23_III_B_1.pdb
 28 27 0 0 0
SMALL
GASTEIGER

@<TRIPOS>ATOM
      1  N          7.3370   45.3490    8.9070 N.3     1  LYS1       -0.1231
      2  CA         8.7080   44.7690    8.8990 C.3     1  LYS1        0.1693
      3  C          9.7130   45.7050    8.2300 C.2     1  LYS1        0.2592
      4  O          9.3470   46.5450    7.4080 O.2     1  LYS1       -0.2718
      5  CB         8.6930   43.4050    8.1960 C.3     1  LYS1        0.0285
      6  CG         8.0190   43.4030    6.8300 C.3     1  LYS1        0.0035
      7  CD         7.9340   41.9970    6.2430 C.3     1  LYS1        0.0206
      8  CE         7.0020   41.0970    7.0430 C.3     1  LYS1        0.1093
      9  NZ         5.6090   41.6220    7.0620 N.3     1  LYS1       -0.1314
     10  N         10.9820   45.5590    8.6000 N.am    2  LYS2       -0.1966
     11  CA        12.0550   46.3870    8.0570 C.3     2  LYS2        0.1728
     12  C         12.5600   45.8480    6.7240 C.2     2  LYS2        0.2617
     13  O         12.7100   44.6390    6.5540 O.2     2  LYS2       -0.2715
     14  CB        13.2210   46.4400    9.0500 C.3     2  LYS2        0.0311
     15  CG        12.8750   47.0550   10.3970 C.3     2  LYS2        0.0038
     16  CD        13.1180   48.5530   10.4050 C.3     2  LYS2        0.0206
     17  CE        12.5430   49.1980   11.6530 C.3     2  LYS2        0.1093
     18  NZ        12.9490   48.5000   12.9010 N.3     2  LYS2       -0.1314
     19  N         12.8210   46.7430    5.7760 N.am    3  LYS3       -0.1942
     20  CA        13.3350   46.3140    4.4820 C.3     3  LYS3        0.1978
     21  C         14.5890   47.0980    4.1180 C.2     3  LYS3        0.3842
     22  O         14.8300   48.1460    4.7530 O.co2   3  LYS3       -0.2437
     23  CB        12.2810   46.4950    3.3910 C.3     3  LYS3        0.0333
     24  CG        12.6600   45.8310    2.0820 C.3     3  LYS3        0.0039
     25  CD        11.6920   46.2260    0.9920 C.3     3  LYS3        0.0206
     26  CE        12.1260   45.6640   -0.3410 C.3     3  LYS3        0.1093
     27  NZ        12.1940   44.1660   -0.2060 N.3     3  LYS3       -0.1314
     28  OXT       15.3120   46.6570    3.2010 O.co2   3  LYS3       -0.2437
@<TRIPOS>BOND
     1    26    27    1
     2    26    25    1
     3    25    24    1
     4    24    23    1
     5    28    21   ar
     6    23    20    1
     7    21    20    1
     8    21    22   ar
     9    20    19    1
    10    19    12   am
    11     7     6    1
    12     7     8    1
    13    13    12    2
    14    12    11    1
    15     6     5    1
    16     8     9    1
    17     4     3    2
    18    11    10    1
    19    11    14    1
    20     5     2    1
    21     3    10   am
    22     3     2    1
    23     2     1    1
    24    14    15    1
    25    15    16    1
    26    16    17    1
    27    17    18    1
