@<TRIPOS>MOLECULE
2z24_DOR_A_1.pdb
 11 11 0 0 0
SMALL
GASTEIGER

@<TRIPOS>ATOM
      1  O2        24.9900   37.4390   72.7620 O.2   1410  DOR1410    -0.1881
      2  C2        25.8040   38.3590   72.7080 C.1   1410  DOR1410     0.3067
      3  N1        25.3170   39.5960   72.6840 N.2   1410  DOR1410    -0.1649
      4  N3        27.1430   38.1810   72.6540 N.2   1410  DOR1410    -0.2467
      5  C4        27.9640   39.1230   72.0940 C.1   1410  DOR1410     0.1951
      6  O4        29.1600   38.9610   71.8470 O.2   1410  DOR1410    -0.2133
      7  C5        27.4030   40.5060   71.8320 C.3   1410  DOR1410     0.1724
      8  C6        26.1970   40.7520   72.7510 C.3   1410  DOR1410     0.2370
      9  C7        25.4380   41.9880   72.3450 C.2   1410  DOR1410     0.3887
     10  O72       25.9920   43.0990   72.4120 O.co2 1410  DOR1410    -0.2434
     11  O71       24.2400   41.8740   71.9430 O.co2 1410  DOR1410    -0.2434
@<TRIPOS>BOND
     1     7     5    1
     2     7     8    1
     3     6     5    2
     4    11     9   ar
     5     5     4    2
     6     9    10   ar
     7     9     8    1
     8     4     2    2
     9     3     2    2
    10     3     8    1
    11     2     1    2
