@<TRIPOS>MOLECULE
2z24_NCD_B_1.pdb
 12 11 0 0 0
SMALL
GASTEIGER

@<TRIPOS>ATOM
      1  C6         6.7980   18.7710   61.2240 C.3   2410  NCD2410     0.2106
      2  C61        5.4580   19.4550   61.5390 C.2   2410  NCD2410     0.3848
      3  O61        4.4060   18.7700   61.3690 O.co2 2410  NCD2410    -0.2437
      4  O62        5.3840   20.6600   61.9870 O.co2 2410  NCD2410    -0.2437
      5  N1         7.8830   19.6860   61.5180 N.am  2410  NCD2410    -0.1754
      6  C2         9.1960   19.4520   61.4280 C.2   2410  NCD2410     0.3594
      7  O2        10.0050   20.2860   61.7820 O.2   2410  NCD2410    -0.2474
      8  N3         9.6770   18.3330   60.9620 N.am  2410  NCD2410    -0.0679
      9  C5         6.9290   17.4760   62.0510 C.3   2410  NCD2410     0.1473
     10  C4         7.9140   16.3700   61.6190 C.2   2410  NCD2410     0.3672
     11  O4         8.2040   15.9660   60.3980 O.co2 2410  NCD2410    -0.2456
     12  O5         8.4440   15.8570   62.6370 O.co2 2410  NCD2410    -0.2456
@<TRIPOS>BOND
     1    11    10   ar
     2     8     6   am
     3     1     5    1
     4     1     2    1
     5     1     9    1
     6     3     2   ar
     7     6     5   am
     8     6     7    2
     9     2     4   ar
    10    10     9    1
    11    10    12   ar
