@<TRIPOS>MOLECULE
2z25_DOR_A_1.pdb
 11 11 0 0 0
SMALL
GASTEIGER

@<TRIPOS>ATOM
      1  O2        24.9400   37.6190   72.8230 O.2   1410  DOR1410    -0.1881
      2  C2        25.7230   38.5530   72.7550 C.1   1410  DOR1410     0.3067
      3  N1        25.2310   39.7790   72.7380 N.2   1410  DOR1410    -0.1649
      4  N3        27.0520   38.3990   72.7080 N.2   1410  DOR1410    -0.2467
      5  C4        27.8550   39.3060   72.1060 C.1   1410  DOR1410     0.1951
      6  O4        29.0180   39.0730   71.7890 O.2   1410  DOR1410    -0.2133
      7  C5        27.3050   40.6970   71.8640 C.3   1410  DOR1410     0.1724
      8  C6        26.1190   40.9180   72.7970 C.3   1410  DOR1410     0.2370
      9  C7        25.3800   42.1590   72.4080 C.2   1410  DOR1410     0.3887
     10  O72       25.9950   43.2210   72.5420 O.co2 1410  DOR1410    -0.2434
     11  O71       24.1990   42.0830   71.9530 O.co2 1410  DOR1410    -0.2434
@<TRIPOS>BOND
     1     6     5    2
     2     7     5    1
     3     7     8    1
     4    11     9   ar
     5     5     4    2
     6     9    10   ar
     7     9     8    1
     8     4     2    2
     9     3     2    2
    10     3     8    1
    11     2     1    2
