@<TRIPOS>MOLECULE
2z25_NCD_B_1.pdb
 12 11 0 0 0
SMALL
GASTEIGER

@<TRIPOS>ATOM
      1  C6         6.9570   18.7730   61.2810 C.3   2410  NCD2410     0.2106
      2  C61        5.6050   19.4360   61.5150 C.2   2410  NCD2410     0.3848
      3  O61        4.5810   18.7210   61.4200 O.co2 2410  NCD2410    -0.2437
      4  O62        5.5250   20.6690   61.8080 O.co2 2410  NCD2410    -0.2437
      5  N1         8.0100   19.6990   61.6670 N.am  2410  NCD2410    -0.1754
      6  C2         9.3200   19.5200   61.4830 C.2   2410  NCD2410     0.3594
      7  O2        10.1100   20.3210   61.9640 O.2   2410  NCD2410    -0.2474
      8  N3         9.7790   18.4730   60.8050 N.am  2410  NCD2410    -0.0679
      9  C5         7.0270   17.4900   62.1180 C.3   2410  NCD2410     0.1473
     10  C4         7.9560   16.3690   61.6460 C.2   2410  NCD2410     0.3672
     11  O4         8.2050   16.0980   60.4370 O.co2 2410  NCD2410    -0.2456
     12  O5         8.4870   15.6870   62.5370 O.co2 2410  NCD2410    -0.2456
@<TRIPOS>BOND
     1    11    10   ar
     2     8     6   am
     3     1     2    1
     4     1     5    1
     5     1     9    1
     6     3     2   ar
     7     6     5   am
     8     6     7    2
     9     2     4   ar
    10    10     9    1
    11    10    12   ar
