@<TRIPOS>MOLECULE
2z26_DOR_A_1.pdb
 11 11 0 0 0
SMALL
GASTEIGER

@<TRIPOS>ATOM
      1  O2        25.0440   37.4350   72.6610 O.2   1410  DOR1410    -0.1881
      2  C2        25.8030   38.3930   72.6330 C.1   1410  DOR1410     0.3067
      3  N1        25.3340   39.6230   72.5980 N.2   1410  DOR1410    -0.1649
      4  N3        27.1200   38.2290   72.5090 N.2   1410  DOR1410    -0.2467
      5  C4        27.9370   39.1560   71.9690 C.1   1410  DOR1410     0.1951
      6  O4        29.0950   38.9090   71.6380 O.2   1410  DOR1410    -0.2133
      7  C5        27.4410   40.5860   71.8700 C.3   1410  DOR1410     0.1724
      8  C6        26.2090   40.7790   72.7440 C.3   1410  DOR1410     0.2370
      9  C7        25.4800   42.0360   72.3850 C.2   1410  DOR1410     0.3887
     10  O72       26.0870   43.1080   72.5690 O.co2 1410  DOR1410    -0.2434
     11  O71       24.3020   41.9470   71.9440 O.co2 1410  DOR1410    -0.2434
@<TRIPOS>BOND
     1     6     5    2
     2     7     5    1
     3     7     8    1
     4    11     9   ar
     5     5     4    2
     6     9    10   ar
     7     9     8    1
     8     4     2    2
     9     3     2    2
    10     3     8    1
    11     2     1    2
