@<TRIPOS>MOLECULE
2z26_NCD_B_1.pdb
 12 11 0 0 0
SMALL
GASTEIGER

@<TRIPOS>ATOM
      1  C6         6.9360   18.6340   61.1620 C.3   1420  NCD1420     0.2106
      2  C61        5.5830   19.2890   61.3020 C.2   1420  NCD1420     0.3848
      3  O61        4.5550   18.6310   61.0470 O.co2 1420  NCD1420    -0.2437
      4  O62        5.5210   20.4950   61.6700 O.co2 1420  NCD1420    -0.2437
      5  N1         7.9370   19.5130   61.7380 N.am  1420  NCD1420    -0.1754
      6  C2         9.2340   19.4430   61.4980 C.2   1420  NCD1420     0.3594
      7  O2         9.9550   20.1860   62.1320 O.2   1420  NCD1420    -0.2474
      8  N3         9.7450   18.5720   60.6200 N.am  1420  NCD1420    -0.0679
      9  C5         6.9910   17.3050   61.9220 C.3   1420  NCD1420     0.1473
     10  C4         7.9290   16.2500   61.3680 C.2   1420  NCD1420     0.3672
     11  O4         8.1140   16.1250   60.1340 O.co2 1420  NCD1420    -0.2456
     12  O5         8.4440   15.4740   62.1790 O.co2 1420  NCD1420    -0.2456
@<TRIPOS>BOND
     1    11    10   ar
     2     8     6   am
     3     3     2   ar
     4     1     2    1
     5     1     5    1
     6     1     9    1
     7     2     4   ar
     8    10     9    1
     9    10    12   ar
    10     6     5   am
    11     6     7    2
