@<TRIPOS>MOLECULE
2z27_DOR_A_1.pdb
 11 11 0 0 0
SMALL
GASTEIGER

@<TRIPOS>ATOM
      1  O2        24.9640   37.3110   72.7290 O.2   1410  DOR1410    -0.1881
      2  C2        25.7570   38.2450   72.6980 C.1   1410  DOR1410     0.3067
      3  N1        25.2690   39.4750   72.6730 N.2   1410  DOR1410    -0.1649
      4  N3        27.0850   38.0930   72.6720 N.2   1410  DOR1410    -0.2467
      5  C4        27.9270   39.0060   72.0930 C.1   1410  DOR1410     0.1951
      6  O4        29.1220   38.7970   71.8310 O.2   1410  DOR1410    -0.2133
      7  C5        27.3830   40.3980   71.8290 C.3   1410  DOR1410     0.1724
      8  C6        26.1680   40.6120   72.7400 C.3   1410  DOR1410     0.2370
      9  C7        25.4290   41.8470   72.3510 C.2   1410  DOR1410     0.3887
     10  O72       26.0070   42.9380   72.4640 O.co2 1410  DOR1410    -0.2434
     11  O71       24.2510   41.7350   71.9350 O.co2 1410  DOR1410    -0.2434
@<TRIPOS>BOND
     1     7     5    1
     2     7     8    1
     3     6     5    2
     4    11     9   ar
     5     5     4    2
     6     9    10   ar
     7     9     8    1
     8     4     2    2
     9     3     2    2
    10     3     8    1
    11     2     1    2
