@<TRIPOS>MOLECULE
2z27_NCD_B_1.pdb
 12 11 0 0 0
SMALL
GASTEIGER

@<TRIPOS>ATOM
      1  C6         6.8660   18.5840   61.2080 C.3   2410  NCD2410     0.2106
      2  C61        5.5150   19.2230   61.5210 C.2   2410  NCD2410     0.3848
      3  O61        4.4670   18.5390   61.3580 O.co2 2410  NCD2410    -0.2437
      4  O62        5.4550   20.4310   61.9430 O.co2 2410  NCD2410    -0.2437
      5  N1         7.9270   19.5260   61.5640 N.am  2410  NCD2410    -0.1754
      6  C2         9.2430   19.3300   61.3890 C.2   2410  NCD2410     0.3594
      7  O2        10.0480   20.0970   61.8790 O.2   2410  NCD2410    -0.2474
      8  N3         9.7180   18.2930   60.7220 N.am  2410  NCD2410    -0.0679
      9  C5         7.0240   17.2730   62.0080 C.3   2410  NCD2410     0.1473
     10  C4         8.0100   16.2060   61.5060 C.2   2410  NCD2410     0.3672
     11  O4         8.2940   15.9010   60.2710 O.co2 2410  NCD2410    -0.2456
     12  O5         8.5690   15.6090   62.4580 O.co2 2410  NCD2410    -0.2456
@<TRIPOS>BOND
     1    11    10   ar
     2     8     6   am
     3     1     2    1
     4     1     5    1
     5     1     9    1
     6     3     2   ar
     7     6     5   am
     8     6     7    2
     9    10     9    1
    10    10    12   ar
    11     2     4   ar
