@<TRIPOS>MOLECULE
2z28_NCD_B_1.pdb
 12 11 0 0 0
SMALL
GASTEIGER

@<TRIPOS>ATOM
      1  C6         6.7390   18.5310   61.2260 C.3   2410  NCD2410     0.2106
      2  C61        5.3900   19.1750   61.5340 C.2   2410  NCD2410     0.3848
      3  O61        4.3620   18.4690   61.3740 O.co2 2410  NCD2410    -0.2437
      4  O62        5.3140   20.3930   61.9370 O.co2 2410  NCD2410    -0.2437
      5  N1         7.7780   19.4920   61.5820 N.am  2410  NCD2410    -0.1754
      6  C2         9.0920   19.2800   61.4650 C.2   2410  NCD2410     0.3594
      7  O2         9.9070   20.0980   61.8170 O.2   2410  NCD2410    -0.2474
      8  N3         9.5850   18.1830   60.9530 N.am  2410  NCD2410    -0.0679
      9  C5         6.8840   17.1910   61.9980 C.3   2410  NCD2410     0.1473
     10  C4         7.9030   16.1340   61.5210 C.2   2410  NCD2410     0.3672
     11  O4         8.1860   15.8390   60.2950 O.co2 2410  NCD2410    -0.2456
     12  O5         8.4720   15.5200   62.4510 O.co2 2410  NCD2410    -0.2456
@<TRIPOS>BOND
     1    11    10   ar
     2     8     6   am
     3     1     2    1
     4     1     5    1
     5     1     9    1
     6     3     2   ar
     7     6     5   am
     8     6     7    2
     9    10     9    1
    10    10    12   ar
    11     2     4   ar
