@<TRIPOS>MOLECULE
2z28_DOR_A_1.pdb
 11 11 0 0 0
SMALL
GASTEIGER

@<TRIPOS>ATOM
      1  O2        24.7960   37.2040   72.6570 O.2   1410  DOR1410    -0.1881
      2  C2        25.5840   38.1340   72.6250 C.1   1410  DOR1410     0.3067
      3  N1        25.1150   39.3720   72.5450 N.2   1410  DOR1410    -0.1649
      4  N3        26.9100   37.9510   72.6660 N.2   1410  DOR1410    -0.2467
      5  C4        27.7690   38.8360   72.0700 C.1   1410  DOR1410     0.1951
      6  O4        28.9440   38.5800   71.7960 O.2   1410  DOR1410    -0.2133
      7  C5        27.2790   40.2560   71.8130 C.3   1410  DOR1410     0.1724
      8  C6        26.0320   40.4970   72.6800 C.3   1410  DOR1410     0.2370
      9  C7        25.3330   41.7650   72.2730 C.2   1410  DOR1410     0.3887
     10  O72       25.9270   42.8460   72.4070 O.co2 1410  DOR1410    -0.2434
     11  O71       24.1610   41.7150   71.8140 O.co2 1410  DOR1410    -0.2434
@<TRIPOS>BOND
     1     6     5    2
     2     7     5    1
     3     7     8    1
     4    11     9   ar
     5     5     4    2
     6     9    10   ar
     7     9     8    1
     8     3     2    2
     9     3     8    1
    10     2     1    2
    11     2     4    2
