@<TRIPOS>MOLECULE
2z29_DOR_A_1.pdb
 11 11 0 0 0
SMALL
GASTEIGER

@<TRIPOS>ATOM
      1  O2        24.9230   37.3000   72.8510 O.2   1410  DOR1410    -0.1881
      2  C2        25.6940   38.2540   72.8960 C.1   1410  DOR1410     0.3067
      3  N1        25.1990   39.4910   72.8480 N.2   1410  DOR1410    -0.1649
      4  N3        27.0250   38.1220   72.9670 N.2   1410  DOR1410    -0.2467
      5  C4        27.8320   38.9930   72.2840 C.1   1410  DOR1410     0.1951
      6  O4        28.9700   38.7390   71.8790 O.2   1410  DOR1410    -0.2133
      7  C5        27.3230   40.4040   72.0500 C.3   1410  DOR1410     0.1724
      8  C6        26.0890   40.6360   72.9280 C.3   1410  DOR1410     0.2370
      9  C7        25.3700   41.8750   72.4840 C.2   1410  DOR1410     0.3887
     10  O72       25.9710   42.9530   72.5930 O.co2 1410  DOR1410    -0.2434
     11  O71       24.1880   41.8090   72.0420 O.co2 1410  DOR1410    -0.2434
@<TRIPOS>BOND
     1     6     5    2
     2    11     9   ar
     3     7     5    1
     4     7     8    1
     5     5     4    2
     6     9    10   ar
     7     9     8    1
     8     3     2    2
     9     3     8    1
    10     1     2    2
    11     2     4    2
