@<TRIPOS>MOLECULE
2z29_NCD_B_1.pdb
 12 11 0 0 0
SMALL
GASTEIGER

@<TRIPOS>ATOM
      1  C6         6.8450   18.5890   61.3570 C.3   2410  NCD2410     0.2106
      2  C61        5.4860   19.2470   61.6480 C.2   2410  NCD2410     0.3848
      3  O61        4.4520   18.5490   61.4720 O.co2 2410  NCD2410    -0.2437
      4  O62        5.4100   20.4750   62.0400 O.co2 2410  NCD2410    -0.2437
      5  N1         7.9170   19.5280   61.6950 N.am  2410  NCD2410    -0.1754
      6  C2         9.2290   19.3130   61.5090 C.2   2410  NCD2410     0.3594
      7  O2        10.0410   20.0660   61.9920 O.2   2410  NCD2410    -0.2474
      8  N3         9.6900   18.2830   60.8220 N.am  2410  NCD2410    -0.0679
      9  C5         7.0340   17.2830   62.1680 C.3   2410  NCD2410     0.1473
     10  C4         7.9620   16.1780   61.6370 C.2   2410  NCD2410     0.3672
     11  O4         8.2100   15.9170   60.3900 O.co2 2410  NCD2410    -0.2456
     12  O5         8.4910   15.4750   62.5380 O.co2 2410  NCD2410    -0.2456
@<TRIPOS>BOND
     1    11    10   ar
     2     8     6   am
     3     1     2    1
     4     1     5    1
     5     1     9    1
     6     3     2   ar
     7     6     5   am
     8     6     7    2
     9    10     9    1
    10    10    12   ar
    11     2     4   ar
