@<TRIPOS>MOLECULE
2z2a_DOR_A_1.pdb
 11 11 0 0 0
SMALL
GASTEIGER

@<TRIPOS>ATOM
      1  O2        24.8690   36.9520   72.7540 O.2   1410  DOR1410    -0.1881
      2  C2        25.6730   37.8820   72.7070 C.1   1410  DOR1410     0.3067
      3  N1        25.2260   39.1300   72.6880 N.2   1410  DOR1410    -0.1649
      4  N3        26.9950   37.7130   72.6740 N.2   1410  DOR1410    -0.2467
      5  C4        27.8190   38.6220   72.0510 C.1   1410  DOR1410     0.1951
      6  O4        28.9930   38.4000   71.7430 O.2   1410  DOR1410    -0.2133
      7  C5        27.3110   40.0340   71.7860 C.3   1410  DOR1410     0.1724
      8  C6        26.1410   40.2770   72.7370 C.3   1410  DOR1410     0.2370
      9  C7        25.4330   41.5410   72.3370 C.2   1410  DOR1410     0.3887
     10  O72       26.0290   42.6250   72.5370 O.co2 1410  DOR1410    -0.2434
     11  O71       24.2720   41.4910   71.8440 O.co2 1410  DOR1410    -0.2434
@<TRIPOS>BOND
     1     6     5    2
     2     7     5    1
     3     7     8    1
     4    11     9   ar
     5     5     4    2
     6     9    10   ar
     7     9     8    1
     8     4     2    2
     9     3     2    2
    10     3     8    1
    11     2     1    2
