@<TRIPOS>MOLECULE
2z2a_NCD_B_1.pdb
 12 11 0 0 0
SMALL
GASTEIGER

@<TRIPOS>ATOM
      1  C6         6.7310   18.3900   61.3750 C.3   2410  NCD2410     0.2106
      2  C61        5.3830   19.0240   61.6190 C.2   2410  NCD2410     0.3848
      3  O61        5.3310   20.2160   62.0440 O.co2 2410  NCD2410    -0.2437
      4  O62        4.3510   18.3440   61.3810 O.co2 2410  NCD2410    -0.2437
      5  N1         7.8000   19.2800   61.8660 N.am  2410  NCD2410    -0.1754
      6  C2         9.0900   19.2300   61.5270 C.2   2410  NCD2410     0.3594
      7  O2         9.8860   19.9620   62.0920 O.2   2410  NCD2410    -0.2474
      8  N3         9.5370   18.3710   60.6080 N.am  2410  NCD2410    -0.0679
      9  C5         6.7670   16.9870   62.0300 C.3   2410  NCD2410     0.1473
     10  C4         7.8610   16.0140   61.5930 C.2   2410  NCD2410     0.3672
     11  O4         8.1230   15.7760   60.3850 O.co2 2410  NCD2410    -0.2456
     12  O5         8.4980   15.4260   62.4910 O.co2 2410  NCD2410    -0.2456
@<TRIPOS>BOND
     1    11    10   ar
     2     8     6   am
     3     1     2    1
     4     1     5    1
     5     1     9    1
     6     4     2   ar
     7     6     5   am
     8     6     7    2
     9    10     9    1
    10    10    12   ar
    11     2     3   ar
