@<TRIPOS>MOLECULE
2z2c_UDP_A_1.pdb
 25 26 0 0 0
SMALL
GASTEIGER

@<TRIPOS>ATOM
      1  N1         9.6310   -3.8100  -10.8180 N.am  950  UDP950     -0.1766
      2  C2        10.7490   -4.0440  -11.6220 C.1   950  UDP950      0.2845
      3  N3        11.8340   -3.1810  -11.5610 N.2   950  UDP950     -0.2452
      4  C4        11.8070   -2.0810  -10.7010 C.1   950  UDP950      0.2182
      5  C5        10.6790   -1.8080   -9.9290 C.2   950  UDP950      0.1242
      6  C6         9.5870   -2.6850   -9.9690 C.2   950  UDP950      0.0929
      7  O2        10.7790   -5.0410  -12.3370 O.2   950  UDP950     -0.1918
      8  O4        12.7820   -1.3260  -10.6800 O.2   950  UDP950     -0.2085
      9  C1'        8.5160   -4.7360  -10.9440 C.3   950  UDP950      0.2401
     10  C2'        8.0470   -5.3750   -9.6640 C.3   950  UDP950      0.2319
     11  O2'        8.6440   -6.6320   -9.6770 O.3   950  UDP950     -0.2157
     12  C3'        6.5320   -5.5600   -9.9300 C.3   950  UDP950      0.2158
     13  C4'        6.1680   -4.3610  -10.7620 C.3   950  UDP950      0.1799
     14  O4'        7.4340   -3.8070  -11.3210 O.3   950  UDP950     -0.3320
     15  O3'        6.2530   -6.7720  -10.7030 O.3   950  UDP950     -0.2175
     16  C5'        5.4030   -3.2870   -9.8890 C.3   950  UDP950      0.1813
     17  O5'        6.2350   -2.7270   -8.9270 O.3   950  UDP950     -0.3111
     18  PA         6.1860   -1.2660   -8.4160 P.3   950  UDP950      0.2231
     19  O1A        5.0700   -0.6320   -9.1390 O.2   950  UDP950     -0.5169
     20  O2A        7.5210   -0.6770   -8.5570 O.3   950  UDP950     -0.4370
     21  O3A        5.7570   -1.5910   -6.9160 O.3   950  UDP950     -0.2261
     22  PB         6.5000   -1.0820   -5.5430 P.3   950  UDP950      0.5373
     23  O1B        5.2210   -1.2790   -4.5900 O.3   950  UDP950     -0.1143
     24  O2B        6.8320    0.3300   -5.6120 O.2   950  UDP950     -0.2221
     25  O3B        7.4930   -2.1010   -5.2070 O.3   950  UDP950     -0.1143
@<TRIPOS>BOND
     1     7     2    2
     2     2     3    2
     3     2     1   am
     4     3     4    2
     5    14     9    1
     6    14    13    1
     7     9     1    1
     8     9    10    1
     9     1     6    1
    10    13    12    1
    11    13    16    1
    12    15    12    1
    13     4     8    2
    14     4     5    1
    15     6     5    2
    16    12    10    1
    17    16    17    1
    18    11    10    1
    19    19    18    2
    20    17    18    1
    21    20    18    1
    22    18    21    1
    23    21    22    1
    24    24    22    2
    25    22    25    1
    26    22    23    1
