@<TRIPOS>MOLECULE
2z2c_UDC_A_1.pdb
 23 23 0 0 0
SMALL
GASTEIGER

@<TRIPOS>ATOM
      1  C1         4.2980   -0.2240   -4.4830 C.3   951  UDC951      0.1664
      2  C2         3.5130   -0.4070   -3.1760 C.3   951  UDC951      0.1544
      3  N2         4.4070   -0.2310   -1.9840 N.am  951  UDC951     -0.2020
      4  C7         4.8040    0.9670   -1.5870 C.2   951  UDC951      0.2420
      5  C8         5.6820    1.0210   -0.3270 C.3   951  UDC951      0.0964
      6  O7         4.5010    2.0150   -2.1410 O.2   951  UDC951     -0.2733
      7  O5         3.3650   -0.3500   -5.6180 O.3   951  UDC951     -0.3490
      8  C5         2.7660   -1.6750   -5.7010 C.3   951  UDC951      0.1808
      9  C6         2.0200   -1.7610   -7.0210 C.3   951  UDC951      0.2141
     10  O6         0.7700   -1.1670   -6.8380 O.3   951  UDC951     -0.2176
     11  C4         1.9090   -1.8870   -4.4120 C.3   951  UDC951      0.2102
     12  O4         1.2960   -3.1770   -4.4790 O.3   951  UDC951     -0.2178
     13  C3         2.8200   -1.7720   -3.1600 C.3   951  UDC951      0.1708
     14  O3         2.1240   -1.8660   -1.9270 O.3   951  UDC951     -0.3432
     15  CBN        2.3070   -3.0660   -1.0700 C.3   951  UDC951      0.2158
     16  CBO        1.0690   -3.1720   -0.1520 C.2   951  UDC951      0.3910
     17  OBQ        0.3700   -4.2110   -0.2070 O.co2 951  UDC951     -0.2430
     18  OBP        0.8490   -2.1740    0.5680 O.co2 951  UDC951     -0.2430
     19  CBR        2.4050   -4.3480   -1.9180 C.3   951  UDC951      0.0441
     20  CBS        3.4780   -2.8770   -0.0650 C.3   951  UDC951      0.2197
     21  OBT        3.7280   -4.0910    0.4540 O.3   951  UDC951     -0.2172
     22  CBU        4.7980   -2.5650   -0.6280 C.3   951  UDC951      0.2178
     23  OBV        5.5590   -3.7400   -0.5820 O.3   951  UDC951     -0.2175
@<TRIPOS>BOND
     1     9    10    1
     2     9     8    1
     3     8     7    1
     4     8    11    1
     5     7     1    1
     6     1     2    1
     7    12    11    1
     8    11    13    1
     9     2    13    1
    10     2     3    1
    11    13    14    1
    12     6     4    2
    13     3     4   am
    14    14    15    1
    15    19    15    1
    16     4     5    1
    17    15    16    1
    18    15    20    1
    19    22    23    1
    20    22    20    1
    21    17    16   ar
    22    16    18   ar
    23    20    21    1
