@<TRIPOS>MOLECULE
2z2p_DOL_A_1.pdb
 48 50 0 0 0
SMALL
GASTEIGER

@<TRIPOS>ATOM
      1  O7        15.6650    2.2660  -26.2280 O.2   2002  DOL2002    -0.2673
      2  C6        16.2340    3.2460  -26.5940 C.2   2002  DOL2002     0.2788
      3  N5        16.8970    4.0560  -25.7880 N.am  2002  DOL2002    -0.2646
      4  C4        17.3880    5.2760  -26.3620 C.3   2002  DOL2002     0.0961
      5  C3        17.9350    6.1320  -25.2350 C.3   2002  DOL2002     0.0474
      6  C2        17.7010    5.3550  -23.9910 C.3   2002  DOL2002     0.1598
      7  S39       17.4280    6.1200  -22.5650 S.O2  2002  DOL2002    -0.0080
      8  O41       16.4280    5.4120  -21.9700 O.2   2002  DOL2002    -0.1729
      9  O40       16.9070    7.3670  -22.7670 O.2   2002  DOL2002    -0.1729
     10  C42       18.5070    6.1990  -21.3560 C.3   2002  DOL2002     0.1681
     11  C43       17.7130    6.0100  -20.0930 C.3   2002  DOL2002     0.0977
     12  N44       17.0360    6.8750  -19.4930 N.3   2002  DOL2002    -0.2712
     13  C47       15.8900    7.1990  -19.8070 C.3   2002  DOL2002     0.0722
     14  C48       14.9770    7.5310  -18.6510 C.3   2002  DOL2002     0.0188
     15  C45       17.4590    7.3850  -18.4480 C.3   2002  DOL2002     0.0722
     16  C46       16.8500    6.9570  -17.1250 C.3   2002  DOL2002     0.0188
     17  C1        16.6560    4.3280  -24.3450 C.3   2002  DOL2002     0.1970
     18  C8        16.2230    3.5200  -28.0710 C.2   2002  DOL2002     0.2092
     19  C12       16.8580    4.5390  -28.7710 C.3   2002  DOL2002     0.2708
     20  O11       16.5850    4.3610  -30.2030 O.2   2002  DOL2002    -0.4465
     21  N9        15.6090    2.7570  -29.0100 N.2   2002  DOL2002    -0.3670
     22  C10       15.8260    3.2410  -30.2310 C.2   2002  DOL2002     0.2602
     23  C13       15.2770    2.6310  -31.4920 C.3   2002  DOL2002     0.1633
     24  C14       15.3220    1.3480  -31.8770 C.2   2002  DOL2002     0.1641
     25  O15       14.4140    0.6550  -31.6710 O.2   2002  DOL2002    -0.2954
     26  C16       16.3030    0.7280  -32.5110 C.3   2002  DOL2002     0.1024
     27  C17       17.7710    1.0660  -32.4530 C.3   2002  DOL2002     0.1807
     28  O18       18.4610    1.0090  -33.6820 O.3   2002  DOL2002    -0.2179
     29  C19       18.5700    0.3180  -31.4340 C.2   2002  DOL2002    -0.0019
     30  C20       17.9770   -0.0740  -30.3360 C.2   2002  DOL2002    -0.0457
     31  C21       16.5430    0.2080  -30.1580 C.3   2002  DOL2002     0.0261
     32  C22       18.7030   -0.7760  -29.3270 C.3   2002  DOL2002     0.0239
     33  C23       17.9960   -1.1150  -28.3070 C.3   2002  DOL2002     0.0315
     34  C24       18.7180   -1.8580  -27.2630 C.3   2002  DOL2002     0.1379
     35  N25       18.8610   -1.0560  -26.1010 N.2   2002  DOL2002    -0.2063
     36  C26       19.2170   -1.5500  -24.9480 C.1   2002  DOL2002     0.1260
     37  O27       19.6980   -2.6430  -24.7690 O.2   2002  DOL2002    -0.2270
     38  C28       19.0370   -0.8270  -23.9940 C.3   2002  DOL2002     0.1218
     39  C29       18.1170   -0.0340  -24.0690 C.3   2002  DOL2002     0.0212
     40  C30       18.0130    0.7870  -22.8520 C.3   2002  DOL2002     0.0413
     41  C31       18.7300    0.0160  -21.7830 C.3   2002  DOL2002     0.0037
     42  C32       18.8160    1.9740  -23.1320 C.3   2002  DOL2002     0.1687
     43  C33       20.1440    1.8960  -22.5130 C.3   2002  DOL2002     0.0402
     44  C35       20.9310    0.6660  -22.8290 C.3   2002  DOL2002     0.0037
     45  C34       20.8360    3.1830  -22.8710 C.3   2002  DOL2002     0.0037
     46  O36       18.1910    3.1580  -22.7950 O.3   2002  DOL2002    -0.4511
     47  C37       16.8540    3.3070  -23.2700 C.2   2002  DOL2002     0.3369
     48  O38       15.9960    3.1050  -22.4520 O.2   2002  DOL2002    -0.2482
@<TRIPOS>BOND
     1    28    27    1
     2    26    27    1
     3    26    24    1
     4    27    29    1
     5    24    25    2
     6    24    23    1
     7    23    22    1
     8    29    30    2
     9    30    31    1
    10    30    32    1
    11    22    20    1
    12    22    21    2
    13    20    19    1
    14    32    33    1
    15    21    18    2
    16    19    18    1
    17    33    34    1
    18    18     2    1
    19    34    35    1
    20     2     1    2
    21     2     3   am
    22     4     3    1
    23     4     5    1
    24    35    36    2
    25     3    17    1
    26     5     6    1
    27    36    37    2
    28    36    38    1
    29    17     6    1
    30    17    47    1
    31    39    38    1
    32    39    40    1
    33     6     7    1
    34    47    46    1
    35    47    48    2
    36    42    40    1
    37    42    46    1
    38    42    43    1
    39    45    43    1
    40    40    41    1
    41    44    43    1
    42     9     7    2
    43     7     8    2
    44     7    10    1
    45    10    11    1
    46    11    12    1
    47    13    12    1
    48    13    14    1
    49    12    15    1
    50    15    16    1
