@<TRIPOS>MOLECULE
2z2p_MHT_C_1.pdb
 10 11 0 0 0
SMALL
GASTEIGER

@<TRIPOS>ATOM
      1  N1        13.6810   25.7560  -20.2510 N.3     8  MHT8       -0.2720
      2  C2        14.4530   24.5980  -20.6770 C.3     8  MHT8        0.0829
      3  C3        14.7410   23.6240  -19.5350 C.3     8  MHT8        0.0637
      4  C4        14.2930   24.3170  -18.2220 C.3     8  MHT8        0.0141
      5  C5        15.0300   25.7030  -18.1860 C.3     8  MHT8        0.0183
      6  C6        14.5870   26.5810  -19.3260 C.3     8  MHT8        0.0721
      7  C7        12.4560   25.5000  -19.4130 C.3     8  MHT8        0.0721
      8  C8        12.8140   24.6400  -18.1600 C.3     8  MHT8        0.0183
      9  S3        13.8310   22.0650  -19.8700 S.3     8  MHT8       -0.1388
     10  CM        14.8410   21.4350  -21.2240 C.3     8  MHT8        0.0692
@<TRIPOS>BOND
     1    10     9    1
     2     2     1    1
     3     2     3    1
     4     1     7    1
     5     1     6    1
     6     9     3    1
     7     3     4    1
     8     7     8    1
     9     6     5    1
    10     4     5    1
    11     4     8    1
