@<TRIPOS>MOLECULE
2z2w_770_A_1.pdb
 28 32 0 0 0
SMALL
GASTEIGER

@<TRIPOS>ATOM
      1 CL1         2.0800   56.2180   29.6670 Cl    901  770901     -0.0822
      2  C8         1.4120   54.6140   29.7070 C.ar  901  770901      0.0577
      3  C9         0.4820   54.3110   30.7400 C.ar  901  770901      0.0114
      4  C10       -0.0470   53.0900   30.8090 C.ar  901  770901      0.0009
      5  C11        0.3020   52.1150   29.8530 C.ar  901  770901      0.0001
      6  C12        1.2270   52.3830   28.8480 C.ar  901  770901      0.0009
      7  C7         1.8050   53.5980   28.7740 C.ar  901  770901      0.0114
      8  C2         2.7300   53.8240   27.6520 C.ar  901  770901      0.0160
      9  C3         4.0990   54.2830   27.9690 C.ar  901  770901      0.1075
     10  C6         4.9460   54.4050   29.2160 C.1   901  770901      0.2158
     11  O2         4.4850   54.2270   30.4030 O.2   901  770901     -0.2086
     12  N1         6.1630   54.8730   28.9810 N.2   901  770901     -0.2576
     13  C4         4.9710   54.5790   26.9040 C.ar  901  770901      0.1098
     14  C5         6.2190   54.9110   27.5960 C.1   901  770901      0.2158
     15  O1         7.2250   55.3260   26.9760 O.2   901  770901     -0.2086
     16  C13        4.5250   54.4440   25.4820 C.ar  901  770901      0.0448
     17  C14        3.1320   54.0200   25.2110 C.ar  901  770901      0.1322
     18  C1         2.2940   53.6910   26.3120 C.ar  901  770901      0.0329
     19  C15        5.1910   54.6880   24.2250 C.ar  901  770901      0.0341
     20  C16        4.1330   54.4040   23.1970 C.ar  901  770901      0.1316
     21  N2         2.9680   54.0090   23.8490 N.2   901  770901     -0.4019
     22  C18        4.5290   54.5610   21.8500 C.ar  901  770901      0.0334
     23  C20        5.8770   54.9850   21.5650 C.ar  901  770901      0.0192
     24  C17        6.5070   55.1390   23.9690 C.ar  901  770901      0.0193
     25  C19        6.8370   55.2480   22.5820 C.ar  901  770901      0.0740
     26  N3         8.1200   55.6870   22.2590 N.am  901  770901     -0.1715
     27  C21        8.5360   55.9910   21.0070 C.2   901  770901      0.3247
     28  O3         7.8340   55.8570   20.0160 O.2   901  770901     -0.2629
@<TRIPOS>BOND
     1    28    27    2
     2    27    26   am
     3    23    22   ar
     4    23    25   ar
     5    22    20   ar
     6    26    25    1
     7    25    24   ar
     8    20    21    2
     9    20    19   ar
    10    21    17    2
    11    24    19   ar
    12    19    16    2
    13    17    16   ar
    14    17    18   ar
    15    16    13   ar
    16    18     8   ar
    17    13    14    1
    18    13     9   ar
    19    15    14    2
    20    14    12    2
    21     8     9   ar
    22     8     7    1
    23     9    10    1
    24     7     6   ar
    25     7     2   ar
    26     6     5   ar
    27    12    10    2
    28    10    11    2
    29     1     2    1
    30     2     3   ar
    31     5     4   ar
    32     3     4   ar
