@<TRIPOS>MOLECULE
2z36_HEM_A_1.pdb
 43 50 0 0 0
SMALL
GASTEIGER

@<TRIPOS>ATOM
      1 FE         18.7180  -17.2970    5.0610 Fe    450  HEM450      0.0000
      2  CHA       19.8630  -19.3330    2.6050 C.2   450  HEM450      0.0000
      3  CHB       17.4190  -20.0130    6.5940 C.2   450  HEM450      0.0000
      4  CHC       17.8370  -15.4200    7.6760 C.2   450  HEM450      0.0000
      5  CHD       20.3700  -14.7190    3.7070 C.2   450  HEM450      0.0000
      6  NA        18.6470  -19.2190    4.6820 N.2   450  HEM450      0.0000
      7  C1A       19.1910  -19.9150    3.6150 C.2   450  HEM450      0.0000
      8  C2A       18.9070  -21.3130    3.7160 C.2   450  HEM450      0.0000
      9  C3A       18.1930  -21.4890    4.8340 C.2   450  HEM450      0.0000
     10  C4A       18.0450  -20.2170    5.4300 C.2   450  HEM450      0.0000
     11  CMA       17.6440  -22.8030    5.3670 C.3   450  HEM450      0.0000
     12  CAA       19.3280  -22.4070    2.7310 C.3   450  HEM450      0.0000
     13  CBA       18.2370  -22.6870    1.6830 C.3   450  HEM450      0.0000
     14  CGA       18.6700  -23.7740    0.7150 C.2   450  HEM450      0.0000
     15  O1A       19.7510  -24.3090    0.8210 O.co2 450  HEM450      0.0000
     16  O2A       17.8480  -24.1520   -0.2760 O.co2 450  HEM450      0.0000
     17  NB        17.7620  -17.6400    6.7420 N.ar  450  HEM450      0.0000
     18  C1B       17.2790  -18.8050    7.1990 C.ar  450  HEM450      0.0000
     19  C2B       16.5490  -18.6650    8.4170 C.ar  450  HEM450      0.0000
     20  C3B       16.6240  -17.3910    8.7800 C.ar  450  HEM450      0.0000
     21  C4B       17.4490  -16.7290    7.6860 C.ar  450  HEM450      0.0000
     22  CMB       15.8320  -19.7750    9.1650 C.3   450  HEM450      0.0000
     23  CAB       16.0000  -16.8170   10.0240 C.2   450  HEM450      0.0000
     24  CBB       16.0820  -15.5430   10.3890 C.2   450  HEM450      0.0000
     25  NC        19.0210  -15.4570    5.5680 N.2   450  HEM450      0.0000
     26  C1C       18.5860  -14.8330    6.7110 C.2   450  HEM450      0.0000
     27  C2C       19.0260  -13.4830    6.7510 C.2   450  HEM450      0.0000
     28  C3C       19.7470  -13.2590    5.6080 C.2   450  HEM450      0.0000
     29  C4C       19.7370  -14.5060    4.8780 C.2   450  HEM450      0.0000
     30  CMC       18.7440  -12.4790    7.8620 C.3   450  HEM450      0.0000
     31  CAC       20.4250  -11.9920    5.2020 C.2   450  HEM450      0.0000
     32  CBC       19.7340  -10.9430    4.7620 C.2   450  HEM450      0.0000
     33  ND        19.7990  -17.0720    3.4620 N.ar  450  HEM450      0.0000
     34  C1D       20.3620  -15.9310    3.0470 C.ar  450  HEM450      0.0000
     35  C2D       20.9820  -16.1040    1.7130 C.ar  450  HEM450      0.0000
     36  C3D       20.8510  -17.3800    1.4040 C.ar  450  HEM450      0.0000
     37  C4D       20.1320  -17.9990    2.5370 C.ar  450  HEM450      0.0000
     38  CMD       21.6320  -15.0180    0.8920 C.3   450  HEM450      0.0000
     39  CAD       21.3200  -18.0900    0.1530 C.3   450  HEM450      0.0000
     40  CBD       22.7100  -18.7050    0.4120 C.3   450  HEM450      0.0000
     41  CGD       23.2420  -19.4410   -0.8010 C.2   450  HEM450      0.0000
     42  O1D       22.6040  -19.5070   -1.8290 O.co2 450  HEM450      0.0000
     43  O2D       24.4410  -20.0300   -0.7310 O.co2 450  HEM450      0.0000
@<TRIPOS>BOND
     1    42    41   ar
     2    41    43   ar
     3    41    40    1
     4    16    14   ar
     5    39    40    1
     6    39    36    1
     7    14    15   ar
     8    14    13    1
     9    38    35    1
    10    36    35   ar
    11    36    37   ar
    12    13    12    1
    13    35    34   ar
    14    37     2    2
    15    37    33   ar
    16     2     7    1
    17    12     8    1
    18    34    33   ar
    19    34     5    2
    20    33     1    1
    21     7     8    1
    22     7     6    2
    23     5    29    1
    24     8     9    2
    25     6     1    1
    26     6    10    1
    27    32    31    2
    28     9    11    1
    29     9    10    1
    30    29    25    2
    31    29    28    1
    32     1    25    1
    33     1    17    1
    34    31    28    1
    35    10     3    2
    36    25    26    1
    37    28    27    2
    38     3    18    1
    39    26    27    1
    40    26     4    2
    41    17    18   ar
    42    17    21   ar
    43    27    30    1
    44    18    19   ar
    45     4    21    1
    46    21    20   ar
    47    19    20   ar
    48    19    22    1
    49    20    23    1
    50    23    24    2
