@<TRIPOS>MOLECULE
2z3c_III_B_1.pdb
 44 45 0 0 0
SMALL
GASTEIGER

@<TRIPOS>ATOM
      1  C         26.6990    8.0540   -5.4050 C.2   307  ACE307      0.2423
      2  O         25.8150    8.4600   -4.6490 O.2   307  ACE307     -0.2733
      3  CH3       27.8470    8.9560   -5.8280 C.3   307  ACE307      0.0964
      4  N         26.7360    6.8120   -5.8550 N.am  308  VAL308     -0.1978
      5  CA        25.6090    5.8990   -5.7180 C.3   308  VAL308      0.1726
      6  C         25.7210    5.0040   -4.4680 C.2   308  VAL308      0.2617
      7  O         26.8220    4.7520   -3.9750 O.2   308  VAL308     -0.2715
      8  CB        25.5020    5.0930   -7.0240 C.3   308  VAL308      0.0290
      9  CG1       24.5900    3.8910   -6.9030 C.3   308  VAL308      0.0023
     10  CG2       25.0450    6.0030   -8.1370 C.3   308  VAL308      0.0023
     11  C         23.9530    2.2080   -3.4150 C.2   309  THR309      0.2641
     12  N         24.5790    4.5490   -3.9450 N.am  309  THR309     -0.1938
     13  O         22.7580    2.1260   -3.6850 O.2   309  THR309     -0.2714
     14  C1        23.8210    7.7180   -1.0800 C.ar  309  THR309      0.0073
     15  C2        24.6030    8.2780   -2.0930 C.ar  309  THR309     -0.0019
     16  C3        25.1510    9.5620   -1.9430 C.ar  309  THR309     -0.0002
     17  C4        24.9250   10.3080   -0.7820 C.ar  309  THR309     -0.0000
     18  C5        24.1440    9.7520    0.2420 C.ar  309  THR309     -0.0002
     19  C6        23.6000    8.4640    0.0920 C.ar  309  THR309     -0.0019
     20  C7        23.2260    6.3190   -1.2340 C.3   309  THR309      0.1686
     21  CA        24.5490    3.5330   -2.8910 C.3   309  THR309      0.1996
     22  CB        23.7620    4.0390   -1.6340 C.3   309  THR309      0.1445
     23  OG1       24.2620    5.3210   -1.2320 O.3   309  THR309     -0.3492
     24  CG2       23.9100    3.0360   -0.4730 C.3   309  THR309      0.0344
     25  N         24.7680    1.1580   -3.5670 N.am  310  LEU310     -0.1963
     26  CA        24.1630   -0.1410   -3.9280 C.3   310  LEU310      0.1728
     27  C         23.4040   -0.7030   -2.7260 C.2   310  LEU310      0.2612
     28  O         23.9220   -0.6370   -1.6070 O.2   310  LEU310     -0.2715
     29  CB        25.1060   -1.0860   -4.6660 C.3   310  LEU310      0.0311
     30  CG        25.3490   -0.5490   -6.0820 C.3   310  LEU310      0.0022
     31  CD1       26.7140    0.1400   -6.2230 C.3   310  LEU310      0.0001
     32  CD2       25.1560   -1.5610   -7.1700 C.3   310  LEU310      0.0001
     33  OAD       18.1310    1.3270   -2.0670 O.2   311  ECQ311     -0.2271
     34  CD2       19.0610    1.4050   -1.2670 C.1   311  ECQ311      0.1250
     35  CG        20.2810    0.5250   -1.2500 C.3   311  ECQ311      0.1101
     36  CD1       20.6910    0.6510    0.2280 C.3   311  ECQ311      0.0438
     37  CAE       20.2430    2.0460    0.6930 C.3   311  ECQ311      0.1387
     38  NAH       19.1700    2.2810   -0.2750 N.2   311  ECQ311     -0.2063
     39  CB        20.0340   -0.9300   -1.6400 C.3   311  ECQ311      0.0409
     40  CA        21.3580   -1.7130   -1.7560 C.3   311  ECQ311      0.1267
     41  N         22.1200   -1.2090   -2.8970 N.am  311  ECQ311     -0.2031
     42  C         21.0020   -3.1440   -2.1210 C.3   311  ECQ311      0.1719
     43  O         20.7300   -3.9260   -0.9520 O.3   311  ECQ311     -0.2213
     44  CMK       22.0470   -3.7740   -3.0410 C.3   311  ECQ311      0.0373
@<TRIPOS>BOND
     1    10     8    1
     2    32    30    1
     3     8     9    1
     4     8     5    1
     5    31    30    1
     6    30    29    1
     7     4     5    1
     8     4     1   am
     9     3     1    1
    10     5     6    1
    11     1     2    2
    12    29    26    1
    13     6     7    2
    14     6    12   am
    15    12    21    1
    16    26    25    1
    17    26    27    1
    18    13    11    2
    19    25    11   am
    20    11    21    1
    21    44    42    1
    22    41    27   am
    23    41    40    1
    24    21    22    1
    25    27    28    2
    26    42    40    1
    27    42    43    1
    28    15    16   ar
    29    15    14   ar
    30    33    34    2
    31    16    17   ar
    32    40    39    1
    33    39    35    1
    34    22    23    1
    35    22    24    1
    36    34    35    1
    37    34    38    2
    38    35    36    1
    39    20    23    1
    40    20    14    1
    41    14    19   ar
    42    17    18   ar
    43    38    37    1
    44    19    18   ar
    45    36    37    1
