@<TRIPOS>MOLECULE
2z3d_III_I_1.pdb
 33 33 0 0 0
SMALL
GASTEIGER

@<TRIPOS>ATOM
      1  C        -24.9280  -32.7100    3.4320 C.2   901  ACE901      0.2423
      2  O        -25.9810  -32.2750    3.9290 O.2   901  ACE901     -0.2733
      3  CH3      -24.4810  -32.2500    2.0510 C.3   901  ACE901      0.0964
      4  N        -24.0990  -33.5570    4.0530 N.am  902  LEU902     -0.1978
      5  CA       -24.3630  -34.2770    5.3320 C.3   902  LEU902      0.1727
      6  C        -24.8350  -35.7150    5.1020 C.2   902  LEU902      0.2616
      7  O        -25.5160  -36.3260    5.9390 O.2   902  LEU902     -0.2715
      8  CB       -25.2980  -33.5540    6.3120 C.3   902  LEU902      0.0311
      9  CG       -25.1330  -34.1920    7.6570 C.3   902  LEU902      0.0022
     10  CD1      -24.2910  -33.3050    8.5370 C.3   902  LEU902      0.0001
     11  CD2      -26.4260  -34.5840    8.3430 C.3   902  LEU902      0.0001
     12  N        -24.4310  -36.2470    3.9580 N.am  903  ALA903     -0.1963
     13  CA       -24.8630  -37.5400    3.5090 C.3   903  ALA903      0.1728
     14  C        -23.9980  -38.6380    4.1250 C.2   903  ALA903      0.2616
     15  O        -22.7860  -38.4990    4.2480 O.2   903  ALA903     -0.2715
     16  CB       -24.7900  -37.5860    1.9760 C.3   903  ALA903      0.0334
     17  N        -24.6390  -39.7360    4.5010 N.am  904  ALA904     -0.1963
     18  CA       -23.9240  -40.9710    4.7480 C.3   904  ALA904      0.1728
     19  C        -23.2950  -41.3780    3.4220 C.2   904  ALA904      0.2612
     20  O        -23.9580  -41.2260    2.3800 O.2   904  ALA904     -0.2715
     21  CB       -24.8800  -42.0400    5.2170 C.3   904  ALA904      0.0334
     22  OAD      -18.1500  -38.8840    2.3140 O.2   905  ECQ905     -0.2271
     23  CD2      -19.0840  -38.8920    1.5200 C.1   905  ECQ905      0.1250
     24  CG       -20.3310  -39.7180    1.6780 C.3   905  ECQ905      0.1101
     25  CD1      -21.1970  -39.3030    0.4660 C.3   905  ECQ905      0.0438
     26  CAE      -20.2890  -38.4160   -0.5420 C.3   905  ECQ905      0.1387
     27  NAH      -19.1570  -38.1210    0.4350 N.2   905  ECQ905     -0.2063
     28  CB       -20.0560  -41.2320    1.7480 C.3   905  ECQ905      0.0409
     29  CA       -21.2620  -42.1360    2.0920 C.3   905  ECQ905      0.1267
     30  N        -21.9020  -41.8030    3.3740 N.am  905  ECQ905     -0.2031
     31  C        -20.8730  -43.6210    2.1390 C.3   905  ECQ905      0.1719
     32  O        -20.5500  -44.0860    0.8190 O.3   905  ECQ905     -0.2213
     33  CMK      -22.0270  -44.4750    2.6790 C.3   905  ECQ905      0.0373
@<TRIPOS>BOND
     1    26    27    1
     2    26    25    1
     3    27    23    2
     4    25    24    1
     5    32    31    1
     6    23    24    1
     7    23    22    2
     8    24    28    1
     9    28    29    1
    10    16    13    1
    11     3     1    1
    12    29    31    1
    13    29    30    1
    14    31    33    1
    15    20    19    2
    16    30    19   am
    17    19    18    1
    18     1     2    2
    19     1     4   am
    20    13    12    1
    21    13    14    1
    22    12     6   am
    23     4     5    1
    24    14    15    2
    25    14    17   am
    26    17    18    1
    27    18    21    1
    28     6     5    1
    29     6     7    2
    30     5     8    1
    31     8     9    1
    32     9    11    1
    33     9    10    1
