@<TRIPOS>MOLECULE
2z3e_III_I_1.pdb
 44 45 0 0 0
SMALL
GASTEIGER

@<TRIPOS>ATOM
      1  C        -19.9770    7.9910  -20.1250 C.2     1  ACE1        0.2423
      2  O        -18.8550    8.4950  -20.2180 O.2     1  ACE1       -0.2733
      3  CH3      -21.2090    8.8530  -19.8740 C.3     1  ACE1        0.0964
      4  N        -20.1960    6.6860  -20.2630 N.am    2  VAL2       -0.1978
      5  CA       -19.1020    5.7280  -20.3670 C.3     2  VAL2        0.1726
      6  C        -19.1300    4.8630  -21.6570 C.2     2  VAL2        0.2617
      7  O        -20.1770    4.7500  -22.3310 O.2     2  VAL2       -0.2715
      8  CB       -19.0360    4.9220  -19.0690 C.3     2  VAL2        0.0290
      9  CG1      -18.3880    3.5560  -19.2700 C.3     2  VAL2        0.0023
     10  CG2      -18.3010    5.7400  -18.0250 C.3     2  VAL2        0.0023
     11  C        -17.0980    2.0990  -22.6490 C.2     3  THR3        0.2641
     12  N        -17.9210    4.3340  -21.9960 N.am    3  THR3       -0.1938
     13  O        -15.8950    1.9810  -22.4000 O.2     3  THR3       -0.2714
     14  C1       -17.0540    7.8620  -24.4910 C.ar    3  THR3        0.0073
     15  C2       -17.8920    8.6070  -23.6390 C.ar    3  THR3       -0.0019
     16  C3       -18.3780    9.8650  -24.0470 C.ar    3  THR3       -0.0002
     17  C4       -18.0420   10.4150  -25.3030 C.ar    3  THR3       -0.0000
     18  C5       -17.2030    9.6810  -26.1610 C.ar    3  THR3       -0.0002
     19  C6       -16.7180    8.4080  -25.7570 C.ar    3  THR3       -0.0019
     20  C7       -16.5200    6.4930  -24.0630 C.3     3  THR3        0.1686
     21  CA       -17.7150    3.4440  -23.1530 C.3     3  THR3        0.1996
     22  CB       -16.8220    4.1280  -24.3190 C.3     3  THR3        0.1445
     23  OG1      -17.2880    5.4530  -24.6770 O.3     3  THR3       -0.3492
     24  CG2      -16.7520    3.2360  -25.5650 C.3     3  THR3        0.0344
     25  N        -17.9380    1.0480  -22.5310 N.am    4  LEU4       -0.1963
     26  CA       -17.3230   -0.2110  -22.0890 C.3     4  LEU4        0.1728
     27  C        -16.6350   -0.9190  -23.2830 C.2     4  LEU4        0.2616
     28  O        -17.3140   -1.2690  -24.2730 O.2     4  LEU4       -0.2715
     29  CB       -18.2880   -1.0600  -21.2480 C.3     4  LEU4        0.0311
     30  CG       -18.7270   -0.2580  -19.9920 C.3     4  LEU4        0.0022
     31  CD1      -20.1630    0.3790  -20.1070 C.3     4  LEU4        0.0001
     32  CD2      -18.4160   -0.8560  -18.5470 C.3     4  LEU4        0.0001
     33  OAD      -11.5780    1.3890  -23.2880 O.2     6  KCQ6       -0.2271
     34  CD2      -12.1800    1.3970  -24.3740 C.1     6  KCQ6        0.1250
     35  NAH      -11.8830    2.0470  -25.5260 N.2     6  KCQ6       -0.2063
     36  CAE      -12.8770    2.0490  -26.6120 C.3     6  KCQ6        0.1387
     37  CD1      -13.8170    0.9770  -26.0630 C.3     6  KCQ6        0.0438
     38  CG       -13.4400    0.6370  -24.5930 C.3     6  KCQ6        0.1104
     39  CB       -13.1600   -0.8480  -24.3930 C.3     6  KCQ6        0.0458
     40  CA       -14.4910   -1.5490  -24.3040 C.3     6  KCQ6        0.1534
     41  N        -15.2850   -0.9610  -23.2370 N.am    6  KCQ6       -0.1982
     42  C        -14.3520   -3.0330  -24.1330 C.2     6  KCQ6        0.1707
     43  O        -13.7250   -3.6640  -24.9830 O.2     6  KCQ6       -0.2943
     44  CMK      -15.0350   -3.6900  -22.9550 C.3     6  KCQ6        0.0741
@<TRIPOS>BOND
     1    36    37    1
     2    36    35    1
     3    18    19   ar
     4    18    17   ar
     5    37    38    1
     6    19    14   ar
     7    24    22    1
     8    35    34    2
     9    17    16   ar
    10    43    42    2
    11    23    22    1
    12    23    20    1
    13    38    39    1
    14    38    34    1
    15    14    20    1
    16    14    15   ar
    17    39    40    1
    18    34    33    2
    19    22    21    1
    20    40    42    1
    21    40    41    1
    22    28    27    2
    23    42    44    1
    24    16    15   ar
    25    27    41   am
    26    27    26    1
    27    21    11    1
    28    21    12    1
    29    11    25   am
    30    11    13    2
    31    25    26    1
    32     7     6    2
    33    26    29    1
    34    12     6   am
    35     6     5    1
    36    29    30    1
    37     5     4    1
    38     5     8    1
    39     4     1   am
    40     2     1    2
    41     1     3    1
    42    31    30    1
    43    30    32    1
    44     9     8    1
    45     8    10    1
