@<TRIPOS>MOLECULE
2z3f_III_Q_1.pdb
 40 42 0 0 0
SMALL
GASTEIGER

@<TRIPOS>ATOM
      1  N        135.5160   72.5860    6.2680 N.3   507  PRO507     -0.2102
      2  CA       134.0550   72.3520    6.2940 C.3   507  PRO507      0.1504
      3  C        133.4810   71.5290    7.4850 C.2   507  PRO507      0.2576
      4  O        132.4330   70.9240    7.3210 O.2   507  PRO507     -0.2718
      5  CB       133.8220   71.6410    4.9540 C.3   507  PRO507      0.0282
      6  CG       134.8890   72.1320    4.0680 C.3   507  PRO507      0.0208
      7  CD       135.9520   72.8320    4.8840 C.3   507  PRO507      0.0893
      8  N        134.1190   71.5380    8.6580 N.am  508  THR508     -0.1940
      9  CA       133.5610   70.8580    9.8470 C.3   508  THR508      0.2013
     10  C        132.1700   71.4780   10.1440 C.2   508  THR508      0.2484
     11  O        131.9670   72.6870    9.9160 O.2   508  THR508     -0.2729
     12  CB       134.5440   70.9820   11.0970 C.3   508  THR508      0.1807
     13  OG1      135.7190   70.1870   10.8980 O.3   508  THR508     -0.2208
     14  CG2      133.9720   70.3760   12.4260 C.3   508  THR508      0.0379
     15  N        131.2090   70.6690   10.6220 N.am  509  PRO509     -0.2715
     16  CA       129.9600   71.2340   11.1680 C.3   509  PRO509      0.1536
     17  C        130.2270   72.2190   12.3520 C.2   509  PRO509      0.2598
     18  O        131.3290   72.2300   12.9200 O.2   509  PRO509     -0.2715
     19  CB       129.1390   69.9790   11.5870 C.3   509  PRO509      0.0310
     20  CG       130.0710   68.7930   11.5280 C.3   509  PRO509      0.0237
     21  CD       131.2130   69.1880   10.6630 C.3   509  PRO509      0.0939
     22  N        129.2390   73.0380   12.7200 N.am  510  VAL510     -0.1964
     23  CA       129.4820   74.1530   13.6670 C.3   510  VAL510      0.1727
     24  C        129.7300   73.7650   15.1630 C.2   510  VAL510      0.2616
     25  O        130.4900   74.4930   15.8280 O.2   510  VAL510     -0.2715
     26  CB       128.4040   75.3200   13.5390 C.3   510  VAL510      0.0290
     27  CG1      128.9270   76.6630   14.1820 C.3   510  VAL510      0.0023
     28  CG2      128.0110   75.5520   12.0570 C.3   510  VAL510      0.0023
     29  N        129.1780   72.6240   15.6610 N.am  511  TYR511     -0.1974
     30  CA       129.2050   72.2840   17.1210 C.3   511  TYR511      0.1639
     31  C        129.8220   70.9430   17.6230 C.2   511  TYR511      0.2290
     32  O        129.1310   69.9710   17.8480 O.2   511  TYR511     -0.2864
     33  CB       127.8020   72.5660   17.6800 C.3   511  TYR511      0.0560
     34  CG       127.5200   74.0770   17.7120 C.ar  511  TYR511     -0.0198
     35  CD1      126.4630   74.6540   16.9720 C.ar  511  TYR511     -0.0009
     36  CD2      128.3620   74.9370   18.4470 C.ar  511  TYR511     -0.0009
     37  CE1      126.2500   76.0490   16.9830 C.ar  511  TYR511      0.0417
     38  CE2      128.1620   76.3030   18.4720 C.ar  511  TYR511      0.0417
     39  CZ       127.1110   76.8600   17.7480 C.ar  511  TYR511      0.1957
     40  OH       126.9430   78.2220   17.8350 O.3   511  TYR511     -0.2866
@<TRIPOS>BOND
     1     6     7    1
     2     6     5    1
     3     7     1    1
     4     5     2    1
     5     1     2    1
     6     2     3    1
     7     4     3    2
     8     3     8   am
     9     8     9    1
    10     9    10    1
    11     9    12    1
    12    11    10    2
    13    10    15   am
    14    15    21    1
    15    15    16    1
    16    21    20    1
    17    13    12    1
    18    12    14    1
    19    16    19    1
    20    16    17    1
    21    20    19    1
    22    28    26    1
    23    17    22   am
    24    17    18    2
    25    22    23    1
    26    26    23    1
    27    26    27    1
    28    23    24    1
    29    24    29   am
    30    24    25    2
    31    29    30    1
    32    35    37   ar
    33    35    34   ar
    34    37    39   ar
    35    30    31    1
    36    30    33    1
    37    31    32    2
    38    33    34    1
    39    34    36   ar
    40    39    40    1
    41    39    38   ar
    42    36    38   ar
