@<TRIPOS>MOLECULE
2z3h_BLO_A_1.pdb
 30 31 0 0 0
SMALL
GASTEIGER

@<TRIPOS>ATOM
      1  O7        22.3430   32.4620  106.1530 O.2   2500  BLO2500    -0.2733
      2  C7        22.1350   33.6630  106.0430 C.2   2500  BLO2500     0.2429
      3  C8        20.8110   34.3200  106.3880 C.3   2500  BLO2500     0.1059
      4  C9        19.6000   33.5110  105.9650 C.3   2500  BLO2500     0.1044
      5  C10       18.3650   34.3800  106.1790 C.3   2500  BLO2500     0.0625
      6  C11       17.6890   34.7410  104.8590 C.3   2500  BLO2500     0.1797
      7  N12       16.7790   35.8840  105.0450 N.pl3 2500  BLO2500    -0.2232
      8  C14       15.5020   35.7360  105.6580 C.cat 2500  BLO2500     0.5034
      9  N15       15.0380   34.5380  106.0180 N.pl3 2500  BLO2500     0.1321
     10  N14       14.7450   36.8130  105.8930 N.pl3 2500  BLO2500     0.1321
     11  C13       17.2370   37.2180  104.6300 C.3   2500  BLO2500     0.2208
     12  N9        19.5210   32.3470  106.8220 N.3   2500  BLO2500    -0.1323
     13  N6        23.0500   34.5180  105.6150 N.am  2500  BLO2500    -0.2041
     14  C4'       24.4140   34.1440  105.2410 C.3   2500  BLO2500     0.1337
     15  C3'       24.7990   34.5580  103.8200 C.3   2500  BLO2500     0.0291
     16  C2'       25.8490   35.2520  103.5750 C.3   2500  BLO2500     0.0538
     17  C5'       25.3420   34.9440  106.1670 C.3   2500  BLO2500     0.2391
     18  C6'       25.3650   34.4530  107.5860 C.2   2500  BLO2500     0.3931
     19  O3        24.6820   35.0880  108.4120 O.co2 2500  BLO2500    -0.2429
     20  O4        26.0700   33.4720  107.8920 O.co2 2500  BLO2500    -0.2429
     21  O5'       26.6920   34.8280  105.7190 O.3   2500  BLO2500    -0.3261
     22  C1'       26.8710   35.1500  104.3580 C.3   2500  BLO2500     0.2070
     23  N1        28.1290   34.9710  103.8950 N.am  2500  BLO2500    -0.1791
     24  C6        28.2760   33.6580  103.6480 C.2   2500  BLO2500     0.0928
     25  C5        29.4590   33.1670  103.1400 C.2   2500  BLO2500     0.1242
     26  C4        30.4470   34.0990  102.8880 C.1   2500  BLO2500     0.2182
     27  O1        31.5770   33.6910  102.3200 O.2   2500  BLO2500    -0.2085
     28  N3        30.3040   35.4090  103.1950 N.2   2500  BLO2500    -0.2452
     29  C2        29.1210   35.8680  103.6780 C.1   2500  BLO2500     0.2844
     30  O2        29.0190   37.1010  103.8850 O.2   2500  BLO2500    -0.1918
@<TRIPOS>BOND
     1    27    26    2
     2    26    25    1
     3    26    28    2
     4    25    24    2
     5    28    29    2
     6    16    15    1
     7    16    22    1
     8    24    23    1
     9    29    30    2
    10    29    23   am
    11    15    14    1
    12    23    22    1
    13    22    21    1
    14    11     7    1
    15     6     7    1
    16     6     5    1
    17     7     8    1
    18    14    13    1
    19    14    17    1
    20    13     2   am
    21     8    10    2
    22     8     9    1
    23    21    17    1
    24     4     5    1
    25     4     3    1
    26     4    12    1
    27     2     1    2
    28     2     3    1
    29    17    18    1
    30    18    20   ar
    31    18    19   ar
