@<TRIPOS>MOLECULE
2z3i_BLS_A_1.pdb
 30 31 0 0 0
SMALL
GASTEIGER

@<TRIPOS>ATOM
      1  O4        26.4890   33.2000  107.6340 O.co2 2500  BLS2500    -0.2429
      2  N1        28.9260   34.6380  103.7960 N.am  2500  BLS2500    -0.1803
      3  C2        29.8470   35.6620  103.7250 C.1   2500  BLS2500     0.2756
      4  O2        29.5510   36.8810  103.6070 O.2   2500  BLS2500    -0.1925
      5  N3        31.1680   35.3460  103.7250 N.2   2500  BLS2500    -0.3024
      6  C4        31.6040   34.0560  103.8900 C.2   2500  BLS2500     0.2346
      7  N4        32.9220   33.7290  103.9370 N.pl3 2500  BLS2500    -0.0921
      8  C5        30.6870   33.0180  103.9740 C.2   2500  BLS2500     0.0687
      9  C6        29.3520   33.3660  103.9300 C.2   2500  BLS2500     0.0835
     10  C1'       27.5560   34.6630  103.9550 C.3   2500  BLS2500     0.2069
     11  C2'       26.5580   34.6440  103.1520 C.3   2500  BLS2500     0.0538
     12  C3'       25.4710   34.1000  103.5410 C.3   2500  BLS2500     0.0291
     13  C4'       25.0490   33.8840  105.0100 C.3   2500  BLS2500     0.1337
     14  C5'       25.9940   34.7250  105.8880 C.3   2500  BLS2500     0.2391
     15  O5'       27.3010   34.4480  105.4010 O.3   2500  BLS2500    -0.3261
     16  O3        25.3270   34.9630  108.1700 O.co2 2500  BLS2500    -0.2429
     17  C6'       25.9480   34.2730  107.3330 C.2   2500  BLS2500     0.3931
     18  N6        23.6920   34.3500  105.3370 N.am  2500  BLS2500    -0.2041
     19  C7        22.6530   33.5610  105.6090 C.2   2500  BLS2500     0.2429
     20  O7        22.7030   32.3380  105.6000 O.2   2500  BLS2500    -0.2733
     21  C8        21.3530   34.2690  105.9460 C.3   2500  BLS2500     0.1059
     22  C9        20.1640   33.3150  105.9410 C.3   2500  BLS2500     0.1044
     23  N9        20.1700   32.4550  107.1110 N.3   2500  BLS2500    -0.1323
     24  C10       18.8840   34.1360  105.9920 C.3   2500  BLS2500     0.0625
     25  C11       18.4440   34.5030  104.5890 C.3   2500  BLS2500     0.1797
     26  N12       17.1620   35.2130  104.6060 N.pl3 2500  BLS2500    -0.2232
     27  C13       15.9130   34.4300  104.6350 C.3   2500  BLS2500     0.2208
     28  C14       17.1000   36.6280  104.5930 C.cat 2500  BLS2500     0.5034
     29  N14       15.9090   37.2420  104.6430 N.pl3 2500  BLS2500     0.1321
     30  N15       18.2020   37.3720  104.5190 N.pl3 2500  BLS2500     0.1321
@<TRIPOS>BOND
     1    11    12    1
     2    11    10    1
     3    12    13    1
     4     4     3    2
     5     3     5    2
     6     3     2   am
     7     5     6    2
     8     2     9    1
     9     2    10    1
    10     6     7    1
    11     6     8    1
    12     9     8    2
    13    10    15    1
    14    30    28    2
    15    25    26    1
    16    25    24    1
    17    28    26    1
    18    28    29    1
    19    26    27    1
    20    13    18    1
    21    13    14    1
    22    18    19   am
    23    15    14    1
    24    20    19    2
    25    19    21    1
    26    14    17    1
    27    22    21    1
    28    22    24    1
    29    22    23    1
    30    17     1   ar
    31    17    16   ar
