@<TRIPOS>MOLECULE
2z3k_XYA_A_1.pdb
 19 21 0 0 0
SMALL
GASTEIGER

@<TRIPOS>ATOM
      1  O5'       39.9280   55.8760   11.5010 O.3   301  XYA301     -0.2176
      2  C5'       39.4890   56.7970   12.4950 C.3   301  XYA301      0.2143
      3  C4'       38.0980   56.4370   12.9650 C.3   301  XYA301      0.1851
      4  O4'       37.7330   57.2880   14.0910 O.3   301  XYA301     -0.3134
      5  C1'       36.3260   57.4980   14.0920 C.3   301  XYA301      0.3186
      6  N9        36.0540   58.9360   13.9930 N.pl3 301  XYA301     -0.1439
      7  C8        36.7830   59.9690   14.5330 C.3   301  XYA301      0.3377
      8  N7        36.2740   61.1570   14.3020 N.2   301  XYA301     -0.2095
      9  C5        35.1340   60.8940   13.5520 C.2   301  XYA301      0.2526
     10  C6        34.1480   61.7370   12.9900 C.2   301  XYA301      0.4393
     11  N1        33.1470   61.1550   12.2910 N.2   301  XYA301      0.0021
     12  C2        33.1390   59.8200   12.1740 C.3   301  XYA301      0.5254
     13  N3        34.0000   58.9240   12.6590 N.2   301  XYA301     -0.0055
     14  C4        34.9880   59.5300   13.3470 C.2   301  XYA301      0.3518
     15  N6        34.1490   63.0680   13.1160 N.pl3 301  XYA301      0.2180
     16  C2'       35.7620   56.6980   12.9190 C.3   301  XYA301      0.2570
     17  O2'       35.4050   55.4120   13.3790 O.3   301  XYA301     -0.2130
     18  C3'       36.9600   56.6720   11.9810 C.3   301  XYA301      0.2186
     19  O3'       36.8360   55.6610   11.0310 O.3   301  XYA301     -0.2174
@<TRIPOS>BOND
     1    19    18    1
     2     1     2    1
     3    18    16    1
     4    18     3    1
     5    12    11    1
     6    12    13    1
     7    11    10    2
     8     2     3    1
     9    13    14    2
    10    16    17    1
    11    16     5    1
    12     3     4    1
    13    10    15    1
    14    10     9    1
    15    14     9    1
    16    14     6    1
    17     9     8    2
    18     6     5    1
    19     6     7    1
    20     4     5    1
    21     8     7    1
