@<TRIPOS>MOLECULE
2z3k_PHE_A_1.pdb
 11 11 0 0 0
SMALL
GASTEIGER

@<TRIPOS>ATOM
      1  N         34.6080   57.7940    9.9870 N.3   302  PHE302     -0.1241
      2  CA        34.8660   56.3670    9.8480 C.3   302  PHE302      0.1605
      3  C         36.3580   56.0370    9.8470 C.2   302  PHE302      0.2264
      4  O         37.0100   56.0850    8.8050 O.2   302  PHE302     -0.2867
      5  CB        34.2520   55.8490    8.5550 C.3   302  PHE302      0.0534
      6  CG        34.5760   54.4180    8.2770 C.ar  302  PHE302     -0.0203
      7  CD1       34.0710   53.4100    9.0880 C.ar  302  PHE302     -0.0042
      8  CD2       35.4050   54.0770    7.2210 C.ar  302  PHE302     -0.0042
      9  CE1       34.3890   52.0820    8.8510 C.ar  302  PHE302     -0.0003
     10  CE2       35.7300   52.7520    6.9770 C.ar  302  PHE302     -0.0003
     11  CZ        35.2200   51.7510    7.7940 C.ar  302  PHE302     -0.0000
@<TRIPOS>BOND
     1    10     8   ar
     2    10    11   ar
     3     8     6   ar
     4    11     9   ar
     5     6     5    1
     6     6     7   ar
     7     5     2    1
     8     4     3    2
     9     9     7   ar
    10     3     2    1
    11     2     1    1
