@<TRIPOS>MOLECULE
2z3l_III_C_1.pdb
 47 48 0 0 0
SMALL
GASTEIGER

@<TRIPOS>ATOM
      1  N        -44.3520  -44.9470   17.2670 N.3   301  PHE301     -0.1227
      2  CA       -44.4870  -44.4390   18.6660 C.3   301  PHE301      0.1736
      3  C        -44.0740  -45.5360   19.6380 C.2   301  PHE301      0.2595
      4  O        -44.8900  -46.0760   20.3890 O.2   301  PHE301     -0.2718
      5  CB       -45.9320  -44.0050   18.9330 C.3   301  PHE301      0.0547
      6  CG       -46.4780  -43.0630   17.8930 C.ar  301  PHE301     -0.0202
      7  CD1      -46.9880  -43.5530   16.6910 C.ar  301  PHE301     -0.0042
      8  CD2      -46.4530  -41.6830   18.1030 C.ar  301  PHE301     -0.0042
      9  CE1      -47.4630  -42.6800   15.7180 C.ar  301  PHE301     -0.0003
     10  CE2      -46.9230  -40.8020   17.1400 C.ar  301  PHE301     -0.0003
     11  CZ       -47.4290  -41.2950   15.9450 C.ar  301  PHE301     -0.0000
     12  N        -42.7810  -45.8390   19.6000 N.am  302  ARG302     -0.1966
     13  CA       -42.1700  -46.8720   20.4130 C.3   302  ARG302      0.1729
     14  C        -42.4950  -46.8050   21.9060 C.2   302  ARG302      0.2616
     15  O        -42.5720  -47.8430   22.5740 O.2   302  ARG302     -0.2715
     16  CB       -40.6530  -46.8300   20.2080 C.3   302  ARG302      0.0348
     17  CG       -39.9020  -45.9450   21.1870 C.3   302  ARG302      0.0492
     18  CD       -38.5340  -45.5680   20.6460 C.3   302  ARG302      0.2205
     19  NE       -38.6220  -44.3380   19.8650 N.pl3 302  ARG302     -0.0865
     20  CZ       -38.0800  -43.1810   20.2300 C.cat 302  ARG302      0.5346
     21  NH1      -37.3970  -43.0910   21.3600 N.pl3 302  ARG302      0.1354
     22  NH2      -38.2450  -42.1080   19.4790 N.pl3 302  ARG302      0.1354
     23  N        -42.6960  -45.5980   22.4310 N.am  303  TYR303     -0.1960
     24  CA       -42.9810  -45.4410   23.8520 C.3   303  TYR303      0.1771
     25  C        -44.2980  -46.0360   24.3400 C.2   303  TYR303      0.2619
     26  O        -44.6160  -45.9800   25.5310 O.2   303  TYR303     -0.2715
     27  CB       -42.8650  -43.9690   24.2400 C.3   303  TYR303      0.0574
     28  CG       -41.4240  -43.5140   24.2660 C.ar  303  TYR303     -0.0198
     29  CD1      -40.9020  -42.7140   23.2510 C.ar  303  TYR303     -0.0009
     30  CD2      -40.5530  -43.9560   25.2770 C.ar  303  TYR303     -0.0009
     31  CE1      -39.5470  -42.3650   23.2390 C.ar  303  TYR303      0.0417
     32  CE2      -39.1970  -43.6180   25.2720 C.ar  303  TYR303      0.0417
     33  CZ       -38.7010  -42.8250   24.2500 C.ar  303  TYR303      0.1957
     34  OH       -37.3610  -42.5080   24.2300 O.3   303  TYR303     -0.2866
     35  N        -45.0400  -46.6410   23.4190 N.am  304  LEU304     -0.1963
     36  CA       -46.3130  -47.2740   23.7440 C.3   304  LEU304      0.1728
     37  C        -46.1550  -48.7930   23.9310 C.2   304  LEU304      0.2617
     38  O        -47.1270  -49.5350   23.8140 O.2   304  LEU304     -0.2715
     39  CB       -47.3250  -46.9990   22.6300 C.3   304  LEU304      0.0311
     40  CG       -47.6000  -45.5340   22.2890 C.3   304  LEU304      0.0022
     41  CD1      -48.3800  -45.4650   20.9890 C.3   304  LEU304      0.0001
     42  CD2      -48.3550  -44.8620   23.4220 C.3   304  LEU304      0.0001
     43  N        -44.9350  -49.2480   24.2120 N.am  305  GLY305     -0.1917
     44  CA       -44.6960  -50.6720   24.4140 C.3   305  GLY305      0.2285
     45  C        -43.2570  -50.9910   24.8010 C.2   305  GLY305      0.3865
     46  O        -42.7460  -52.0940   24.4490 O.co2 305  GLY305     -0.2437
     47  OXT      -42.6360  -50.1540   25.4900 O.co2 305  GLY305     -0.2437
@<TRIPOS>BOND
     1     9    11   ar
     2     9     7   ar
     3    11    10   ar
     4     7     6   ar
     5    10     8   ar
     6     1     2    1
     7     6     8   ar
     8     6     5    1
     9     2     5    1
    10     2     3    1
    11    22    20    1
    12    12     3   am
    13    12    13    1
    14     3     4    2
    15    19    20    2
    16    19    18    1
    17    16    13    1
    18    16    17    1
    19    20    21    1
    20    13    14    1
    21    18    17    1
    22    41    40    1
    23    14    23   am
    24    14    15    2
    25    40    39    1
    26    40    42    1
    27    23    24    1
    28    39    36    1
    29    31    29   ar
    30    31    33   ar
    31    29    28   ar
    32    35    36    1
    33    35    25   am
    34    36    37    1
    35    38    37    2
    36    24    27    1
    37    24    25    1
    38    37    43   am
    39    43    44    1
    40    34    33    1
    41    27    28    1
    42    33    32   ar
    43    28    30   ar
    44    25    26    2
    45    44    45    1
    46    46    45   ar
    47    45    47   ar
    48    32    30   ar
