@<TRIPOS>MOLECULE
2z3m_PHE_A_1.pdb
 11 11 0 0 0
SMALL
GASTEIGER

@<TRIPOS>ATOM
      1  N         35.0460   56.6730    8.9520 N.3   302  PHE302     -0.1241
      2  CA        35.4400   55.2810    9.1180 C.3   302  PHE302      0.1605
      3  C         36.8450   55.2120    9.6990 C.2   302  PHE302      0.2264
      4  O         37.8420   55.4560    9.0170 O.2   302  PHE302     -0.2867
      5  CB        35.3930   54.5570    7.7730 C.3   302  PHE302      0.0534
      6  CG        35.5250   53.0640    7.8770 C.ar  302  PHE302     -0.0203
      7  CD1       34.8610   52.3610    8.8750 C.ar  302  PHE302     -0.0042
      8  CD2       36.2670   52.3570    6.9400 C.ar  302  PHE302     -0.0042
      9  CE1       34.9290   50.9750    8.9370 C.ar  302  PHE302     -0.0003
     10  CE2       36.3420   50.9730    6.9900 C.ar  302  PHE302     -0.0003
     11  CZ        35.6700   50.2780    7.9920 C.ar  302  PHE302     -0.0000
@<TRIPOS>BOND
     1     8    10   ar
     2     8     6   ar
     3    10    11   ar
     4     5     6    1
     5     5     2    1
     6     6     7   ar
     7    11     9   ar
     8     7     9   ar
     9     1     2    1
    10     4     3    2
    11     2     3    1
