@<TRIPOS>MOLECULE
2z3m_3D1_A_1.pdb
 18 20 0 0 0
SMALL
GASTEIGER

@<TRIPOS>ATOM
      1  O5'       39.2600   54.3860   13.7680 O.3   301  3D1301     -0.2176
      2  C5'       38.8120   55.6840   13.3650 C.3   301  3D1301      0.2142
      3  C4'       37.3110   55.6610   13.2110 C.3   301  3D1301      0.1824
      4  O4'       36.7100   56.6720   14.0510 O.3   301  3D1301     -0.3154
      5  C1'       35.5070   57.1370   13.4320 C.3   301  3D1301      0.2874
      6  N9        35.6130   58.5820   13.2470 N.pl3 301  3D1301     -0.1460
      7  C4        34.6940   59.3570   12.5810 C.2   301  3D1301      0.3518
      8  N3        33.5650   58.9440   11.9780 N.2   301  3D1301     -0.0055
      9  C2        32.9170   59.9760   11.4370 C.3   301  3D1301      0.5254
     10  N1        33.2410   61.2750   11.4370 N.2   301  3D1301      0.0021
     11  C6        34.3790   61.6580   12.0580 C.2   301  3D1301      0.4393
     12  N6        34.6950   62.9570   12.0730 N.pl3 301  3D1301      0.2180
     13  C5        35.1650   60.6560   12.6620 C.2   301  3D1301      0.2526
     14  N7        36.3690   60.6980   13.3540 N.2   301  3D1301     -0.2095
     15  C8        36.5910   59.4450   13.6770 C.3   301  3D1301      0.3377
     16  C2'       35.3660   56.3930   12.1110 C.3   301  3D1301      0.1151
     17  C3'       36.7980   55.9940   11.8210 C.3   301  3D1301      0.1884
     18  O3'       36.8550   54.8960   10.9750 O.3   301  3D1301     -0.2202
@<TRIPOS>BOND
     1    18    17    1
     2    10     9    1
     3    10    11    2
     4     9     8    1
     5    17    16    1
     6    17     3    1
     7     8     7    2
     8    11    12    1
     9    11    13    1
    10    16     5    1
    11     7    13    1
    12     7     6    1
    13    13    14    2
    14     3     2    1
    15     3     4    1
    16     6     5    1
    17     6    15    1
    18    14    15    1
    19     2     1    1
    20     5     4    1
