@<TRIPOS>MOLECULE
2z3n_III_C_1.pdb
 47 48 0 0 0
SMALL
GASTEIGER

@<TRIPOS>ATOM
      1  N         21.9890    7.8790    7.7970 N.3   301  PHE301     -0.1227
      2  CA        22.6800    8.1880    9.0830 C.3   301  PHE301      0.1736
      3  C         22.4940    7.0320   10.0550 C.2   301  PHE301      0.2595
      4  O         21.4630    6.9420   10.7170 O.2   301  PHE301     -0.2718
      5  CB        22.0970    9.4670    9.6830 C.3   301  PHE301      0.0547
      6  CG        22.2870   10.6750    8.8200 C.ar  301  PHE301     -0.0202
      7  CD1       21.5460   10.8410    7.6560 C.ar  301  PHE301     -0.0042
      8  CD2       23.2300   11.6390    9.1570 C.ar  301  PHE301     -0.0042
      9  CE1       21.7470   11.9570    6.8380 C.ar  301  PHE301     -0.0003
     10  CE2       23.4390   12.7550    8.3500 C.ar  301  PHE301     -0.0003
     11  CZ        22.6980   12.9150    7.1880 C.ar  301  PHE301     -0.0000
     12  N         23.4950    6.1610   10.1550 N.am  302  ARG302     -0.1966
     13  CA        23.4060    4.9870   11.0330 C.3   302  ARG302      0.1729
     14  C         23.1430    5.2640   12.5110 C.2   302  ARG302      0.2616
     15  O         22.5400    4.4430   13.1990 O.2   302  ARG302     -0.2715
     16  CB        24.6730    4.1320   10.9360 C.3   302  ARG302      0.0348
     17  CG        25.8490    4.6960   11.7130 C.3   302  ARG302      0.0492
     18  CD        27.0640    3.8040   11.5820 C.3   302  ARG302      0.2205
     19  NE        28.3110    4.5330   11.7990 N.pl3 302  ARG302     -0.0865
     20  CZ        28.7170    5.5560   11.0480 C.cat 302  ARG302      0.5346
     21  NH1       29.8650    6.1580   11.3140 N.pl3 302  ARG302      0.1354
     22  NH2       27.9730    5.9800   10.0320 N.pl3 302  ARG302      0.1354
     23  N         23.6070    6.4010   13.0130 N.am  303  TYR303     -0.1960
     24  CA        23.4100    6.7150   14.4250 C.3   303  TYR303      0.1771
     25  C         22.0300    7.3060   14.7090 C.2   303  TYR303      0.2619
     26  O         21.8920    8.2470   15.4950 O.2   303  TYR303     -0.2715
     27  CB        24.5100    7.6660   14.9180 C.3   303  TYR303      0.0574
     28  CG        25.8950    7.0380   15.0040 C.ar  303  TYR303     -0.0198
     29  CD1       26.1530    5.9690   15.8670 C.ar  303  TYR303     -0.0009
     30  CD2       26.9560    7.5370   14.2470 C.ar  303  TYR303     -0.0009
     31  CE1       27.4360    5.4190   15.9760 C.ar  303  TYR303      0.0417
     32  CE2       28.2410    6.9920   14.3520 C.ar  303  TYR303      0.0417
     33  CZ        28.4710    5.9390   15.2190 C.ar  303  TYR303      0.1957
     34  OH        29.7410    5.4300   15.3430 O.3   303  TYR303     -0.2866
     35  N         21.0140    6.7400   14.0570 N.am  304  LEU304     -0.1963
     36  CA        19.6220    7.1640   14.2280 C.3   304  LEU304      0.1728
     37  C         18.7280    5.9420   14.4410 C.2   304  LEU304      0.2617
     38  O         17.4980    6.0540   14.5240 O.2   304  LEU304     -0.2715
     39  CB        19.1300    7.9440   13.0020 C.3   304  LEU304      0.0311
     40  CG        19.6780    9.3540   12.7810 C.3   304  LEU304      0.0022
     41  CD1       18.9330    9.9920   11.6250 C.3   304  LEU304      0.0001
     42  CD2       19.5070   10.1880   14.0400 C.3   304  LEU304      0.0001
     43  N         19.3610    4.7750   14.5240 N.am  305  GLY305     -0.1917
     44  CA        18.6340    3.5350   14.7290 C.3   305  GLY305      0.2285
     45  C         19.5000    2.4750   15.3890 C.2   305  GLY305      0.3865
     46  O         20.6820    2.7730   15.7110 O.co2 305  GLY305     -0.2437
     47  OXT       18.9960    1.3440   15.5830 O.co2 305  GLY305     -0.2437
@<TRIPOS>BOND
     1     9    11   ar
     2     9     7   ar
     3    11    10   ar
     4     7     6   ar
     5     1     2    1
     6    10     8   ar
     7     6     8   ar
     8     6     5    1
     9     2     5    1
    10     2     3    1
    11    22    20    1
    12     3    12   am
    13     3     4    2
    14    12    13    1
    15    16    13    1
    16    16    17    1
    17    13    14    1
    18    20    21    1
    19    20    19    2
    20    18    17    1
    21    18    19    1
    22    41    40    1
    23    14    23   am
    24    14    15    2
    25    40    39    1
    26    40    42    1
    27    39    36    1
    28    23    24    1
    29    35    36    1
    30    35    25   am
    31    36    37    1
    32    30    32   ar
    33    30    28   ar
    34    32    33   ar
    35    24    25    1
    36    24    27    1
    37    37    38    2
    38    37    43   am
    39    43    44    1
    40    25    26    2
    41    44    45    1
    42    27    28    1
    43    28    29   ar
    44    33    34    1
    45    33    31   ar
    46    45    47   ar
    47    45    46   ar
    48    29    31   ar
