@<TRIPOS>MOLECULE
2z3o_PHE_A_1.pdb
 12 12 0 0 0
SMALL
GASTEIGER

@<TRIPOS>ATOM
      1  N         23.2820   -7.1680   -9.7260 N.3   301  PHE301     -0.1205
      2  CA        22.5250   -8.4400   -9.7070 C.3   301  PHE301      0.1986
      3  C         21.2640   -8.4210  -10.5770 C.2   301  PHE301      0.3822
      4  O         20.2320   -7.8950  -10.1090 O.co2 301  PHE301     -0.2440
      5  CB        22.4790   -8.9840   -8.2810 C.3   301  PHE301      0.0569
      6  CG        22.3720  -10.4830   -8.1980 C.ar  301  PHE301     -0.0202
      7  CD1       22.8570  -11.3210   -9.2090 C.ar  301  PHE301     -0.0042
      8  CD2       21.7960  -11.0590   -7.0710 C.ar  301  PHE301     -0.0042
      9  CE1       22.7720  -12.7020   -9.0960 C.ar  301  PHE301     -0.0003
     10  CE2       21.7060  -12.4320   -6.9470 C.ar  301  PHE301     -0.0003
     11  CZ        22.1920  -13.2590   -7.9560 C.ar  301  PHE301     -0.0000
     12  OXT       21.3330   -8.9340  -11.7130 O.co2 301  PHE301     -0.2440
@<TRIPOS>BOND
     1    12     3   ar
     2     3     4   ar
     3     3     2    1
     4     1     2    1
     5     2     5    1
     6     7     9   ar
     7     7     6   ar
     8     9    11   ar
     9     5     6    1
    10     6     8   ar
    11    11    10   ar
    12     8    10   ar
