@<TRIPOS>MOLECULE
2z3t_HEM_A_1.pdb
 43 50 0 0 0
SMALL
GASTEIGER

@<TRIPOS>ATOM
      1 FE        -33.7140    5.8260   53.1800 Fe    500  HEM500      0.0000
      2  CHA      -36.4150    5.3020   55.2440 C.2   500  HEM500      0.0000
      3  CHB      -33.5610    2.3500   52.6790 C.2   500  HEM500      0.0000
      4  CHC      -31.0600    6.2970   51.0690 C.2   500  HEM500      0.0000
      5  CHD      -33.8710    9.2710   53.7170 C.2   500  HEM500      0.0000
      6  NA       -34.7980    4.1010   53.8470 N.ar  500  HEM500      0.0000
      7  C1A      -35.8780    4.1200   54.6880 C.ar  500  HEM500      0.0000
      8  C2A      -36.3870    2.7600   54.9300 C.ar  500  HEM500      0.0000
      9  C3A      -35.5680    1.9360   54.2080 C.ar  500  HEM500      0.0000
     10  C4A      -34.5870    2.7870   53.5380 C.ar  500  HEM500      0.0000
     11  CMA      -35.6550    0.4010   54.1040 C.3   500  HEM500      0.0000
     12  CAA      -37.5800    2.3540   55.8040 C.3   500  HEM500      0.0000
     13  CBA      -37.4310    2.6130   57.3190 C.3   500  HEM500      0.0000
     14  CGA      -38.6710    2.1570   58.0930 C.2   500  HEM500      0.0000
     15  O1A      -39.3330    1.1500   57.6720 O.co2 500  HEM500      0.0000
     16  O2A      -38.9820    2.7980   59.1210 O.co2 500  HEM500      0.0000
     17  NB       -32.5510    4.5460   52.0900 N.2   500  HEM500      0.0000
     18  C1B      -32.6140    3.1730   52.0030 C.2   500  HEM500      0.0000
     19  C2B      -31.5620    2.6850   51.1030 C.2   500  HEM500      0.0000
     20  C3B      -30.8410    3.8020   50.6270 C.2   500  HEM500      0.0000
     21  C4B      -31.4740    4.9510   51.2580 C.2   500  HEM500      0.0000
     22  CMB      -31.3190    1.2050   50.7610 C.3   500  HEM500      0.0000
     23  CAB      -29.7180    3.7940   49.7240 C.3   500  HEM500      0.0000
     24  CBB      -29.6420    3.2180   48.4390 C.3   500  HEM500      0.0000
     25  NC       -32.6560    7.5070   52.5050 N.ar  500  HEM500      0.0000
     26  C1C      -31.5990    7.4710   51.6440 C.ar  500  HEM500      0.0000
     27  C2C      -31.0930    8.8090   51.4000 C.ar  500  HEM500      0.0000
     28  C3C      -31.8620    9.6890   52.1430 C.ar  500  HEM500      0.0000
     29  C4C      -32.8470    8.8430   52.8320 C.ar  500  HEM500      0.0000
     30  CMC      -29.9050    9.1500   50.4810 C.3   500  HEM500      0.0000
     31  CAC      -31.7110   11.0980   52.2140 C.2   500  HEM500      0.0000
     32  CBC      -31.9540   11.9840   51.1940 C.2   500  HEM500      0.0000
     33  ND       -34.8950    7.0440   54.2580 N.2   500  HEM500      0.0000
     34  C1D      -34.8260    8.4250   54.3760 C.2   500  HEM500      0.0000
     35  C2D      -35.8670    8.8970   55.2620 C.2   500  HEM500      0.0000
     36  C3D      -36.5940    7.8000   55.6950 C.2   500  HEM500      0.0000
     37  C4D      -35.9730    6.6400   55.0590 C.2   500  HEM500      0.0000
     38  CMD      -36.1180   10.3530   55.6440 C.3   500  HEM500      0.0000
     39  CAD      -37.8150    7.8060   56.6530 C.3   500  HEM500      0.0000
     40  CBD      -39.1150    8.1820   55.9310 C.3   500  HEM500      0.0000
     41  CGD      -40.4300    7.9710   56.7030 C.2   500  HEM500      0.0000
     42  O1D      -41.4620    8.2680   56.1260 O.co2 500  HEM500      0.0000
     43  O2D      -40.4320    7.5150   57.8620 O.co2 500  HEM500      0.0000
@<TRIPOS>BOND
     1    24    23    1
     2    23    20    1
     3    30    27    1
     4    20    19    2
     5    20    21    1
     6    22    19    1
     7     4    21    2
     8     4    26    1
     9    19    18    1
    10    32    31    2
    11    21    17    1
    12    27    26   ar
    13    27    28   ar
    14    26    25   ar
    15    18    17    2
    16    18     3    1
    17    17     1    1
    18    28    31    1
    19    28    29   ar
    20    25    29   ar
    21    25     1    1
    22     3    10    2
    23    29     5    1
    24     1     6    1
    25     1    33    1
    26    10     6   ar
    27    10     9   ar
    28     5    34    2
    29     6     7   ar
    30    11     9    1
    31     9     8   ar
    32    33    34    1
    33    33    37    2
    34    34    35    1
    35     7     8   ar
    36     7     2    2
    37     8    12    1
    38    37     2    1
    39    37    36    1
    40    35    38    1
    41    35    36    2
    42    36    39    1
    43    12    13    1
    44    40    39    1
    45    40    41    1
    46    42    41   ar
    47    41    43   ar
    48    13    14    1
    49    15    14   ar
    50    14    16   ar
