@<TRIPOS>MOLECULE
2z3u_HEM_A_1.pdb
 43 50 0 0 0
SMALL
GASTEIGER

@<TRIPOS>ATOM
      1 FE        -11.7260   -3.2100  -15.4270 Fe    500  HEM500      0.0000
      2  CHA      -13.8500   -3.0500  -18.0810 C.2   500  HEM500      0.0000
      3  CHB      -11.2320    0.2080  -15.6800 C.2   500  HEM500      0.0000
      4  CHC       -9.2490   -3.4670  -13.0450 C.2   500  HEM500      0.0000
      5  CHD      -11.8380   -6.7430  -15.4800 C.2   500  HEM500      0.0000
      6  NA       -12.3960   -1.6760  -16.6930 N.ar  500  HEM500      0.0000
      7  C1A      -13.3490   -1.8130  -17.6530 C.ar  500  HEM500      0.0000
      8  C2A      -13.7680   -0.5080  -18.1750 C.ar  500  HEM500      0.0000
      9  C3A      -13.0170    0.4060  -17.4960 C.ar  500  HEM500      0.0000
     10  C4A      -12.1640   -0.3400  -16.5730 C.ar  500  HEM500      0.0000
     11  CMA      -13.0600    1.9300  -17.6640 C.3   500  HEM500      0.0000
     12  CAA      -14.8230   -0.2230  -19.2510 C.3   500  HEM500      0.0000
     13  CBA      -14.2970   -0.0620  -20.6850 C.3   500  HEM500      0.0000
     14  CGA      -15.4310    0.2530  -21.6940 C.2   500  HEM500      0.0000
     15  O1A      -16.5660    0.6440  -21.2710 O.co2 500  HEM500      0.0000
     16  O2A      -15.1770    0.1250  -22.9100 O.co2 500  HEM500      0.0000
     17  NB       -10.4650   -1.9010  -14.5960 N.2   500  HEM500      0.0000
     18  C1B      -10.4340   -0.5170  -14.7660 C.2   500  HEM500      0.0000
     19  C2B       -9.4770    0.0890  -13.8610 C.2   500  HEM500      0.0000
     20  C3B       -8.8980   -0.9420  -13.0960 C.2   500  HEM500      0.0000
     21  C4B       -9.5280   -2.1750  -13.5620 C.2   500  HEM500      0.0000
     22  CMB       -9.1740    1.6130  -13.7740 C.3   500  HEM500      0.0000
     23  CAB       -7.8940   -0.7810  -12.0700 C.3   500  HEM500      0.0000
     24  CBB       -7.9910    0.0070  -10.8960 C.3   500  HEM500      0.0000
     25  NC       -10.6810   -4.8740  -14.4380 N.ar  500  HEM500      0.0000
     26  C1C       -9.7880   -4.7100  -13.4370 C.ar  500  HEM500      0.0000
     27  C2C       -9.4550   -5.9930  -12.8180 C.ar  500  HEM500      0.0000
     28  C3C      -10.1800   -6.9630  -13.4850 C.ar  500  HEM500      0.0000
     29  C4C      -10.9470   -6.2150  -14.5200 C.ar  500  HEM500      0.0000
     30  CMC       -8.4770   -6.2020  -11.6400 C.3   500  HEM500      0.0000
     31  CAC      -10.1630   -8.3530  -13.2030 C.3   500  HEM500      0.0000
     32  CBC      -10.0550   -9.3700  -14.1330 C.3   500  HEM500      0.0000
     33  ND       -12.5940   -4.6120  -16.5650 N.2   500  HEM500      0.0000
     34  C1D      -12.5940   -5.9980  -16.4400 C.2   500  HEM500      0.0000
     35  C2D      -13.4890   -6.5860  -17.4150 C.2   500  HEM500      0.0000
     36  C3D      -14.0610   -5.5660  -18.1350 C.2   500  HEM500      0.0000
     37  C4D      -13.5020   -4.3360  -17.6030 C.2   500  HEM500      0.0000
     38  CMD      -13.7580   -8.0820  -17.6020 C.3   500  HEM500      0.0000
     39  CAD      -15.0890   -5.6980  -19.2700 C.3   500  HEM500      0.0000
     40  CBD      -16.5150   -5.9090  -18.7610 C.3   500  HEM500      0.0000
     41  CGD      -17.6310   -5.6920  -19.8000 C.2   500  HEM500      0.0000
     42  O1D      -18.7880   -5.8570  -19.4240 O.co2 500  HEM500      0.0000
     43  O2D      -17.3500   -5.3610  -20.9750 O.co2 500  HEM500      0.0000
@<TRIPOS>BOND
     1    16    14   ar
     2    14    15   ar
     3    14    13    1
     4    43    41   ar
     5    13    12    1
     6    41    42   ar
     7    41    40    1
     8    39    40    1
     9    39    36    1
    10    12     8    1
    11     8     7   ar
    12     8     9   ar
    13    36    37    1
    14    36    35    2
    15     2     7    2
    16     2    37    1
    17    11     9    1
    18     7     6   ar
    19    37    33    2
    20    38    35    1
    21     9    10   ar
    22    35    34    1
    23     6    10   ar
    24     6     1    1
    25    10     3    2
    26    33    34    1
    27    33     1    1
    28    34     5    2
    29     3    18    1
    30     5    29    1
    31     1    17    1
    32     1    25    1
    33    18    17    2
    34    18    19    1
    35    17    21    1
    36    29    25   ar
    37    29    28   ar
    38    25    26   ar
    39    32    31    1
    40    19    22    1
    41    19    20    2
    42    21    20    1
    43    21     4    2
    44    28    31    1
    45    28    27   ar
    46    26     4    1
    47    26    27   ar
    48    20    23    1
    49    27    30    1
    50    23    24    1
