@<TRIPOS>MOLECULE
2z3u_CRR_A_1.pdb
 29 33 0 0 0
SMALL
GASTEIGER

@<TRIPOS>ATOM
      1  C5        -7.5120   -2.6540  -26.8450 C.2   501  CRR501      0.0153
      2  C4        -8.0390   -2.9520  -28.0970 C.2   501  CRR501     -0.0199
      3  C3        -7.3770   -3.8530  -28.9240 C.3   501  CRR501      0.0521
      4  C2        -6.1950   -4.4510  -28.4990 C.2   501  CRR501     -0.0199
      5  C1        -5.6690   -4.1480  -27.2470 C.2   501  CRR501      0.0149
      6  C20       -6.3290   -3.2480  -26.4200 C.2   501  CRR501      0.0807
      7  N3        -6.0740   -2.8030  -25.1910 N.2   501  CRR501     -0.2439
      8  C19       -7.0370   -1.9650  -24.8100 C.2   501  CRR501      0.0989
      9  C6        -7.9300   -1.8560  -25.7900 C.2   501  CRR501      0.0230
     10  C7        -9.1240   -1.1380  -25.7930 C.2   501  CRR501      0.0405
     11  C8        -9.5070   -0.1190  -26.6560 C.2   501  CRR501      0.2110
     12  C36       -8.7050    0.4360  -27.8340 C.2   501  CRR501      0.4168
     13  O39       -7.5670   -0.0300  -28.0550 O.co2 501  CRR501     -0.2377
     14  O40       -9.2370    1.3430  -28.5110 O.co2 501  CRR501     -0.2377
     15  N1       -10.6950    0.3580  -26.2860 N.2   501  CRR501     -0.3884
     16  C9       -11.0990   -0.3110  -25.2080 C.2   501  CRR501      0.2110
     17  C35      -12.4510   -0.0720  -24.5310 C.2   501  CRR501      0.4168
     18  O37      -13.1570    0.8560  -24.9850 O.co2 501  CRR501     -0.2377
     19  O38      -12.7880   -0.8030  -23.5760 O.co2 501  CRR501     -0.2377
     20  C10      -10.1400   -1.2560  -24.8560 C.2   501  CRR501      0.0405
     21  C11      -10.1830   -2.1760  -23.8140 C.2   501  CRR501      0.0230
     22  C12      -10.3590   -1.8260  -22.4800 C.2   501  CRR501      0.0153
     23  C13      -10.5670   -0.6190  -21.8240 C.2   501  CRR501     -0.0199
     24  C14      -10.6580   -0.6010  -20.4360 C.3   501  CRR501      0.0521
     25  C15      -10.5430   -1.7840  -19.7150 C.2   501  CRR501     -0.0199
     26  C16      -10.3360   -2.9910  -20.3730 C.2   501  CRR501      0.0149
     27  C17      -10.2430   -3.0080  -21.7600 C.2   501  CRR501      0.0807
     28  N2       -10.0160   -3.9890  -22.6300 N.2   501  CRR501     -0.2439
     29  C18       -9.9780   -3.4900  -23.8640 C.2   501  CRR501      0.0989
@<TRIPOS>BOND
     1     3     4    1
     2     3     2    1
     3    14    12   ar
     4     4     5    2
     5     2     1    2
     6    13    12   ar
     7    12    11    1
     8     5     6    1
     9     1     6    1
    10     1     9    1
    11    11    15    2
    12    11    10    1
    13     6     7    2
    14    15    16    2
    15    10     9    1
    16    10    20    2
    17     9     8    2
    18    16    20    1
    19    16    17    1
    20     7     8    1
    21    18    17   ar
    22    20    21    1
    23    17    19   ar
    24    29    21    2
    25    29    28    1
    26    21    22    1
    27    28    27    2
    28    22    23    2
    29    22    27    1
    30    23    24    1
    31    27    26    1
    32    24    25    1
    33    26    25    2
