@<TRIPOS>MOLECULE
2z3z_AIO_A_1.pdb
 21 21 0 0 0
SMALL
GASTEIGER

@<TRIPOS>ATOM
      1  O2        -7.1940   43.7210   67.3900 O.2   801  AIO801      0.0000
      2  C9        -7.3780   43.5720   66.1810 C.2   801  AIO801      0.0000
      3  C4        -6.8320   44.6160   65.2310 C.3   801  AIO801      0.0000
      4  C5        -5.2900   44.6080   65.2470 C.3   801  AIO801      0.0000
      5  C7        -4.6740   45.6040   64.2590 C.3   801  AIO801      0.0000
      6  C8        -5.0120   45.3300   62.8090 C.3   801  AIO801      0.0000
      7  C6        -4.6790   43.2350   64.9730 C.3   801  AIO801      0.0000
      8  N2        -7.2590   45.9490   65.6600 N.am  801  AIO801      0.0000
      9  C3        -8.5100   46.3600   65.4750 C.2   801  AIO801      0.0000
     10  O1        -9.3840   45.6240   65.0470 O.2   801  AIO801      0.0000
     11  C1        -8.8420   47.7850   65.8840 C.3   801  AIO801      0.0000
     12  C2        -9.1670   47.7540   67.3790 C.3   801  AIO801      0.0000
     13  N1       -10.0040   48.2740   65.1590 N.3   801  AIO801      0.0000
     14  N3        -8.0230   42.5160   65.7130 N.am  801  AIO801      0.0000
     15  C13       -8.3530   42.1710   64.3180 C.3   801  AIO801      0.0000
     16  C12       -9.0640   40.8390   64.3950 C.3   801  AIO801      0.0000
     17  C11       -9.5360   40.6930   65.8400 C.3   801  AIO801      0.0000
     18  C10       -8.5310   41.5230   66.6580 C.3   801  AIO801      0.0000
     19  B         -7.2510   40.6780   67.1640 B     801  AIO801      0.0000
     20  O4        -6.4090   41.2480   68.3070 O.3   801  AIO801      0.0000
     21  O3        -6.4560   39.8670   66.1280 O.3   801  AIO801      0.0000
@<TRIPOS>BOND
     1     6     5    1
     2     5     4    1
     3    15    16    1
     4    15    14    1
     5    16    17    1
     6     7     4    1
     7    10     9    2
     8    13    11    1
     9     3     4    1
    10     3     8    1
    11     3     2    1
    12     9     8   am
    13     9    11    1
    14    14     2   am
    15    14    18    1
    16    17    18    1
    17    11    12    1
    18    21    19    1
    19     2     1    2
    20    18    19    1
    21    19    20    1
