@<TRIPOS>MOLECULE
2z47_HEM_A_1.pdb
 43 50 0 0 0
SMALL
GASTEIGER

@<TRIPOS>ATOM
      1 FE         14.7480    4.7660   12.1640 Fe    1004  HEM1004     0.0000
      2  CHA       14.1930    7.3640   10.0800 C.2   1004  HEM1004     0.0000
      3  CHB       12.6240    6.0880   14.4120 C.2   1004  HEM1004     0.0000
      4  CHC       15.4510    2.2190   14.3250 C.2   1004  HEM1004     0.0000
      5  CHD       16.4810    3.1660    9.7210 C.2   1004  HEM1004     0.0000
      6  NA        13.6700    6.5660   12.2960 N.2   1004  HEM1004     0.0000
      7  C1A       13.6050    7.4940   11.3450 C.2   1004  HEM1004     0.0000
      8  C2A       12.8620    8.5680   11.8020 C.2   1004  HEM1004     0.0000
      9  C3A       12.3350    8.1580   13.0290 C.2   1004  HEM1004     0.0000
     10  C4A       12.8710    6.9040   13.2870 C.2   1004  HEM1004     0.0000
     11  CMA       11.3540    8.9200   13.9090 C.3   1004  HEM1004     0.0000
     12  CAA       12.6320    9.9120   11.1310 C.3   1004  HEM1004     0.0000
     13  CBA       12.9690   11.0790   12.0530 C.3   1004  HEM1004     0.0000
     14  CGA       12.1850   12.3340   11.7250 C.2   1004  HEM1004     0.0000
     15  O1A       12.6790   13.1750   10.9470 O.co2 1004  HEM1004     0.0000
     16  O2A       11.0580   12.4710   12.2410 O.co2 1004  HEM1004     0.0000
     17  NB        14.1160    4.2090   14.0990 N.ar  1004  HEM1004     0.0000
     18  C1B       13.1680    4.8400   14.7780 C.ar  1004  HEM1004     0.0000
     19  C2B       12.7940    4.0940   15.8820 C.ar  1004  HEM1004     0.0000
     20  C3B       13.6620    3.0040   15.9040 C.ar  1004  HEM1004     0.0000
     21  C4B       14.4580    3.1120   14.7710 C.ar  1004  HEM1004     0.0000
     22  CMB       11.6570    4.4200   16.8430 C.3   1004  HEM1004     0.0000
     23  CAB       13.7020    1.9630   16.8330 C.3   1004  HEM1004     0.0000
     24  CBB       12.5810    1.0270   16.9080 C.3   1004  HEM1004     0.0000
     25  NC        15.8580    2.9830   12.0530 N.2   1004  HEM1004     0.0000
     26  C1C       16.0990    2.1630   13.0770 C.2   1004  HEM1004     0.0000
     27  C2C       17.0670    1.2500   12.7170 C.2   1004  HEM1004     0.0000
     28  C3C       17.3680    1.5120   11.3870 C.2   1004  HEM1004     0.0000
     29  C4C       16.5590    2.5740   10.9990 C.2   1004  HEM1004     0.0000
     30  CMC       17.6670    0.1940   13.6180 C.3   1004  HEM1004     0.0000
     31  CAC       18.2780    0.8390   10.5660 C.3   1004  HEM1004     0.0000
     32  CBC       18.3180   -0.6090   10.5000 C.3   1004  HEM1004     0.0000
     33  ND        15.2210    5.1760   10.1700 N.ar  1004  HEM1004     0.0000
     34  C1D       15.8650    4.3640    9.3290 C.ar  1004  HEM1004     0.0000
     35  C2D       15.8360    4.9010    8.0510 C.ar  1004  HEM1004     0.0000
     36  C3D       15.2720    6.1570    8.2070 C.ar  1004  HEM1004     0.0000
     37  C4D       14.8790    6.2690    9.5190 C.ar  1004  HEM1004     0.0000
     38  CMD       16.3230    4.2340    6.7660 C.3   1004  HEM1004     0.0000
     39  CAD       15.0840    7.2740    7.2040 C.3   1004  HEM1004     0.0000
     40  CBD       16.3560    8.0570    6.9610 C.3   1004  HEM1004     0.0000
     41  CGD       16.1020    9.2920    6.1260 C.2   1004  HEM1004     0.0000
     42  O1D       15.6440    9.1320    4.9780 O.co2 1004  HEM1004     0.0000
     43  O2D       16.3530   10.4110    6.6230 O.co2 1004  HEM1004     0.0000
@<TRIPOS>BOND
     1    42    41   ar
     2    41    43   ar
     3    41    40    1
     4    38    35    1
     5    40    39    1
     6    39    36    1
     7    35    36   ar
     8    35    34   ar
     9    36    37   ar
    10    34     5    2
    11    34    33   ar
    12    37     2    2
    13    37    33   ar
    14     5    29    1
    15     2     7    1
    16    33     1    1
    17    32    31    1
    18    31    28    1
    19    15    14   ar
    20    29    28    1
    21    29    25    2
    22    12     8    1
    23    12    13    1
    24     7     8    1
    25     7     6    2
    26    28    27    2
    27    14    13    1
    28    14    16   ar
    29     8     9    2
    30    25     1    1
    31    25    26    1
    32     1     6    1
    33     1    17    1
    34     6    10    1
    35    27    26    1
    36    27    30    1
    37     9    10    1
    38     9    11    1
    39    26     4    2
    40    10     3    2
    41    17    21   ar
    42    17    18   ar
    43     4    21    1
    44     3    18    1
    45    21    20   ar
    46    18    19   ar
    47    19    20   ar
    48    19    22    1
    49    20    23    1
    50    23    24    1
