@<TRIPOS>MOLECULE
2z48_A2G_A_1.pdb
 15 15 0 0 0
SMALL
GASTEIGER

@<TRIPOS>ATOM
      1  C1        16.6180    9.2910    8.9060 C.3   1001  A2G1001     0.2917
      2  C2        15.4050    8.4410    8.5310 C.3   1001  A2G1001     0.1871
      3  C3        15.0760    8.6020    7.0400 C.3   1001  A2G1001     0.2095
      4  C4        15.0250   10.0810    6.6180 C.3   1001  A2G1001     0.2136
      5  C5        16.2610   10.8570    7.0900 C.3   1001  A2G1001     0.1835
      6  C6        16.1060   12.3510    6.8220 C.3   1001  A2G1001     0.2142
      7  C7        15.5740    6.4450    9.9480 C.2   1001  A2G1001     0.2421
      8  C8        15.9820    5.0040   10.0470 C.3   1001  A2G1001     0.0964
      9  O         16.4170   10.6500    8.5000 O.3   1001  A2G1001    -0.3242
     10  O1        17.7870    8.7470    8.2820 O.3   1001  A2G1001    -0.1879
     11  O3        13.8120    7.9530    6.8040 O.3   1001  A2G1001    -0.2183
     12  O4        13.8870   10.7050    7.2240 O.3   1001  A2G1001    -0.2176
     13  O6        17.3610   13.0240    6.9720 O.3   1001  A2G1001    -0.2176
     14  O7        15.1030    7.0340   10.9090 O.2   1001  A2G1001    -0.2733
     15  N2        15.7630    7.0370    8.7680 N.am  1001  A2G1001    -0.1991
@<TRIPOS>BOND
     1     4     3    1
     2     4     5    1
     3     4    12    1
     4    11     3    1
     5     6    13    1
     6     6     5    1
     7     3     2    1
     8     5     9    1
     9    10     1    1
    10     9     1    1
    11     2    15    1
    12     2     1    1
    13    15     7   am
    14     7     8    1
    15     7    14    2
