@<TRIPOS>MOLECULE
2z48_NGA_A_1.pdb
 15 15 0 0 0
SMALL
GASTEIGER

@<TRIPOS>ATOM
      1  C1        12.0300   29.0960   -5.8440 C.3   1002  NGA1002     0.2917
      2  C2        11.3030   28.0960   -6.7390 C.3   1002  NGA1002     0.1871
      3  C3         9.8380   27.9860   -6.2910 C.3   1002  NGA1002     0.2095
      4  C4         9.7280   27.6750   -4.7940 C.3   1002  NGA1002     0.2136
      5  C5        10.5700   28.6690   -3.9950 C.3   1002  NGA1002     0.1835
      6  C6        10.5450   28.3730   -2.4940 C.3   1002  NGA1002     0.2142
      7  C7        12.0980   28.1540   -9.0520 C.2   1002  NGA1002     0.2421
      8  C8        11.9560   28.8030  -10.4000 C.3   1002  NGA1002     0.0964
      9  N2        11.2850   28.6300   -8.1070 N.am  1002  NGA1002    -0.1991
     10  O1        13.4170   29.1450   -6.1770 O.3   1002  NGA1002    -0.1879
     11  O3         9.1840   26.9400   -7.0160 O.3   1002  NGA1002    -0.2183
     12  O4        10.2030   26.3520   -4.4910 O.3   1002  NGA1002    -0.2176
     13  O5        11.9150   28.6280   -4.4960 O.3   1002  NGA1002    -0.3242
     14  O6        11.4220   29.3180   -1.8660 O.3   1002  NGA1002    -0.2176
     15  O7        12.9230   27.2650   -8.8310 O.2   1002  NGA1002    -0.2733
@<TRIPOS>BOND
     1     8     7    1
     2     7    15    2
     3     7     9   am
     4     9     2    1
     5    11     3    1
     6     2     3    1
     7     2     1    1
     8     3     4    1
     9    10     1    1
    10     1    13    1
    11     4    12    1
    12     4     5    1
    13    13     5    1
    14     5     6    1
    15     6    14    1
