@<TRIPOS>MOLECULE
2z49_AMG_A_1.pdb
 13 13 0 0 0
SMALL
GASTEIGER

@<TRIPOS>ATOM
      1  C1        19.1690    8.7910   24.0390 C.3   1400  AMG1400     0.2695
      2  C2        17.8670    8.0760   23.6770 C.3   1400  AMG1400     0.2406
      3  C3        17.5410    8.3560   22.2110 C.3   1400  AMG1400     0.2198
      4  C4        17.5560    9.8520   21.8830 C.3   1400  AMG1400     0.2144
      5  C5        18.8340   10.5200   22.3980 C.3   1400  AMG1400     0.1835
      6  C6        18.8710   12.0240   22.2170 C.3   1400  AMG1400     0.2142
      7  C7        21.5310    8.4180   23.8670 C.3   1400  AMG1400     0.1769
      8  O1        20.2390    8.2330   23.2630 O.3   1400  AMG1400    -0.3259
      9  O2        17.9900    6.6630   23.8810 O.3   1400  AMG1400    -0.2149
     10  O3        16.2790    7.7420   21.9210 O.3   1400  AMG1400    -0.2174
     11  O4        16.4060   10.4960   22.4460 O.3   1400  AMG1400    -0.2176
     12  O5        19.0310   10.1990   23.7860 O.3   1400  AMG1400    -0.3256
     13  O6        20.2010   12.4760   22.5220 O.3   1400  AMG1400    -0.2176
@<TRIPOS>BOND
     1     4     3    1
     2     4     5    1
     3     4    11    1
     4    10     3    1
     5     3     2    1
     6     6     5    1
     7     6    13    1
     8     5    12    1
     9     8     7    1
    10     8     1    1
    11     2     9    1
    12     2     1    1
    13    12     1    1
