@<TRIPOS>MOLECULE
2z4b_DC8_A_1.pdb
 23 26 0 0 0
SMALL
GASTEIGER

@<TRIPOS>ATOM
      1  C4        78.2600   40.8340   69.8430 C.ar   80  DC880       0.1350
      2  C6        77.1140   38.7230   70.0700 C.3    80  DC880       0.1885
      3  C8        76.6010   38.8260   68.6060 C.3    80  DC880       0.0542
      4  C10       75.2700   39.6550   68.4640 C.3    80  DC880       0.0708
      5  C15       77.5710   39.6040   67.6790 C.3    80  DC880       0.0348
      6  C17       78.3850   40.6910   68.4310 C.ar   80  DC880       0.0150
      7  C20       75.3940   36.7880   70.6010 C.ar   80  DC880       0.0025
      8  C21       74.5450   36.0760   71.4990 C.ar   80  DC880       0.0418
      9  C22       74.4340   36.4900   72.8470 C.ar   80  DC880       0.1957
     10  C24       75.1660   37.6160   73.3030 C.ar   80  DC880       0.0418
     11  C1        80.0240   42.5650   68.3980 C.ar   80  DC880       0.1956
     12  C2        79.8840   42.7000   69.7970 C.ar   80  DC880       0.0451
     13  C3        79.0180   41.8470   70.5110 C.ar   80  DC880       0.0399
     14  O5        77.4200   40.0300   70.6300 O.3    80  DC880      -0.4751
     15  C11       75.3500   40.4150   67.1180 C.3    80  DC880       0.2644
     16  F12       74.2950   40.0060   66.2830 F      80  DC880      -0.2043
     17  F13       75.2520   41.8020   67.3130 F      80  DC880      -0.2043
     18  C14       76.7040   40.1040   66.4950 C.3    80  DC880       0.0711
     19  C18       79.2840   41.5630   67.7070 C.ar   80  DC880       0.0407
     20  C19       76.1450   37.9260   71.0440 C.ar   80  DC880       0.0174
     21  O23       73.6130   35.8070   73.7130 O.3    80  DC880      -0.2866
     22  C25       76.0110   38.3250   72.4150 C.ar   80  DC880       0.0025
     23  O26       80.8680   43.4340   67.7210 O.3    80  DC880      -0.2866
@<TRIPOS>BOND
     1    16    15    1
     2    18    15    1
     3    18     5    1
     4    15    17    1
     5    15     4    1
     6     5     6    1
     7     5     3    1
     8    19    11   ar
     9    19     6   ar
    10    23    11    1
    11    11    12   ar
    12     6     1   ar
    13     4     3    1
    14     3     2    1
    15    12    13   ar
    16     1    13   ar
    17     1    14    1
    18     2    14    1
    19     2    20    1
    20     7    20   ar
    21     7     8   ar
    22    20    22   ar
    23     8     9   ar
    24    22    10   ar
    25     9    10   ar
    26     9    21    1
