@<TRIPOS>MOLECULE
2z4e_III_I_1.pdb
 45 47 0 0 0
SMALL
GASTEIGER

@<TRIPOS>ATOM
      1  N         62.6340   88.8520  194.0450 N.3     1  GLY1       -0.1210
      2  CA        63.9510   89.1970  194.6710 C.3     1  GLY1        0.1956
      3  C         64.7580   87.9380  194.9010 C.2     1  GLY1        0.2612
      4  O         64.9160   87.1280  193.9860 O.2     1  GLY1       -0.2717
      5  N         65.2610   87.7680  196.1220 N.am    2  HIS2       -0.1961
      6  CA        66.0540   86.5880  196.4740 C.3     2  HIS2        0.1784
      7  C         65.3800   85.7490  197.5580 C.2     2  HIS2        0.2620
      8  O         64.4380   86.1850  198.2250 O.2     2  HIS2       -0.2715
      9  CB        67.4410   87.0000  196.9830 C.3     2  HIS2        0.0745
     10  CG        67.4370   87.5380  198.3840 C.2     2  HIS2        0.0653
     11  ND1       66.7370   88.6700  198.7490 N.2     2  HIS2       -0.2310
     12  CD2       68.0330   87.0880  199.5150 C.3     2  HIS2        0.1683
     13  CE1       66.9010   88.8930  200.0420 C.2     2  HIS2        0.1939
     14  NE2       67.6830   87.9470  200.5310 N.2     2  HIS2       -0.2440
     15  N         65.8810   84.5380  197.7350 N.am    3  ARG3       -0.1964
     16  CA        65.3590   83.6450  198.7550 C.3     3  ARG3        0.1714
     17  C         66.5340   83.1460  199.6040 C.2     3  ARG3        0.2458
     18  O         67.2840   82.2550  199.1840 O.2     3  ARG3       -0.2730
     19  CB        64.6220   82.4760  198.1020 C.3     3  ARG3        0.0347
     20  CG        63.4220   82.8960  197.2470 C.3     3  ARG3        0.0492
     21  CD        62.2950   83.5390  198.0680 C.3     3  ARG3        0.2205
     22  NE        61.0790   83.7540  197.2750 N.pl3   3  ARG3       -0.0865
     23  CZ        60.9460   84.6520  196.2950 C.cat   3  ARG3        0.5346
     24  NH1       61.9520   85.4500  195.9640 N.pl3   3  ARG3        0.1354
     25  NH2       59.7990   84.7410  195.6280 N.pl3   3  ARG3        0.1354
     26  N         66.6980   83.7210  200.8150 N.am    4  PRO4       -0.2716
     27  CA        67.7400   83.4300  201.8080 C.3     4  PRO4        0.1536
     28  C         67.9010   81.9550  202.1020 C.2     4  PRO4        0.2599
     29  O         66.9580   81.1800  201.9530 O.2     4  PRO4       -0.2715
     30  CB        67.2620   84.1710  203.0540 C.3     4  PRO4        0.0310
     31  CG        66.4500   85.2830  202.5130 C.3     4  PRO4        0.0237
     32  CD        65.6850   84.6250  201.3900 C.3     4  PRO4        0.0939
     33  N         69.0970   81.5710  202.5330 N.am    5  TYR5       -0.1938
     34  CA        69.3660   80.1850  202.8910 C.3     5  TYR5        0.2021
     35  C         69.1000   79.9830  204.3850 C.2     5  TYR5        0.3845
     36  O         68.6730   78.8750  204.7670 O.co2   5  TYR5       -0.2437
     37  CB        70.8130   79.8110  202.5630 C.3     5  TYR5        0.0596
     38  CG        71.0940   79.6710  201.0870 C.ar    5  TYR5       -0.0197
     39  CD1       71.7660   80.6670  200.3890 C.ar    5  TYR5       -0.0009
     40  CD2       70.6700   78.5440  200.3840 C.ar    5  TYR5       -0.0009
     41  CE1       72.0130   80.5450  199.0160 C.ar    5  TYR5        0.0417
     42  CE2       70.9080   78.4120  199.0130 C.ar    5  TYR5        0.0417
     43  CZ        71.5800   79.4160  198.3380 C.ar    5  TYR5        0.1957
     44  OH        71.8210   79.2930  196.9880 O.3     5  TYR5       -0.2866
     45  OXT       69.3300   80.9370  205.1600 O.co2   5  TYR5       -0.2437
@<TRIPOS>BOND
     1     4     3    2
     2     1     2    1
     3     2     3    1
     4     3     5   am
     5    25    23    1
     6    24    23    1
     7     5     6    1
     8    23    22    2
     9     6     9    1
    10     6     7    1
    11     9    10    1
    12    44    43    1
    13    20    21    1
    14    20    19    1
    15    22    21    1
    16     7    15   am
    17     7     8    2
    18    15    16    1
    19    19    16    1
    20    43    42   ar
    21    43    41   ar
    22    10    11    2
    23    10    12    1
    24    11    13    1
    25    16    17    1
    26    42    40   ar
    27    41    39   ar
    28    18    17    2
    29    12    14    1
    30    17    26   am
    31    13    14    2
    32    40    38   ar
    33    39    38   ar
    34    26    32    1
    35    26    27    1
    36    38    37    1
    37    32    31    1
    38    27    28    1
    39    27    30    1
    40    29    28    2
    41    28    33   am
    42    31    30    1
    43    33    34    1
    44    37    34    1
    45    34    35    1
    46    35    36   ar
    47    35    45   ar
