@<TRIPOS>MOLECULE
2z4j_DHT_A_1.pdb
 21 24 0 0 0
SMALL
GASTEIGER

@<TRIPOS>ATOM
      1  C1       -27.3210   28.3010    4.7120 C.3   931  DHT931      0.0078
      2  C2       -26.5750   27.0390    5.1580 C.3   931  DHT931      0.0645
      3  C3       -25.1250   27.1440    4.6130 C.2   931  DHT931      0.1506
      4  O3       -24.6580   26.1670    4.0530 O.2   931  DHT931     -0.2961
      5  C4       -24.3870   28.4430    4.8150 C.3   931  DHT931      0.0645
      6  C5       -25.2140   29.6760    4.3100 C.3   931  DHT931      0.0073
      7  C6       -24.4760   31.0470    4.5340 C.3   931  DHT931      0.0004
      8  C7       -25.3410   32.2090    4.0000 C.3   931  DHT931      0.0000
      9  C8       -26.7580   32.2580    4.6800 C.3   931  DHT931      0.0001
     10  C9       -27.4820   30.8800    4.4560 C.3   931  DHT931      0.0000
     11  C10      -26.6470   29.6610    5.0140 C.3   931  DHT931      0.0008
     12  C11      -28.9110   30.9590    5.1070 C.3   931  DHT931      0.0001
     13  C12      -29.7930   32.1170    4.6560 C.3   931  DHT931      0.0024
     14  C13      -29.0750   33.4870    4.7640 C.3   931  DHT931      0.0282
     15  C14      -27.6460   33.3860    4.1100 C.3   931  DHT931      0.0024
     16  C15      -27.1340   34.8330    4.2470 C.3   931  DHT931      0.0027
     17  C16      -28.3920   35.6580    3.8670 C.3   931  DHT931      0.0329
     18  C17      -29.5770   34.6480    3.9270 C.3   931  DHT931      0.1519
     19  O17      -30.7240   35.3040    4.4920 O.3   931  DHT931     -0.2232
     20  C18      -28.9850   33.8950    6.2950 C.3   931  DHT931      0.0025
     21  C19      -26.4830   29.8440    6.5760 C.3   931  DHT931      0.0000
@<TRIPOS>BOND
     1    17    18    1
     2    17    16    1
     3    18    19    1
     4    18    14    1
     5     8     7    1
     6     8     9    1
     7     4     3    2
     8    15    16    1
     9    15     9    1
    10    15    14    1
    11     6     7    1
    12     6     5    1
    13     6    11    1
    14    10     9    1
    15    10    11    1
    16    10    12    1
    17     3     5    1
    18     3     2    1
    19    13    14    1
    20    13    12    1
    21     1    11    1
    22     1     2    1
    23    14    20    1
    24    11    21    1
