@<TRIPOS>MOLECULE
2z4o_065_B_1.pdb
 40 44 0 0 0
SMALL
GASTEIGER

@<TRIPOS>ATOM
      1  C2        20.8150   27.5840   14.9490 C.ar  404  065404      0.1765
      2  O39       21.7420   28.5790   14.7800 O.3   404  065404     -0.4346
      3  C40       22.9230   28.1220   15.3260 C.3   404  065404      0.4294
      4  O41       22.7600   26.8340   15.7700 O.3   404  065404     -0.4346
      5  C3        21.4380   26.5200   15.5880 C.ar  404  065404      0.1778
      6  C4        20.6940   25.3930   15.8970 C.ar  404  065404      0.0601
      7  C5        19.3320   25.3180   15.5980 C.ar  404  065404      0.1254
      8  C6        18.7270   26.3840   14.9700 C.ar  404  065404      0.0232
      9  C7        19.4590   27.5160   14.6390 C.ar  404  065404      0.0416
     10  S8        18.4410   23.8760   16.0410 S.O2  404  065404      0.0635
     11  O9        17.3270   23.6190   15.0930 O.2   404  065404     -0.1528
     12  O10       19.4260   22.7510   16.1670 O.2   404  065404     -0.1528
     13  N11       17.8000   24.0950   17.5370 N.3   404  065404     -0.1529
     14  C12       18.7450   24.4820   18.5680 C.3   404  065404      0.0958
     15  C13       18.4200   23.8630   19.9310 C.3   404  065404      0.0178
     16  C14       18.3370   22.3480   19.8610 C.3   404  065404      0.0015
     17  C15       19.4830   24.2590   20.9660 C.3   404  065404      0.0015
     18  C16       16.5610   24.8690   17.5340 C.3   404  065404      0.1304
     19  C17       15.4150   23.9930   18.0420 C.3   404  065404      0.1898
     20  O18       14.2420   24.7490   18.3230 O.3   404  065404     -0.2197
     21  C19       15.1050   22.8310   17.0990 C.3   404  065404      0.1347
     22  N20       14.2160   21.9200   17.8200 N.am  404  065404     -0.1675
     23  C21       14.4610   20.6740   18.1870 C.2   404  065404      0.4211
     24  O22       15.5120   20.0920   17.9210 O.2   404  065404     -0.2246
     25  O23       13.4370   20.0990   18.8730 O.3   404  065404     -0.4345
     26  C24       13.5830   18.6990   19.0760 C.3   404  065404      0.2048
     27  C25       13.0000   18.3800   20.4560 C.3   404  065404      0.1884
     28  O26       11.5790   18.5010   20.2590 O.3   404  065404     -0.3265
     29  C27       11.2920   18.0120   18.9550 C.3   404  065404      0.2388
     30  O28       10.4050   18.8880   18.2630 O.3   404  065404     -0.3304
     31  C29       11.1640   19.6190   17.3190 C.3   404  065404      0.1451
     32  C30       12.2510   18.6250   16.8700 C.3   404  065404      0.0409
     33  C31       12.5990   17.9370   18.1860 C.3   404  065404      0.1016
     34  C32       14.3990   23.2650   15.8210 C.3   404  065404      0.0508
     35  C33       12.6910   21.7030   14.7750 C.ar  404  065404     -0.0042
     36  C34       12.3370   20.5890   14.0150 C.ar  404  065404     -0.0003
     37  C35       13.3090   19.8420   13.3610 C.ar  404  065404     -0.0000
     38  C36       14.6380   20.2320   13.5140 C.ar  404  065404     -0.0003
     39  C37       14.9880   21.3230   14.2930 C.ar  404  065404     -0.0042
     40  C38       14.0140   22.0730   14.9470 C.ar  404  065404     -0.0204
@<TRIPOS>BOND
     1    37    38   ar
     2    37    36   ar
     3    38    39   ar
     4    36    35   ar
     5    39    40   ar
     6     9     1   ar
     7     9     8   ar
     8    35    40   ar
     9     2     1    1
    10     2     3    1
    11    40    34    1
    12     1     5   ar
    13     8     7   ar
    14    11    10    2
    15     3     4    1
    16     5     4    1
    17     5     6   ar
    18     7     6   ar
    19     7    10    1
    20    34    21    1
    21    10    12    2
    22    10    13    1
    23    32    31    1
    24    32    33    1
    25    21    22    1
    26    21    19    1
    27    31    30    1
    28    18    13    1
    29    18    19    1
    30    13    14    1
    31    22    23   am
    32    24    23    2
    33    19    20    1
    34    33    29    1
    35    33    26    1
    36    23    25    1
    37    30    29    1
    38    14    15    1
    39    25    26    1
    40    29    28    1
    41    26    27    1
    42    16    15    1
    43    15    17    1
    44    28    27    1
