@<TRIPOS>MOLECULE
2z4r_ADP_A_1.pdb
 27 29 0 0 0
SMALL
GASTEIGER

@<TRIPOS>ATOM
      1  PB        40.0800    4.0400   23.3400 P.3   501  ADP501      0.5373
      2  O1B       41.5550    3.8800   23.4130 O.3   501  ADP501     -0.1143
      3  O2B       39.4050    3.4830   24.6670 O.3   501  ADP501     -0.1143
      4  O3B       39.4860    3.2590   22.0380 O.2   501  ADP501     -0.2221
      5  PA        40.2260    6.3700   21.9900 P.3   501  ADP501      0.2231
      6  O1A       41.6920    6.3120   21.8600 O.3   501  ADP501     -0.4370
      7  O2A       39.5890    5.7240   20.6620 O.2   501  ADP501     -0.5169
      8  O3A       39.6630    5.5750   23.2960 O.3   501  ADP501     -0.2261
      9  O5'       39.6510    7.8560   22.2100 O.3   501  ADP501     -0.3111
     10  C5'       40.1180    8.6140   21.1420 C.3   501  ADP501      0.1813
     11  C4'       39.5830   10.0240   21.2120 C.3   501  ADP501      0.1821
     12  O4'       39.8820   10.6790   22.4620 O.3   501  ADP501     -0.3135
     13  C3'       40.1980   10.7690   20.0420 C.3   501  ADP501      0.2184
     14  O3'       39.1880   11.2530   19.1430 O.3   501  ADP501     -0.2174
     15  C2'       41.0370   11.8830   20.6580 C.3   501  ADP501      0.2570
     16  O2'       40.6130   13.1860   20.1540 O.3   501  ADP501     -0.2130
     17  C1'       40.8340   11.7420   22.2020 C.3   501  ADP501      0.3186
     18  N9        42.1040   11.4810   22.9180 N.pl3 501  ADP501     -0.1439
     19  C8        42.4980   10.3090   23.4940 C.3   501  ADP501      0.3377
     20  N7        43.6660   10.4410   24.0490 N.2   501  ADP501     -0.2095
     21  C5        44.0990   11.6990   23.8680 C.2   501  ADP501      0.2526
     22  C6        45.2670   12.4300   24.2410 C.2   501  ADP501      0.4393
     23  N6        46.2760   11.8220   24.9670 N.pl3 501  ADP501      0.2180
     24  N1        45.3660   13.7300   23.8720 N.2   501  ADP501      0.0021
     25  C2        44.3940   14.3290   23.1740 C.3   501  ADP501      0.5254
     26  N3        43.2860   13.6750   22.8130 N.2   501  ADP501     -0.0055
     27  C4        43.1000   12.3860   23.1340 C.2   501  ADP501      0.3518
@<TRIPOS>BOND
     1    14    13    1
     2    13    15    1
     3    13    11    1
     4    16    15    1
     5    15    17    1
     6     7     5    2
     7    10    11    1
     8    10     9    1
     9    11    12    1
    10     6     5    1
    11     5     9    1
    12     5     8    1
    13     4     1    2
    14    17    12    1
    15    17    18    1
    16    26    27    2
    17    26    25    1
    18    18    27    1
    19    18    19    1
    20    27    21    1
    21    25    24    1
    22     8     1    1
    23     1     2    1
    24     1     3    1
    25    19    20    1
    26    21    20    2
    27    21    22    1
    28    24    22    2
    29    22    23    1
