@<TRIPOS>MOLECULE
2z4s_ADP_A_1.pdb
 27 29 0 0 0
SMALL
GASTEIGER

@<TRIPOS>ATOM
      1  PB       -40.3330  -19.9790   16.4690 P.3   501  ADP501      0.5373
      2  O1B      -41.5190  -20.7740   16.8080 O.3   501  ADP501     -0.1143
      3  O2B      -39.7820  -20.4520   15.0570 O.2   501  ADP501     -0.2221
      4  O3B      -39.1980  -20.1550   17.6010 O.3   501  ADP501     -0.1143
      5  PA       -41.2890  -17.8170   17.6860 P.3   501  ADP501      0.2231
      6  O1A      -42.4910  -18.5360   18.1470 O.2   501  ADP501     -0.5169
      7  O2A      -40.1840  -17.8930   18.8430 O.3   501  ADP501     -0.4370
      8  O3A      -40.6990  -18.4390   16.3120 O.3   501  ADP501     -0.2261
      9  O5'      -41.5930  -16.2900   17.3430 O.3   501  ADP501     -0.3111
     10  C5'      -42.1170  -15.7630   18.5210 C.3   501  ADP501      0.1813
     11  C4'      -42.4280  -14.2980   18.3800 C.3   501  ADP501      0.1821
     12  O4'      -43.3450  -14.0710   17.3000 O.3   501  ADP501     -0.3135
     13  C3'      -43.0310  -13.8770   19.7070 C.3   501  ADP501      0.2184
     14  O3'      -42.2530  -12.8580   20.3420 O.3   501  ADP501     -0.2174
     15  C2'      -44.4500  -13.4360   19.3920 C.3   501  ADP501      0.2570
     16  O2'      -44.6730  -12.0810   19.8360 O.3   501  ADP501     -0.2130
     17  C1'      -44.5860  -13.5830   17.8550 C.3   501  ADP501      0.3186
     18  N9       -45.7000  -14.4620   17.4650 N.pl3 501  ADP501     -0.1439
     19  C8       -45.6180  -15.7130   16.9250 C.3   501  ADP501      0.3377
     20  N7       -46.8060  -16.1840   16.6890 N.2   501  ADP501     -0.2095
     21  C5       -47.7190  -15.2680   17.0610 C.2   501  ADP501      0.2526
     22  C6       -49.1340  -15.1990   17.0460 C.2   501  ADP501      0.4393
     23  N6       -49.8800  -16.2500   16.5520 N.pl3 501  ADP501      0.2180
     24  N1       -49.7360  -14.0870   17.5170 N.2   501  ADP501      0.0021
     25  C2       -49.0300  -13.0620   17.9950 C.3   501  ADP501      0.5254
     26  N3       -47.7000  -13.0890   18.0200 N.2   501  ADP501     -0.0055
     27  C4       -47.0180  -14.1550   17.5720 C.2   501  ADP501      0.3518
@<TRIPOS>BOND
     1     3     1    2
     2     8     1    1
     3     8     5    1
     4     1     2    1
     5     1     4    1
     6    23    22    1
     7    20    19    1
     8    20    21    2
     9    19    18    1
    10    22    21    1
    11    22    24    2
    12    21    27    1
    13    12    17    1
    14    12    11    1
    15     9     5    1
    16     9    10    1
    17    18    27    1
    18    18    17    1
    19    24    25    1
    20    27    26    2
    21     5     6    2
    22     5     7    1
    23    17    15    1
    24    25    26    1
    25    11    10    1
    26    11    13    1
    27    15    13    1
    28    15    16    1
    29    13    14    1
