@<TRIPOS>MOLECULE
2z4t_C5P_A_1.pdb
 21 22 0 0 0
SMALL
GASTEIGER

@<TRIPOS>ATOM
      1  O3P       34.0420  -27.6640  -13.3580 O.3   1427  C5P1427    -0.1145
      2  P         33.3160  -27.7530  -14.6480 P.3   1427  C5P1427     0.5327
      3  O1P       34.1890  -28.5360  -15.6180 O.2   1427  C5P1427    -0.2224
      4  O2P       32.7400  -26.4230  -15.0900 O.3   1427  C5P1427    -0.1145
      5  O5'       32.0260  -28.6140  -14.3410 O.3   1427  C5P1427    -0.2675
      6  C5'       31.2410  -29.1940  -15.3600 C.3   1427  C5P1427     0.1859
      7  C4'       30.3900  -30.2470  -14.6530 C.3   1427  C5P1427     0.1801
      8  O4'       31.2380  -31.2370  -14.0540 O.3   1427  C5P1427    -0.3320
      9  C3'       29.5920  -29.7010  -13.4830 C.3   1427  C5P1427     0.2158
     10  O3'       28.3070  -29.2200  -13.8610 O.3   1427  C5P1427    -0.2175
     11  C2'       29.4160  -30.9310  -12.6370 C.3   1427  C5P1427     0.2319
     12  O2'       28.4700  -31.8200  -13.2350 O.3   1427  C5P1427    -0.2157
     13  C1'       30.7110  -31.6610  -12.7900 C.3   1427  C5P1427     0.2400
     14  N1        31.6010  -31.3470  -11.6750 N.am  1427  C5P1427    -0.1778
     15  C2        31.4260  -32.0280  -10.4390 C.1   1427  C5P1427     0.2756
     16  N3        32.2490  -31.7760   -9.3900 N.2   1427  C5P1427    -0.3024
     17  C4        33.2490  -30.8600   -9.4990 C.2   1427  C5P1427     0.2346
     18  C5        33.4470  -30.1670  -10.7120 C.2   1427  C5P1427     0.0687
     19  C6        32.6020  -30.4380  -11.8020 C.2   1427  C5P1427     0.0836
     20  O2        30.5160  -32.8560  -10.2890 O.2   1427  C5P1427    -0.1925
     21  N4        34.0580  -30.6440   -8.4310 N.pl3 1427  C5P1427    -0.0921
@<TRIPOS>BOND
     1     3     2    2
     2     6     7    1
     3     6     5    1
     4     4     2    1
     5     7     8    1
     6     7     9    1
     7     2     5    1
     8     2     1    1
     9     8    13    1
    10    10     9    1
    11     9    11    1
    12    12    11    1
    13    13    11    1
    14    13    14    1
    15    19    14    1
    16    19    18    2
    17    14    15   am
    18    18    17    1
    19    15    20    2
    20    15    16    2
    21    17    16    2
    22    17    21    1
