@<TRIPOS>MOLECULE
2z4t_LBT_A_1.pdb
 23 24 0 0 0
SMALL
GASTEIGER

@<TRIPOS>ATOM
      1  C1        38.1120  -31.0260  -22.9450 C.3   2000  LBT2000     0.2695
      2  C2        37.7590  -30.2170  -24.1910 C.3   2000  LBT2000     0.2406
      3  C3        37.0360  -28.9390  -23.7730 C.3   2000  LBT2000     0.2198
      4  C4        35.8660  -29.2610  -22.8340 C.3   2000  LBT2000     0.2144
      5  C5        36.2980  -30.1650  -21.6770 C.3   2000  LBT2000     0.1835
      6  C6        35.1190  -30.6780  -20.8450 C.3   2000  LBT2000     0.2142
      7  O1        38.6880  -32.2300  -23.3990 O.3   2000  LBT2000    -0.3257
      8  O2        38.9390  -29.9450  -24.9310 O.3   2000  LBT2000    -0.2149
      9  O3        36.5660  -28.2440  -24.9190 O.3   2000  LBT2000    -0.2174
     10  O4        34.8450  -29.8760  -23.5900 O.3   2000  LBT2000    -0.2176
     11  O5        36.9460  -31.2990  -22.1980 O.3   2000  LBT2000    -0.3256
     12  O6        34.4710  -29.6490  -20.1260 O.3   2000  LBT2000    -0.2176
     13  C1'       40.9600  -35.4610  -22.1900 C.3   2000  LBT2000     0.3023
     14  C2'       39.6940  -35.2160  -21.3640 C.3   2000  LBT2000     0.2433
     15  C3'       38.8000  -34.2360  -22.1220 C.3   2000  LBT2000     0.2168
     16  C4'       39.5450  -32.9530  -22.5370 C.3   2000  LBT2000     0.1804
     17  C5'       40.8800  -33.3300  -23.2360 C.3   2000  LBT2000     0.1804
     18  C6'       41.8540  -32.2270  -23.6970 C.3   2000  LBT2000     0.2141
     19  O1'       40.6440  -35.9800  -23.4790 O.3   2000  LBT2000    -0.1869
     20  O2'       38.9580  -36.3960  -21.1370 O.3   2000  LBT2000    -0.2148
     21  O3'       37.6500  -33.9770  -21.3600 O.3   2000  LBT2000    -0.2175
     22  O5'       41.6070  -34.2130  -22.3860 O.3   2000  LBT2000    -0.3237
     23  O6'       41.4860  -30.9020  -23.3720 O.3   2000  LBT2000    -0.2176
@<TRIPOS>BOND
     1     8     2    1
     2     9     3    1
     3     2     3    1
     4     2     1    1
     5     3     4    1
     6    18    23    1
     7    18    17    1
     8    10     4    1
     9    19    13    1
    10     7     1    1
    11     7    16    1
    12    17    16    1
    13    17    22    1
    14     1    11    1
    15     4     5    1
    16    16    15    1
    17    22    13    1
    18    11     5    1
    19    13    14    1
    20    15    14    1
    21    15    21    1
    22     5     6    1
    23    14    20    1
    24     6    12    1
