@<TRIPOS>MOLECULE
2z4v_GRG_A_1.pdb
 29 28 0 0 0
SMALL
GASTEIGER

@<TRIPOS>ATOM
      1  C20       39.4970   58.1430   13.0100 C.3   1401  GRG1401     0.0260
      2  C19       36.9100   57.8270   12.5670 C.3   1401  GRG1401     0.0260
      3  C18       38.3330   57.2660   12.5400 C.2   1401  GRG1401    -0.0478
      4  C17       38.5880   55.9890   12.0510 C.2   1401  GRG1401    -0.0342
      5  C16       37.6670   55.0550   11.5880 C.3   1401  GRG1401     0.0297
      6  C14       36.9060   51.3280   12.6470 C.3   1401  GRG1401     0.0260
      7  C13       37.0340   52.5730   11.7680 C.2   1401  GRG1401    -0.0478
      8  C15       37.9700   53.6970   12.2240 C.3   1401  GRG1401     0.0263
      9  C12       36.3190   52.6700   10.5780 C.2   1401  GRG1401    -0.0342
     10  C11       35.4460   51.7410   10.0180 C.3   1401  GRG1401     0.0297
     11  C9        34.1460   51.6050   10.8120 C.3   1401  GRG1401     0.0263
     12  C8        33.1170   50.7460   10.0720 C.2   1401  GRG1401    -0.0478
     13  C10       33.1250   50.6630    8.5440 C.3   1401  GRG1401     0.0260
     14  C7        32.1700   50.0210   10.7840 C.2   1401  GRG1401    -0.0342
     15  C6        31.1730   49.2280   10.2210 C.3   1401  GRG1401     0.0297
     16  C5        31.2300   47.7960   10.7470 C.3   1401  GRG1401     0.0264
     17  C3        29.9030   47.0450   10.5910 C.2   1401  GRG1401    -0.0454
     18  C4        28.8800   47.1130   11.7250 C.3   1401  GRG1401     0.0261
     19  C2        29.6240   46.3320    9.4310 C.2   1401  GRG1401    -0.0024
     20  C1        28.4800   45.5810    9.1670 C.3   1401  GRG1401     0.1747
     21  O1        27.5440   46.2080    8.2850 O.3   1401  GRG1401    -0.3089
     22  PA        27.2600   45.7460    6.7720 P.3   1401  GRG1401     0.2233
     23  O1A       26.7880   44.2130    6.6870 O.3   1401  GRG1401    -0.4370
     24  O3A       28.7400   45.8440    6.1450 O.3   1401  GRG1401    -0.2261
     25  O2A       26.3450   46.6950    6.0940 O.2   1401  GRG1401    -0.5169
     26  PB        29.3530   44.9880    4.9300 P.3   1401  GRG1401     0.5373
     27  O1B       30.9170   45.2790    5.0940 O.3   1401  GRG1401    -0.1143
     28  O2B       29.0980   43.4240    5.1670 O.3   1401  GRG1401    -0.1143
     29  O3B       28.9090   45.4780    3.6000 O.2   1401  GRG1401    -0.2221
@<TRIPOS>BOND
     1    29    26    2
     2    26    27    1
     3    26    28    1
     4    26    24    1
     5    25    22    2
     6    24    22    1
     7    23    22    1
     8    22    21    1
     9    21    20    1
    10    13    12    1
    11    20    19    1
    12    19    17    2
    13    10     9    1
    14    10    11    1
    15    12    14    2
    16    12    11    1
    17    15    16    1
    18    15    14    1
    19     9     7    2
    20    17    16    1
    21    17    18    1
    22     5     4    1
    23     5     8    1
    24     7     8    1
    25     7     6    1
    26     4     3    2
    27     3     2    1
    28     3     1    1
