@<TRIPOS>MOLECULE
2z4w_749_A_1.pdb
 29 28 0 0 0
SMALL
GASTEIGER

@<TRIPOS>ATOM
      1  CAA       28.1610   43.3360   14.3430 C.3   1101  7491101     0.0260
      2  CAB       26.7440   45.1400   15.6610 C.3   1101  7491101     0.0260
      3  CAC       36.5800   51.4700    8.6480 C.3   1101  7491101     0.0260
      4  CAD       34.4610   51.9500   10.1700 C.3   1101  7491101     0.0260
      5  CAE       30.6900   46.5570   10.1500 C.3   1101  7491101     0.0260
      6  CAF       30.1640   49.3820    8.4030 C.3   1101  7491101     0.0260
      7  OAG       26.5990   44.5690    6.6150 O.3   1101  7491101    -0.3568
      8  OAH       31.3670   45.0940    5.3020 O.3   1101  7491101    -0.3568
      9  OAI       26.4260   47.1580    6.5230 O.3   1101  7491101    -0.3568
     10  OAJ       27.0110   45.8300    4.4230 O.2   1101  7491101    -0.4597
     11  OAK       29.3610   43.5150    5.2160 O.3   1101  7491101    -0.3568
     12  OAL       29.4680   45.5580    3.6240 O.2   1101  7491101    -0.4597
     13  CAM       27.7710   45.6650   13.4130 C.2   1101  7491101    -0.0342
     14  CAN       34.3200   50.4530    8.1370 C.2   1101  7491101    -0.0342
     15  CAO       28.6640   45.8140    8.8200 C.2   1101  7491101    -0.0337
     16  CAP       30.5960   47.8280    6.4430 C.2   1101  7491101    -0.0337
     17  CAQ       28.4980   45.4630   12.2450 C.3   1101  7491101     0.0297
     18  CAR       32.9650   50.1690    8.2750 C.3   1101  7491101     0.0297
     19  CAS       29.4260   45.4930    7.7030 C.3   1101  7491101     0.0394
     20  CAT       29.2580   47.5220    6.2200 C.3   1101  7491101     0.0394
     21  CAU       28.2890   46.5800   11.2190 C.3   1101  7491101     0.0263
     22  CAV       32.6150   48.8840    7.5200 C.3   1101  7491101     0.0263
     23  CAW       27.5650   44.7420   14.4320 C.2   1101  7491101    -0.0478
     24  CAX       35.0940   51.2670    8.9560 C.2   1101  7491101    -0.0478
     25  CAY       29.1890   46.2910   10.0170 C.2   1101  7491101    -0.0478
     26  CAZ       31.1030   48.6690    7.4280 C.2   1101  7491101    -0.0478
     27  CBA       28.9740   46.0220    6.3390 C.3   1101  7491101     0.1000
     28  PBB       27.1480   45.8100    6.0260 P.3   1101  7491101     0.1234
     29  PBC       29.9080   45.0190    5.0760 P.3   1101  7491101     0.1234
@<TRIPOS>BOND
     1    12    29    2
     2    10    28    2
     3    29    11    1
     4    29     8    1
     5    29    27    1
     6    28    27    1
     7    28     9    1
     8    28     7    1
     9    20    27    1
    10    20    16    1
    11    27    19    1
    12    16    26    2
    13    26    22    1
    14    26     6    1
    15    22    18    1
    16    19    15    1
    17    14    18    1
    18    14    24    2
    19     3    24    1
    20    15    25    2
    21    24     4    1
    22    25     5    1
    23    25    21    1
    24    21    17    1
    25    17    13    1
    26    13    23    2
    27     1    23    1
    28    23     2    1
