@<TRIPOS>MOLECULE
2z4x_252_A_1.pdb
 18 17 0 0 0
SMALL
GASTEIGER

@<TRIPOS>ATOM
      1  CAA      -17.1800   26.4070   65.4400 C.3   1101  2521101     0.0000
      2  CAI      -17.6140   27.4240   64.3800 C.3   1101  2521101     0.0000
      3  CAJ      -19.1190   27.3180   64.1260 C.3   1101  2521101     0.0000
      4  CAK      -19.5810   28.3340   63.0830 C.3   1101  2521101     0.0000
      5  CAL      -21.0300   28.0520   62.6780 C.3   1101  2521101     0.0000
      6  CAM      -21.3900   28.7570   61.3690 C.3   1101  2521101     0.0001
      7  CAN      -22.6680   28.1560   60.7750 C.3   1101  2521101     0.0035
      8  CAO      -22.9680   28.8080   59.4250 C.3   1101  2521101     0.0447
      9  CAP      -24.2740   28.3560   58.7700 C.3   1101  2521101     0.2159
     10  P1P      -24.4190   29.2510   57.1450 P.3   1101  2521101     0.1511
     11  OAE      -24.1640   30.8150   57.4430 O.3   1101  2521101    -0.3553
     12  OAF      -23.1410   28.8110   56.2700 O.2   1101  2521101    -0.4573
     13  OAB      -25.7110   28.9940   56.4640 O.3   1101  2521101    -0.3553
     14  P1R      -24.2610   26.5410   58.3550 P.3   1101  2521101     0.1511
     15  OAG      -24.6190   25.7360   59.6920 O.3   1101  2521101    -0.3553
     16  OAH      -25.4940   26.3630   57.3450 O.2   1101  2521101    -0.4573
     17  OAC      -22.9730   26.1910   57.7110 O.3   1101  2521101    -0.3553
     18  OAD      -25.4010   28.6570   59.6000 O.3   1101  2521101    -0.2108
@<TRIPOS>BOND
     1    12    10    2
     2    13    10    1
     3    10    11    1
     4    10     9    1
     5    16    14    2
     6    17    14    1
     7    14     9    1
     8    14    15    1
     9     9     8    1
    10     9    18    1
    11     8     7    1
    12     7     6    1
    13     6     5    1
    14     5     4    1
    15     4     3    1
    16     3     2    1
    17     2     1    1
