@<TRIPOS>MOLECULE
2z4y_252_A_1.pdb
 18 17 0 0 0
SMALL
GASTEIGER

@<TRIPOS>ATOM
      1  CAA       26.0890   44.9480   15.5900 C.3   1201  2521201     0.0000
      2  CAI       26.8190   44.4810   14.3290 C.3   1201  2521201     0.0000
      3  CAJ       26.7320   45.5600   13.2470 C.3   1201  2521201     0.0000
      4  CAK       27.5110   45.1530   11.9970 C.3   1201  2521201     0.0000
      5  CAL       27.4020   46.2360   10.9250 C.3   1201  2521201     0.0000
      6  CAM       28.2610   45.8480    9.7230 C.3   1201  2521201     0.0001
      7  CAN       28.0000   46.7440    8.5080 C.3   1201  2521201     0.0035
      8  CAO       28.6690   46.0820    7.3080 C.3   1201  2521201     0.0447
      9  CAP       28.3200   46.6540    5.9290 C.3   1201  2521201     0.2159
     10  P1P       28.7030   45.2520    4.7680 P.3   1201  2521201     0.1511
     11  OAE       30.2090   44.8190    5.1400 O.3   1201  2521201    -0.3553
     12  OAF       27.7060   44.0880    5.2620 O.3   1201  2521201    -0.3553
     13  OAB       28.5090   45.6350    3.3510 O.2   1201  2521201    -0.4573
     14  P1R       26.5280   47.1190    5.7010 P.3   1201  2521201     0.1511
     15  OAG       26.2410   48.4200    6.6070 O.3   1201  2521201    -0.3553
     16  OAH       26.4430   47.6270    4.1740 O.2   1201  2521201    -0.4573
     17  OAC       25.5640   46.0320    5.9860 O.3   1201  2521201    -0.3553
     18  OAD       29.1270   47.7980    5.6290 O.3   1201  2521201    -0.2108
@<TRIPOS>BOND
     1    13    10    2
     2    16    14    2
     3    10    11    1
     4    10    12    1
     5    10     9    1
     6    18     9    1
     7    14     9    1
     8    14    17    1
     9    14    15    1
    10     9     8    1
    11     8     7    1
    12     7     6    1
    13     6     5    1
    14     5     4    1
    15     4     3    1
    16     3     2    1
    17     2     1    1
