@<TRIPOS>MOLECULE
2z4z_SC0_A_1.pdb
 25 24 0 0 0
SMALL
GASTEIGER

@<TRIPOS>ATOM
      1  CAA       35.9680   51.0690    8.5200 C.3   1201  SC01201     0.0000
      2  CAM       34.4970   51.4970    8.5530 C.3   1201  SC01201     0.0000
      3  CAS       33.5630   50.2870    8.6430 C.3   1201  SC01201     0.0003
      4  CAU       32.1030   50.7270    8.7900 C.3   1201  SC01201     0.0047
      5  CAO       31.1410   49.5490    8.9690 C.3   1201  SC01201     0.0257
      6  CAI       31.0420   48.7550    7.8290 C.2   1201  SC01201    -0.0307
      7  CAK       29.8070   48.2660    7.4240 C.2   1201  SC01201    -0.0298
      8  CAQ       29.7230   47.4710    6.2840 C.3   1201  SC01201     0.0397
      9  CAW       28.9290   46.1770    6.4910 C.3   1201  SC01201     0.1000
     10  PAX       29.4610   44.9060    5.2370 P.3   1201  SC01201     0.1234
     11  OAE       30.9570   44.4510    5.6090 O.3   1201  SC01201    -0.3568
     12  OAF       28.5270   43.6160    5.4830 O.3   1201  SC01201    -0.3568
     13  OAC       29.3500   45.4280    3.8560 O.2   1201  SC01201    -0.4597
     14  PAY       27.1150   46.4610    6.1730 P.3   1201  SC01201     0.1234
     15  OAG       26.3360   45.1620    6.7120 O.3   1201  SC01201    -0.3568
     16  OAH       26.6880   47.7230    7.0740 O.3   1201  SC01201    -0.3568
     17  OAD       26.8660   46.7260    4.7390 O.2   1201  SC01201    -0.4597
     18  CAR       29.2440   45.5190    7.8390 C.3   1201  SC01201     0.0397
     19  CAL       28.4900   45.9460    8.9230 C.2   1201  SC01201    -0.0298
     20  CAJ       29.1240   46.0020   10.1610 C.2   1201  SC01201    -0.0307
     21  CAP       28.4540   46.3800   11.3170 C.3   1201  SC01201     0.0257
     22  CAV       28.2730   45.1250   12.1770 C.3   1201  SC01201     0.0047
     23  CAT       27.7290   45.4010   13.5810 C.3   1201  SC01201     0.0003
     24  CAN       27.6410   44.0950   14.3730 C.3   1201  SC01201     0.0000
     25  CAB       27.0790   44.3320   15.7770 C.3   1201  SC01201     0.0000
@<TRIPOS>BOND
     1    13    10    2
     2    17    14    2
     3    10    12    1
     4    10    11    1
     5    10     9    1
     6    14     9    1
     7    14    15    1
     8    14    16    1
     9     8     9    1
    10     8     7    1
    11     9    18    1
    12     7     6    2
    13     6     5    1
    14    18    19    1
    15     1     2    1
    16     2     3    1
    17     3     4    1
    18     4     5    1
    19    19    20    2
    20    20    21    1
    21    21    22    1
    22    22    23    1
    23    23    24    1
    24    24    25    1
