@<TRIPOS>MOLECULE
2z50_028_A_1.pdb
 16 15 0 0 0
SMALL
GASTEIGER

@<TRIPOS>ATOM
      1  CAA       27.3790   46.2490   12.9980 C.3   1201  0281201     0.0000
      2  CAI       28.0750   46.2160   11.6360 C.3   1201  0281201     0.0000
      3  CAJ       28.9700   47.4440   11.4680 C.3   1201  0281201     0.0000
      4  CAK       29.7290   47.3890   10.1420 C.3   1201  0281201     0.0001
      5  CAL       28.7400   47.2400    8.9880 C.3   1201  0281201     0.0035
      6  CAM       29.4360   47.2600    7.6250 C.3   1201  0281201     0.0447
      7  CAN       28.4240   46.7520    6.5980 C.3   1201  0281201     0.2159
      8  PAO       27.2760   48.0840    5.9670 P.3   1201  0281201     0.1511
      9  OAE       27.6360   48.4230    4.4360 O.2   1201  0281201    -0.4573
     10  OAF       25.8550   47.3310    5.9390 O.3   1201  0281201    -0.3553
     11  OAB       27.2500   49.3010    6.8100 O.3   1201  0281201    -0.3553
     12  PAP       29.2710   45.8560    5.2070 P.3   1201  0281201     0.1511
     13  OAG       30.7140   45.3590    5.7230 O.3   1201  0281201    -0.3553
     14  OAH       28.3230   44.5590    5.1110 O.3   1201  0281201    -0.3553
     15  OAC       29.3510   46.6300    3.9510 O.2   1201  0281201    -0.4573
     16  OAD       27.6480   45.7200    7.2150 O.3   1201  0281201    -0.2108
@<TRIPOS>BOND
     1    15    12    2
     2     9     8    2
     3    14    12    1
     4    12    13    1
     5    12     7    1
     6    10     8    1
     7     8     7    1
     8     8    11    1
     9     7    16    1
    10     7     6    1
    11     6     5    1
    12     5     4    1
    13     4     3    1
    14     3     2    1
    15     2     1    1
