@<TRIPOS>MOLECULE
2z52_H23_A_1.pdb
 21 20 0 0 0
SMALL
GASTEIGER

@<TRIPOS>ATOM
      1  CAA       30.5070   45.1590   18.8040 C.3   1001  H231001     0.0000
      2  CAI       30.1740   45.6580   17.3980 C.3   1001  H231001     0.0000
      3  CAJ       28.7710   45.2040   16.9890 C.3   1001  H231001     0.0000
      4  CAK       28.3940   45.8500   15.6580 C.3   1001  H231001     0.0000
      5  CAL       27.0100   45.4380   15.1480 C.3   1001  H231001     0.0000
      6  CAM       26.7480   46.1520   13.8190 C.3   1001  H231001     0.0000
      7  CAN       27.7310   45.6930   12.7370 C.3   1001  H231001     0.0000
      8  CAO       27.4890   46.3650   11.3820 C.3   1001  H231001     0.0000
      9  CAP       28.3660   45.7450   10.2880 C.3   1001  H231001     0.0001
     10  CAQ       27.9240   46.1580    8.8790 C.3   1001  H231001     0.0035
     11  CAR       28.7590   45.4530    7.8040 C.3   1001  H231001     0.0447
     12  CAS       28.4110   45.8610    6.3660 C.3   1001  H231001     0.2159
     13  PAT       29.3800   44.7850    5.1900 P.3   1001  H231001     0.1511
     14  OAE       28.6950   43.3370    5.1960 O.3   1001  H231001    -0.3553
     15  OAF       29.1670   45.4160    3.7270 O.2   1001  H231001    -0.4573
     16  OAB       30.8140   44.7260    5.5570 O.3   1001  H231001    -0.3553
     17  PAU       26.5820   45.7000    6.0290 P.3   1001  H231001     0.1511
     18  OAG       26.4440   45.9390    4.4430 O.2   1001  H231001    -0.4573
     19  OAH       26.2250   44.1530    6.2900 O.3   1001  H231001    -0.3553
     20  OAC       25.7640   46.6660    6.7880 O.3   1001  H231001    -0.3553
     21  OAD       28.7420   47.2240    6.0940 O.3   1001  H231001    -0.2108
@<TRIPOS>BOND
     1    15    13    2
     2    18    17    2
     3    13    14    1
     4    13    16    1
     5    13    12    1
     6    17    19    1
     7    17    12    1
     8    17    20    1
     9    21    12    1
    10    12    11    1
    11    11    10    1
    12    10     9    1
    13     9     8    1
    14     8     7    1
    15     7     6    1
    16     6     5    1
    17     5     4    1
    18     4     3    1
    19     3     2    1
    20     2     1    1
