@<TRIPOS>MOLECULE
2z54_AB1_A_1.pdb
 46 49 0 0 0
SMALL
GASTEIGER

@<TRIPOS>ATOM
      1  C1       -14.1310   58.4810   10.8040 C.3   200  AB1200      0.1409
      2  C2       -14.5390   56.3620    9.5140 C.3   200  AB1200      0.1053
      3  N1       -13.0920   56.3130    9.2780 N.am  200  AB1200     -0.2295
      4  C3       -12.2360   57.2300    9.7300 C.1   200  AB1200      0.2113
      5  N2       -12.7290   58.2370   10.4530 N.2   200  AB1200     -0.1900
      6  C4       -12.6220   50.4720    3.6850 C.ar  200  AB1200     -0.0204
      7  C5       -12.2270   49.5740    2.6850 C.ar  200  AB1200     -0.0042
      8  C6       -13.0990   48.5630    2.2560 C.ar  200  AB1200     -0.0003
      9  C7       -14.3660   48.4440    2.8340 C.ar  200  AB1200     -0.0000
     10  C8       -14.7550   49.3340    3.8420 C.ar  200  AB1200     -0.0003
     11  C9       -13.8930   50.3520    4.2590 C.ar  200  AB1200     -0.0042
     12  O1       -11.0450   57.1450    9.5190 O.2   200  AB1200     -0.2063
     13  C10      -12.6450   55.1670    8.4700 C.3   200  AB1200      0.1614
     14  C11      -13.1500   55.3090    7.0550 C.2   200  AB1200      0.2600
     15  N3       -12.2630   55.8840    6.2310 N.am  200  AB1200     -0.2054
     16  C12      -12.5530   56.1330    4.8200 C.3   200  AB1200      0.1023
     17  C13      -13.0610   53.8380    9.1180 C.3   200  AB1200      0.0278
     18  C14      -12.5010   52.6340    8.3650 C.3   200  AB1200      0.0022
     19  C15      -12.6450   53.7560   10.5880 C.3   200  AB1200      0.0022
     20  O2       -14.2870   54.9460    6.7260 O.2   200  AB1200     -0.2715
     21  C16      -15.7700   58.9240    6.1540 C.ar  200  AB1200     -0.0003
     22  C17      -15.3270   59.8320    7.1040 C.ar  200  AB1200     -0.0000
     23  C18      -13.9610   60.0280    7.2540 C.ar  200  AB1200     -0.0003
     24  C19      -13.0490   59.3240    6.4650 C.ar  200  AB1200     -0.0042
     25  C20      -13.4980   58.4060    5.5070 C.ar  200  AB1200     -0.0205
     26  C21      -14.8720   58.2110    5.3540 C.ar  200  AB1200     -0.0042
     27  C22      -12.4920   57.6520    4.6450 C.3   200  AB1200      0.0481
     28  C23      -11.4530   55.4760    3.9780 C.3   200  AB1200      0.0567
     29  C24      -11.1280   54.0180    4.3030 C.3   200  AB1200      0.1738
     30  C25      -12.1360   52.9830    3.8080 C.3   200  AB1200      0.1300
     31  N4       -12.2390   53.0980    2.3460 N.am  200  AB1200     -0.2011
     32  C26      -13.3750   53.5640    1.7970 C.2   200  AB1200      0.2859
     33  C27      -13.4880   53.6980    0.2940 C.3   200  AB1200      0.2911
     34  O3       -12.3920   53.1040   -0.3960 O.3   200  AB1200     -0.4662
     35  C28      -12.5680   52.5550   -1.6440 C.ar  200  AB1200      0.1312
     36  O4        -9.8780   53.7310    3.7150 O.3   200  AB1200     -0.2212
     37  C29      -11.6660   51.5610    4.1360 C.3   200  AB1200      0.0506
     38  O5       -14.3330   53.9140    2.4710 O.2   200  AB1200     -0.2693
     39  C30      -12.6990   53.3940   -2.7550 C.ar  200  AB1200      0.0118
     40  C31      -12.8830   52.8570   -4.0250 C.ar  200  AB1200     -0.0013
     41  C32      -12.9260   51.4720   -4.1980 C.ar  200  AB1200     -0.0004
     42  C33      -12.7960   50.6280   -3.0960 C.ar  200  AB1200     -0.0013
     43  C34      -12.6190   51.1650   -1.8210 C.ar  200  AB1200      0.0118
     44  C35      -12.4940   50.2020   -0.6740 C.3   200  AB1200      0.0342
     45  C36      -12.6440   54.8940   -2.6160 C.3   200  AB1200      0.0342
     46  C37      -14.7510   57.0930   10.8490 C.3   200  AB1200      0.0495
@<TRIPOS>BOND
     1    41    40   ar
     2    41    42   ar
     3    40    39   ar
     4    42    43   ar
     5    39    45    1
     6    39    35   ar
     7    43    35   ar
     8    43    44    1
     9    35    34    1
    10    34    33    1
    11    33    32    1
    12    32    31   am
    13    32    38    2
    14     8     7   ar
    15     8     9   ar
    16    31    30    1
    17     7     6   ar
    18     9    10   ar
    19     6    37    1
    20     6    11   ar
    21    36    29    1
    22    30    37    1
    23    30    29    1
    24    10    11   ar
    25    28    29    1
    26    28    16    1
    27    27    16    1
    28    27    25    1
    29    16    15    1
    30    26    25   ar
    31    26    21   ar
    32    25    24   ar
    33    21    22   ar
    34    15    14   am
    35    24    23   ar
    36    20    14    2
    37    14    13    1
    38    22    23   ar
    39    18    17    1
    40    13    17    1
    41    13     3    1
    42    17    19    1
    43     3     2    1
    44     3     4   am
    45     2    46    1
    46    12     4    2
    47     4     5    2
    48     5     1    1
    49     1    46    1
