@<TRIPOS>MOLECULE
2z55_GAL_D_1.pdb
 11 11 0 0 0
SMALL
GASTEIGER

@<TRIPOS>ATOM
      1  C1       -12.1260  -54.7530   67.4760 C.3   283  GAL283      0.1777
      2  C2       -12.3880  -56.0130   66.5900 C.3   283  GAL283      0.2141
      3  C3       -13.6520  -55.7030   65.7200 C.3   283  GAL283      0.2173
      4  C4       -14.8680  -55.4570   66.6730 C.3   283  GAL283      0.2142
      5  C5       -14.5090  -54.2290   67.5890 C.3   283  GAL283      0.1810
      6  C6       -15.7030  -53.9630   68.5560 C.3   283  GAL283      0.2141
      7  O2       -11.2660  -56.2390   65.7230 O.3   283  GAL283     -0.2176
      8  O3       -13.9440  -56.8170   64.8760 O.3   283  GAL283     -0.2175
      9  O4       -15.0680  -56.6140   67.4930 O.3   283  GAL283     -0.2176
     10  O5       -13.2900  -54.5200   68.3630 O.3   283  GAL283     -0.3481
     11  O6       -15.4070  -52.8450   69.3980 O.3   283  GAL283     -0.2176
@<TRIPOS>BOND
     1     8     3    1
     2     3     2    1
     3     3     4    1
     4     7     2    1
     5     2     1    1
     6     4     9    1
     7     4     5    1
     8     1    10    1
     9     5    10    1
    10     5     6    1
    11     6    11    1
