@<TRIPOS>MOLECULE
2z55_MAN_A_1.pdb
 11 11 0 0 0
SMALL
GASTEIGER

@<TRIPOS>ATOM
      1  C1        -7.1770   -6.9370  -20.2260 C.3   282  MAN282      0.1777
      2  C2        -6.7370   -7.7550  -21.5170 C.3   282  MAN282      0.2141
      3  C3        -7.3210   -7.0600  -22.7850 C.3   282  MAN282      0.2173
      4  C4        -8.9040   -7.0270  -22.6590 C.3   282  MAN282      0.2142
      5  C5        -9.2870   -6.2050  -21.3720 C.3   282  MAN282      0.1810
      6  C6       -10.8850   -6.1680  -21.2390 C.3   282  MAN282      0.2141
      7  O2        -7.2510   -9.1040  -21.4260 O.3   282  MAN282     -0.2176
      8  O3        -6.9350   -7.8090  -23.9530 O.3   282  MAN282     -0.2175
      9  O4        -9.4650   -6.3830  -23.8210 O.3   282  MAN282     -0.2176
     10  O5        -8.6820   -6.8630  -20.1850 O.3   282  MAN282     -0.3481
     11  O6       -11.4190   -7.5210  -21.0390 O.3   282  MAN282     -0.2176
@<TRIPOS>BOND
     1     8     3    1
     2     9     4    1
     3     3     4    1
     4     3     2    1
     5     4     5    1
     6     2     7    1
     7     2     1    1
     8     5     6    1
     9     5    10    1
    10     6    11    1
    11     1    10    1
