@<TRIPOS>MOLECULE
2z55_RET_A_1.pdb
 20 20 0 0 0
SMALL
GASTEIGER

@<TRIPOS>ATOM
      1  C1         3.3170  -17.8040   -5.4630 C.3   260  RET260      0.0183
      2  C2         4.2980  -17.6700   -6.7160 C.3   260  RET260      0.0044
      3  C3         5.7380  -17.9790   -6.6340 C.3   260  RET260      0.0047
      4  C4         6.2430  -18.7910   -5.4430 C.3   260  RET260      0.0217
      5  C5         5.3590  -18.9460   -4.1870 C.2   260  RET260     -0.0479
      6  C6         3.9390  -18.4880   -4.1620 C.2   260  RET260     -0.0307
      7  C7         3.1090  -18.7100   -2.8250 C.2   260  RET260     -0.0052
      8  C8         1.7830  -18.3560   -2.6220 C.2   260  RET260     -0.0046
      9  C9         1.0110  -18.5660   -1.4240 C.2   260  RET260     -0.0219
     10  C10       -0.2690  -18.1210   -1.5300 C.2   260  RET260     -0.0043
     11  C11       -1.2950  -18.2050   -0.5460 C.2   260  RET260     -0.0007
     12  C12       -2.4880  -17.6530   -0.8550 C.2   260  RET260     -0.0046
     13  C13       -3.6770  -17.6510    0.0140 C.2   260  RET260     -0.0261
     14  C14       -4.7840  -16.9800   -0.4900 C.2   260  RET260     -0.0300
     15  C15       -6.0880  -16.7830    0.1630 C.3   260  RET260      0.0304
     16  C16        2.8790  -16.3160   -5.2840 C.3   260  RET260      0.0043
     17  C17        2.1580  -18.5800   -6.1160 C.3   260  RET260      0.0043
     18  C18        6.0350  -19.6100   -2.9490 C.3   260  RET260      0.0260
     19  C19        1.6030  -19.2370   -0.1740 C.3   260  RET260      0.0310
     20  C20       -3.6730  -18.3100    1.3710 C.3   260  RET260      0.0307
@<TRIPOS>BOND
     1     2     3    1
     2     2     1    1
     3     3     4    1
     4    17     1    1
     5     1    16    1
     6     1     6    1
     7     4     5    1
     8     5     6    2
     9     5    18    1
    10     6     7    1
    11     7     8    2
    12     8     9    1
    13    10     9    2
    14    10    11    1
    15     9    19    1
    16    12    11    2
    17    12    13    1
    18    14    13    2
    19    14    15    1
    20    13    20    1
