@<TRIPOS>MOLECULE
2z5f_A3P_A_1.pdb
 27 29 0 0 0
SMALL
GASTEIGER

@<TRIPOS>ATOM
      1  P1        16.0190   43.2660   18.8020 P.3   701  A3P701      0.5327
      2  O1P       16.5510   41.9780   18.2760 O.2   701  A3P701     -0.2224
      3  O2P       14.5920   43.5660   18.4170 O.3   701  A3P701     -0.1145
      4  O3P       16.9790   44.3690   18.5960 O.3   701  A3P701     -0.1145
      5  P2        17.8970   45.0170   26.0290 P.3   701  A3P701      0.5327
      6  O4P       18.4540   46.2490   25.3140 O.2   701  A3P701     -0.2224
      7  O5P       18.7860   44.0550   26.7090 O.3   701  A3P701     -0.1145
      8  O6P       16.6440   45.3560   26.7570 O.3   701  A3P701     -0.1145
      9  O5'       17.5270   44.0580   24.7960 O.3   701  A3P701     -0.2675
     10  C5'       16.8310   44.5860   23.6790 C.3   701  A3P701      0.1859
     11  C4'       16.3620   43.4610   22.7760 C.3   701  A3P701      0.1796
     12  O4'       15.2440   42.7860   23.4250 O.3   701  A3P701     -0.3136
     13  C3'       15.8360   44.0110   21.4500 C.3   701  A3P701      0.1928
     14  O3'       15.9840   43.0160   20.4100 O.3   701  A3P701     -0.2673
     15  C2'       14.3600   44.1790   21.7500 C.3   701  A3P701      0.2543
     16  O2'       13.5260   44.2790   20.5640 O.3   701  A3P701     -0.2131
     17  C1'       14.1020   42.9050   22.5490 C.3   701  A3P701      0.3185
     18  N9        12.7930   42.9170   23.2870 N.pl3 701  A3P701     -0.1439
     19  C8        12.2990   43.8870   24.1010 C.3   701  A3P701      0.3377
     20  N7        11.0730   43.5650   24.6020 N.2   701  A3P701     -0.2095
     21  C5        10.7990   42.3250   24.1280 C.2   701  A3P701      0.2526
     22  C6         9.6880   41.3940   24.2700 C.2   701  A3P701      0.4393
     23  N6         8.6210   41.7700   25.0170 N.pl3 701  A3P701      0.2180
     24  N1         9.7340   40.2190   23.5860 N.2   701  A3P701      0.0021
     25  C2        10.7870   39.8810   22.8090 C.3   701  A3P701      0.5254
     26  N3        11.8660   40.6770   22.6600 N.2   701  A3P701     -0.0055
     27  C4        11.9120   41.8990   23.2680 C.2   701  A3P701      0.3518
@<TRIPOS>BOND
     1     2     1    2
     2     3     1    1
     3     4     1    1
     4     1    14    1
     5    14    13    1
     6    16    15    1
     7    13    15    1
     8    13    11    1
     9    15    17    1
    10    17    18    1
    11    17    12    1
    12    26    25    1
    13    26    27    2
    14    11    12    1
    15    11    10    1
    16    25    24    1
    17    27    18    1
    18    27    21    1
    19    18    19    1
    20    24    22    2
    21    10     9    1
    22    19    20    1
    23    21    22    1
    24    21    20    2
    25    22    23    1
    26     9     5    1
    27     6     5    2
    28     5     7    1
    29     5     8    1
