@<TRIPOS>MOLECULE
2z5x_HRM_A_1.pdb
 16 18 0 0 0
SMALL
GASTEIGER

@<TRIPOS>ATOM
      1  CAB       37.9770   27.0500  -17.7610 C.3   700  HRM700      0.0548
      2  CAL       38.2180   27.4840  -16.3270 C.ar  700  HRM700      0.0888
      3  NAH       37.3130   28.3190  -15.7820 N.ar  700  HRM700     -0.2456
      4  CAC       37.4270   28.8250  -14.5370 C.ar  700  HRM700      0.0986
      5  CAE       38.5280   28.4870  -13.7520 C.ar  700  HRM700      0.0233
      6  CAO       39.5060   27.6500  -14.3040 C.ar  700  HRM700      0.0348
      7  CAP       39.3440   27.1250  -15.6030 C.ar  700  HRM700      0.1449
      8  NAI       40.4290   26.3750  -15.8550 N.2   700  HRM700     -0.4006
      9  CAM       41.2340   26.3960  -14.7790 C.ar  700  HRM700      0.1345
     10  CAG       42.4500   25.7810  -14.5650 C.ar  700  HRM700      0.0689
     11  CAN       40.6940   27.1720  -13.7850 C.ar  700  HRM700      0.0323
     12  CAF       41.3130   27.3740  -12.5100 C.ar  700  HRM700      0.0057
     13  CAD       42.5570   26.7670  -12.2850 C.ar  700  HRM700      0.0371
     14  CAK       43.0880   25.9660  -13.3350 C.ar  700  HRM700      0.1413
     15  OAJ       44.3000   25.3650  -13.1470 O.3   700  HRM700     -0.4713
     16  CAA       44.9390   24.7660  -14.3200 C.3   700  HRM700      0.2525
@<TRIPOS>BOND
     1     1     2    1
     2     2     3   ar
     3     2     7   ar
     4     8     7    2
     5     8     9    2
     6     3     4   ar
     7     7     6   ar
     8     9    10   ar
     9     9    11   ar
    10    10    14   ar
    11     4     5   ar
    12    16    15    1
    13     6    11    2
    14     6     5   ar
    15    11    12   ar
    16    14    15    1
    17    14    13   ar
    18    12    13   ar
