@<TRIPOS>MOLECULE
2z5x_DCX_A_1.pdb
 14 13 0 0 0
SMALL
GASTEIGER

@<TRIPOS>ATOM
      1  C3        59.0290   14.6630  -16.2180 C.3     1  DCX1        0.0678
      2  O4        57.9180   16.3970  -18.0390 O.2     1  DCX1       -0.3191
      3  C6        60.9870   13.8700  -18.4790 C.3     1  DCX1        0.0078
      4  C14       61.6850    6.9500  -24.8380 C.3     1  DCX1        0.0000
      5  C13       61.1220    7.4590  -23.5240 C.3     1  DCX1        0.0000
      6  C12       60.5500    8.8540  -23.7190 C.3     1  DCX1        0.0000
      7  C11       61.4370    9.9100  -23.0840 C.3     1  DCX1        0.0000
      8  C10       60.6100   11.0400  -22.5090 C.3     1  DCX1        0.0000
      9  C9        60.5870   11.0140  -20.9820 C.3     1  DCX1        0.0000
     10  C8        60.3700   12.4350  -20.4680 C.3     1  DCX1        0.0000
     11  C7        60.3310   12.5660  -18.9500 C.3     1  DCX1        0.0005
     12  C4        60.2310   15.1290  -18.9160 C.3     1  DCX1        0.0600
     13  P1        59.3290   15.8710  -17.5210 P.3     1  DCX1        0.1151
     14  C2        60.2210   17.2860  -16.8060 C.3     1  DCX1        0.0678
@<TRIPOS>BOND
     1     4     5    1
     2     6     5    1
     3     6     7    1
     4     7     8    1
     5     8     9    1
     6     9    10    1
     7    10    11    1
     8    11     3    1
     9    12     3    1
    10    12    13    1
    11     2    13    2
    12    13    14    1
    13    13     1    1
