@<TRIPOS>MOLECULE
2z5y_DCX_A_1.pdb
 14 13 0 0 0
SMALL
GASTEIGER

@<TRIPOS>ATOM
      1  C3       -59.5450  -20.1550  -22.3600 C.3     1  DCX1        0.0678
      2  O4       -60.4500  -18.8880  -24.6140 O.2     1  DCX1       -0.3191
      3  C6       -62.6480  -17.3370  -22.1700 C.3     1  DCX1        0.0078
      4  C14      -64.9080   -9.7910  -27.0770 C.3     1  DCX1        0.0000
      5  C13      -65.5570  -10.4710  -25.8560 C.3     1  DCX1        0.0000
      6  C12      -64.5510  -11.3360  -25.0850 C.3     1  DCX1        0.0000
      7  C11      -64.8950  -12.8280  -25.1660 C.3     1  DCX1        0.0000
      8  C10      -64.4500  -13.5290  -23.8830 C.3     1  DCX1        0.0000
      9  C9       -62.9500  -13.8560  -23.8950 C.3     1  DCX1        0.0000
     10  C8       -62.5790  -14.8880  -22.8290 C.3     1  DCX1        0.0000
     11  C7       -62.8730  -16.3150  -23.2920 C.3     1  DCX1        0.0005
     12  C4       -61.1870  -17.8320  -22.1560 C.3     1  DCX1        0.0600
     13  P1       -60.8480  -19.2890  -23.2450 P.3     1  DCX1        0.1151
     14  C2       -62.2850  -20.3800  -23.2030 C.3     1  DCX1        0.0678
@<TRIPOS>BOND
     1     4     5    1
     2     5     6    1
     3     7     6    1
     4     7     8    1
     5     2    13    2
     6     9     8    1
     7     9    10    1
     8    11    10    1
     9    11     3    1
    10    13    14    1
    11    13     1    1
    12    13    12    1
    13     3    12    1
