@<TRIPOS>MOLECULE
2z5y_HRM_A_1.pdb
 16 18 0 0 0
SMALL
GASTEIGER

@<TRIPOS>ATOM
      1  CAB      -38.2380  -26.7510  -18.0340 C.3   700  HRM700      0.0548
      2  CAL      -38.3410  -27.2670  -16.6110 C.ar  700  HRM700      0.0888
      3  NAH      -37.3460  -28.0270  -16.1350 N.ar  700  HRM700     -0.2456
      4  CAC      -37.3380  -28.4900  -14.8910 C.ar  700  HRM700      0.0986
      5  CAE      -38.3950  -28.2130  -14.0310 C.ar  700  HRM700      0.0230
      6  CAO      -39.4460  -27.4470  -14.5030 C.ar  700  HRM700      0.0308
      7  CAP      -39.4220  -26.9490  -15.8000 C.ar  700  HRM700      0.1442
      8  NAI      -40.5390  -26.2380  -15.9950 N.2   700  HRM700     -0.4049
      9  CAM      -41.2740  -26.2710  -14.8810 C.2   700  HRM700      0.1130
     10  CAG      -42.5040  -25.7030  -14.5890 C.3   700  HRM700      0.1220
     11  CAN      -40.6000  -26.9910  -13.9150 C.2   700  HRM700      0.0107
     12  CAF      -41.1300  -27.1930  -12.6550 C.3   700  HRM700      0.0575
     13  CAD      -42.3780  -26.6340  -12.3420 C.2   700  HRM700      0.0114
     14  CAK      -43.0710  -25.9000  -13.3180 C.2   700  HRM700      0.1194
     15  OAJ      -44.2710  -25.3400  -13.0070 O.2   700  HRM700     -0.4756
     16  CAA      -44.9890  -24.9820  -14.2340 C.3   700  HRM700      0.2520
@<TRIPOS>BOND
     1     1     2    1
     2     2     3   ar
     3     2     7   ar
     4     3     4   ar
     5     8     7    2
     6     8     9    2
     7     7     6   ar
     8     4     5   ar
     9     9    10    1
    10     9    11    1
    11    10    14    1
    12     6     5   ar
    13     6    11    2
    14    16    15    1
    15    11    12    1
    16    14    15    1
    17    14    13    2
    18    12    13    1
