@<TRIPOS>MOLECULE
2z5z_HEM_A_1.pdb
 43 50 0 0 0
SMALL
GASTEIGER

@<TRIPOS>ATOM
      1  CHA        8.4700    0.1100   29.1480 C.2   619  HEM619      0.0000
      2  CHB        8.9170    4.7680   29.2980 C.2   619  HEM619      0.0000
      3  CHC       10.7590    4.7660   24.8780 C.2   619  HEM619      0.0000
      4  CHD       10.7320    0.0550   24.8820 C.2   619  HEM619      0.0000
      5  C1A        8.4270    1.3620   29.5930 C.2   619  HEM619      0.0000
      6  C2A        7.9890    1.7610   30.8740 C.2   619  HEM619      0.0000
      7  C3A        8.1340    3.0890   30.9220 C.2   619  HEM619      0.0000
      8  C4A        8.6410    3.5050   29.6660 C.2   619  HEM619      0.0000
      9  CMA        7.7780    4.0280   32.0840 C.3   619  HEM619      0.0000
     10  CAA        7.4620    0.7830   31.9460 C.3   619  HEM619      0.0000
     11  CBA        8.3860    0.7370   33.1510 C.3   619  HEM619      0.0000
     12  CGA        7.8850   -0.2830   34.1530 C.2   619  HEM619      0.0000
     13  O1A        6.9310    0.0120   34.9570 O.co2 619  HEM619      0.0000
     14  O2A        8.4150   -1.4420   34.0970 O.co2 619  HEM619      0.0000
     15  C1B        9.3920    5.1590   28.0950 C.ar  619  HEM619      0.0000
     16  C2B        9.5510    6.5050   27.6690 C.ar  619  HEM619      0.0000
     17  C3B       10.0560    6.4820   26.4530 C.ar  619  HEM619      0.0000
     18  C4B       10.2090    5.1450   26.0610 C.ar  619  HEM619      0.0000
     19  CMB        9.3060    7.7880   28.4850 C.3   619  HEM619      0.0000
     20  CAB       10.3370    7.7130   25.5770 C.2   619  HEM619      0.0000
     21  CBB       11.5270    8.2820   25.6010 C.2   619  HEM619      0.0000
     22  C1C       10.9580    3.4860   24.4600 C.2   619  HEM619      0.0000
     23  C2C       11.5120    3.0560   23.2250 C.2   619  HEM619      0.0000
     24  C3C       11.5430    1.6770   23.2600 C.2   619  HEM619      0.0000
     25  C4C       10.9540    1.3200   24.4980 C.2   619  HEM619      0.0000
     26  CMC       12.0120    4.0430   22.1160 C.3   619  HEM619      0.0000
     27  CAC       12.0530    0.6690   22.1880 C.2   619  HEM619      0.0000
     28  CBC       12.4410    0.8980   20.9700 C.2   619  HEM619      0.0000
     29  C1D       10.1020   -0.3220   26.0320 C.ar  619  HEM619      0.0000
     30  C2D        9.8180   -1.6910   26.3240 C.ar  619  HEM619      0.0000
     31  C3D        8.9950   -1.6840   27.6010 C.ar  619  HEM619      0.0000
     32  C4D        9.0440   -0.3220   28.0020 C.ar  619  HEM619      0.0000
     33  CMD       10.0710   -2.8950   25.4970 C.3   619  HEM619      0.0000
     34  CAD        8.3790   -2.9060   28.2870 C.3   619  HEM619      0.0000
     35  CBD        6.9230   -3.0980   27.7230 C.3   619  HEM619      0.0000
     36  CGD        6.0860   -4.1260   28.4990 C.2   619  HEM619      0.0000
     37  O1D        6.3150   -5.4360   28.3480 O.co2 619  HEM619      0.0000
     38  O2D        5.2050   -3.6940   29.2530 O.co2 619  HEM619      0.0000
     39  NA         8.8510    2.4320   28.8680 N.2   619  HEM619      0.0000
     40  NB         9.7980    4.3200   27.0880 N.ar  619  HEM619      0.0000
     41  NC        10.5950    2.4180   25.2110 N.2   619  HEM619      0.0000
     42  ND         9.6860    0.4730   27.0890 N.ar  619  HEM619      0.0000
     43 FE          9.8170    2.3220   26.9390 Fe    619  HEM619      0.0000
@<TRIPOS>BOND
     1    28    27    2
     2    26    23    1
     3    27    24    1
     4    23    24    2
     5    23    22    1
     6    24    25    1
     7    22     3    2
     8    22    41    1
     9    25     4    1
    10    25    41    2
    11     3    18    1
    12     4    29    2
    13    41    43    1
    14    33    30    1
    15    20    21    2
    16    20    17    1
    17    29    30   ar
    18    29    42   ar
    19    18    17   ar
    20    18    40   ar
    21    30    31   ar
    22    17    16   ar
    23    43    40    1
    24    43    42    1
    25    43    39    1
    26    40    15   ar
    27    42    32   ar
    28    31    32   ar
    29    31    34    1
    30    16    15   ar
    31    16    19    1
    32    35    34    1
    33    35    36    1
    34    32     1    2
    35    15     2    1
    36    37    36   ar
    37    36    38   ar
    38    39     5    2
    39    39     8    1
    40     1     5    1
    41     2     8    2
    42     5     6    1
    43     8     7    1
    44     6     7    2
    45     6    10    1
    46     7     9    1
    47    10    11    1
    48    11    12    1
    49    14    12   ar
    50    12    13   ar
