@<TRIPOS>MOLECULE
2z60_P3Y_A_1.pdb
 28 31 0 0 0
SMALL
GASTEIGER

@<TRIPOS>ATOM
      1  N1        16.5060   -9.2590    8.3320 N.2     1  P3Y1       -0.1922
      2  C2        17.2470   -8.4830    7.4880 C.2     1  P3Y1        0.1096
      3  C3        18.1980   -7.5600    7.9830 C.2     1  P3Y1        0.0221
      4  C4        18.3460   -7.4790    9.3900 C.2     1  P3Y1        0.0117
      5  C5        17.5490   -8.3090   10.2520 C.2     1  P3Y1        0.0641
      6  C6        16.6440   -9.1800    9.6830 C.1     1  P3Y1        0.0353
      7  C9        17.4640   -8.4560   11.6670 C.2     1  P3Y1        0.0322
      8  C10       16.4730   -9.4440   11.7990 C.2     1  P3Y1        0.1103
      9  N11       15.9650   -9.8960   10.6090 N.2     1  P3Y1       -0.1922
     10  C14       18.2100   -7.7730   12.7840 C.ar    1  P3Y1        0.0362
     11  C15       18.3520   -6.3410   12.8870 C.ar    1  P3Y1        0.1387
     12  C16       19.0910   -5.7890   14.0020 C.ar    1  P3Y1        0.0369
     13  C17       19.6640   -6.6250   14.9760 C.ar    1  P3Y1        0.0031
     14  C18       19.5160   -8.0170   14.8690 C.ar    1  P3Y1        0.0002
     15  C19       18.8000   -8.5850   13.7850 C.ar    1  P3Y1        0.0031
     16  O1        17.7490   -5.5430   11.8760 O.3     1  P3Y1       -0.4714
     17  C24       19.0080   -6.7250    7.0540 C.ar    1  P3Y1        0.0209
     18  C25       19.2180   -5.3330    7.2550 C.ar    1  P3Y1        0.0989
     19  N26       19.9670   -4.5750    6.3890 N.ar    1  P3Y1       -0.2422
     20  C27       20.5360   -5.1640    5.2910 C.ar    1  P3Y1        0.1034
     21  C28       20.3730   -6.5440    5.0260 C.ar    1  P3Y1        0.0727
     22  C29       19.6030   -7.3100    5.9250 C.ar    1  P3Y1        0.0077
     23  C33       21.0130   -7.1580    3.8420 C.2     1  P3Y1        0.2506
     24  O34       22.2250   -7.4060    3.8850 O.2     1  P3Y1       -0.2699
     25  N35       20.2490   -7.4680    2.6990 N.am    1  P3Y1       -0.2725
     26  C41       18.7740   -7.4760    2.6120 C.3     1  P3Y1        0.1152
     27  C45       21.0070   -7.9270    1.5160 C.3     1  P3Y1        0.1152
     28  C1        17.6720   -4.1120   12.0080 C.3     1  P3Y1        0.2525
@<TRIPOS>BOND
     1    27    25    1
     2    26    25    1
     3    25    23   am
     4    23    24    2
     5    23    21    1
     6    21    20   ar
     7    21    22   ar
     8    20    19   ar
     9    22    17   ar
    10    19    18   ar
    11    17    18   ar
    12    17     3    1
    13     2     3    2
    14     2     1    1
    15     3     4    1
    16     1     6    2
    17     4     5    2
    18     6     5    1
    19     6     9    2
    20     5     7    1
    21     9     8    1
    22     7     8    2
    23     7    10    1
    24    16    28    1
    25    16    11    1
    26    10    11   ar
    27    10    15   ar
    28    11    12   ar
    29    15    14   ar
    30    12    13   ar
    31    14    13   ar
