@<TRIPOS>MOLECULE
2z62_FUL_A_1.pdb
 10 10 0 0 0
SMALL
GASTEIGER

@<TRIPOS>ATOM
      1  C1         1.5240  -12.3930   21.5360 C.3   802  FUL802      0.1776
      2  C2         0.9860  -11.1930   22.3330 C.3   802  FUL802      0.2141
      3  O2        -0.4020  -11.3560   22.5390 O.3   802  FUL802     -0.2176
      4  C3         1.6730  -11.0040   23.6920 C.3   802  FUL802      0.2172
      5  O3         1.3820   -9.7250   24.2130 O.3   802  FUL802     -0.2175
      6  C4         3.1870  -11.2200   23.6100 C.3   802  FUL802      0.2116
      7  O4         3.8030  -10.1570   22.9090 O.3   802  FUL802     -0.2177
      8  C5         3.4580  -12.5440   22.8990 C.3   802  FUL802      0.1483
      9  C6         4.9430  -12.8890   22.8880 C.3   802  FUL802      0.0349
     10  O5         2.9440  -12.4640   21.5810 O.3   802  FUL802     -0.3508
@<TRIPOS>BOND
     1     1    10    1
     2     1     2    1
     3    10     8    1
     4     2     3    1
     5     2     4    1
     6     9     8    1
     7     8     6    1
     8     7     6    1
     9     6     4    1
    10     4     5    1
