@<TRIPOS>MOLECULE
2z67_PLP_A_1.pdb
 15 15 0 0 0
SMALL
GASTEIGER

@<TRIPOS>ATOM
      1  N1        11.5140   77.2460  115.6850 N.ar  1001  PLP1001    -0.2452
      2  C2        12.8070   77.5240  115.4750 C.ar  1001  PLP1001     0.0978
      3  C2A       13.8010   77.4460  116.6350 C.3   1001  PLP1001     0.0555
      4  C3        13.2380   77.9230  114.2150 C.ar  1001  PLP1001     0.2049
      5  O3        14.5510   78.1900  113.9840 O.3   1001  PLP1001    -0.2857
      6  C4        12.3110   78.0420  113.1870 C.ar  1001  PLP1001     0.0182
      7  C4A       12.7670   78.4710  111.7910 C.3   1001  PLP1001     0.0342
      8  C5        10.9730   77.7630  113.4380 C.ar  1001  PLP1001     0.0261
      9  C6        10.6190   77.3540  114.7190 C.ar  1001  PLP1001     0.0965
     10  C5A        9.8470   77.9920  112.4270 C.3   1001  PLP1001     0.1815
     11  O4P        9.3550   76.7610  111.8940 O.3   1001  PLP1001    -0.2653
     12  P          7.9650   76.7330  111.0830 P.3   1001  PLP1001     0.5329
     13  O1P        6.8120   76.4050  111.9510 O.3   1001  PLP1001    -0.1145
     14  O2P        8.1890   75.6400  109.9210 O.2   1001  PLP1001    -0.2224
     15  O3P        7.7950   78.1610  110.3600 O.3   1001  PLP1001    -0.1145
@<TRIPOS>BOND
     1    14    12    2
     2    15    12    1
     3    12    11    1
     4    12    13    1
     5     7     6    1
     6    11    10    1
     7    10     8    1
     8     6     8   ar
     9     6     4   ar
    10     8     9   ar
    11     5     4    1
    12     4     2   ar
    13     9     1   ar
    14     2     1   ar
    15     2     3    1
