@<TRIPOS>MOLECULE
2z68_TIL_A_1.pdb
 22 25 0 0 0
SMALL
GASTEIGER

@<TRIPOS>ATOM
      1  O2A       -2.6490   13.4830   45.9850 O.co2 901  TIL901      0.0000
      2  CGA       -3.1040   13.8740   44.8850 C.2   901  TIL901      0.0000
      3  O1A       -4.1680   14.5300   44.8250 O.co2 901  TIL901      0.0000
      4  CBA       -2.3720   13.5360   43.5950 C.3   901  TIL901      0.0000
      5  CAA       -3.3650   12.8690   42.6620 C.3   901  TIL901      0.0000
      6  CC5       -2.7350   12.4180   41.3610 C.ar  901  TIL901      0.0000
      7  CC6       -2.6130   13.3400   40.3170 C.ar  901  TIL901      0.0000
      8  CC1       -2.0490   12.9190   39.1170 C.ar  901  TIL901      0.0000
      9  CC2       -1.6270   11.6380   38.9350 C.ar  901  TIL901      0.0000
     10  CC3       -1.7230   10.6920   39.9780 C.ar  901  TIL901      0.0000
     11  CC4       -2.3100   11.0890   41.2020 C.ar  901  TIL901      0.0000
     12  OA        -1.8320   13.6820   38.0000 O.3   901  TIL901      0.0000
     13 CR         -0.6830   13.0100   36.7080 Cr.oh 901  TIL901      0.0000
     14  NB        -1.1000   11.4700   37.6710 N.pl3 901  TIL901      0.0000
     15  OB         0.2630   12.0490   35.4520 O.3   901  TIL901      0.0000
     16  CB2        0.2170   10.7140   35.1740 C.3   901  TIL901      0.0000
     17  CB1       -0.3810    9.8030   36.0330 C.2   901  TIL901      0.0000
     18  CB        -1.0110   10.2650   37.2830 C.2   901  TIL901      0.0000
     19  CB3        0.8170   10.2410   33.9990 C.2   901  TIL901      0.0000
     20  CB4        0.7970    8.8840   33.6760 C.2   901  TIL901      0.0000
     21  CB5        0.1800    7.9740   34.5370 C.2   901  TIL901      0.0000
     22  CB6       -0.4190    8.4300   35.7190 C.2   901  TIL901      0.0000
@<TRIPOS>BOND
     1    20    19    2
     2    20    21    1
     3    19    16    1
     4    21    22    2
     5    16    15    1
     6    16    17    1
     7    15    13    1
     8    22    17    1
     9    17    18    2
    10    13    14    1
    11    13    12    1
    12    18    14    1
    13    14     9    1
    14    12     8    1
    15     9     8   ar
    16     9    10   ar
    17     8     7   ar
    18    10    11   ar
    19     7     6   ar
    20    11     6   ar
    21     6     5    1
    22     5     4    1
    23     4     2    1
    24     3     2   ar
    25     2     1   ar
