@<TRIPOS>MOLECULE
2z6a_SAH_A_1.pdb
 26 28 0 0 0
SMALL
GASTEIGER

@<TRIPOS>ATOM
      1  N        -18.4460   31.0470   80.5180 N.3   328  SAH328     -0.1208
      2  CA       -19.0680   30.4030   81.7510 C.3   328  SAH328      0.1952
      3  CB       -18.9050   31.0500   83.0740 C.3   328  SAH328      0.0422
      4  CG       -17.5140   31.3690   83.5480 C.3   328  SAH328      0.0597
      5  SD       -17.6720   31.8890   85.2890 S.3   328  SAH328     -0.1375
      6  C        -20.6020   30.1730   81.4410 C.2   328  SAH328      0.3819
      7  O        -21.0590   30.4990   80.3480 O.co2 328  SAH328     -0.2441
      8  OXT      -21.2920   29.6410   82.3810 O.co2 328  SAH328     -0.2441
      9  C5'      -16.1660   31.3430   85.9410 C.3   328  SAH328      0.0899
     10  C4'      -16.2960   29.8150   86.3650 C.3   328  SAH328      0.1630
     11  O4'      -15.0120   29.5550   86.8680 O.3   328  SAH328     -0.3153
     12  C3'      -17.2160   29.5150   87.5200 C.3   328  SAH328      0.2168
     13  O3'      -18.2680   28.6680   87.1210 O.3   328  SAH328     -0.2175
     14  C2'      -16.2460   28.8850   88.5780 C.3   328  SAH328      0.2569
     15  O2'      -16.8830   27.8970   89.3530 O.3   328  SAH328     -0.2130
     16  C1'      -15.1040   28.3770   87.7090 C.3   328  SAH328      0.3185
     17  N9       -13.9070   28.2030   88.2850 N.pl3 328  SAH328     -0.1439
     18  C8       -13.1140   29.0160   89.0750 C.3   328  SAH328      0.3377
     19  N7       -11.9970   28.5000   89.4470 N.2   328  SAH328     -0.2095
     20  C5       -11.9910   27.1990   88.8700 C.2   328  SAH328      0.2526
     21  C6       -11.0100   26.1320   88.9170 C.2   328  SAH328      0.4393
     22  N6        -9.8430   26.2090   89.5740 N.pl3 328  SAH328      0.2180
     23  N1       -11.3610   25.0020   88.2270 N.2   328  SAH328      0.0021
     24  C2       -12.5370   24.8770   87.5410 C.3   328  SAH328      0.5254
     25  N3       -13.4980   25.8690   87.4690 N.2   328  SAH328     -0.0055
     26  C4       -13.1540   26.9990   88.1550 C.2   328  SAH328      0.3518
@<TRIPOS>BOND
     1     7     6   ar
     2     1     2    1
     3     6     2    1
     4     6     8   ar
     5     2     3    1
     6     3     4    1
     7     4     5    1
     8     5     9    1
     9     9    10    1
    10    10    11    1
    11    10    12    1
    12    11    16    1
    13    13    12    1
    14    25    24    1
    15    25    26    2
    16    12    14    1
    17    24    23    1
    18    16    17    1
    19    16    14    1
    20    26    17    1
    21    26    20    1
    22    23    21    2
    23    17    18    1
    24    14    15    1
    25    20    21    1
    26    20    19    2
    27    21    22    1
    28    18    19    1
