@<TRIPOS>MOLECULE
2z6c_FMN_A_1.pdb
 31 33 0 0 0
SMALL
GASTEIGER

@<TRIPOS>ATOM
      1  N1        64.0130   33.5560   -3.4280 N.2   500  FMN500     -0.2887
      2  C2        63.8360   34.8970   -3.7510 C.1   500  FMN500      0.3669
      3  O2        64.1590   35.7350   -2.9330 O.2   500  FMN500     -0.1744
      4  N3        63.2530   35.2920   -4.9290 N.2   500  FMN500     -0.2300
      5  C4        62.8940   34.3540   -5.8860 C.1   500  FMN500      0.2513
      6  O4        62.3300   34.7010   -6.9450 O.2   500  FMN500     -0.2057
      7  C4A       63.0760   33.0130   -5.5760 C.2   500  FMN500      0.2703
      8  N5        62.7110   32.0400   -6.4940 N.2   500  FMN500     -0.3882
      9  C5A       62.8920   30.7020   -6.1900 C.2   500  FMN500      0.1277
     10  C6        62.5220   29.7110   -7.1180 C.3   500  FMN500      0.0820
     11  C7        62.7260   28.3620   -6.8220 C.2   500  FMN500     -0.0408
     12  C7M       62.3190   27.3510   -7.8500 C.3   500  FMN500      0.0265
     13  C8        63.2580   27.9900   -5.5840 C.2   500  FMN500     -0.0280
     14  C8M       63.7060   26.5700   -5.2450 C.3   500  FMN500      0.0304
     15  C9        63.6210   28.9780   -4.6880 C.2   500  FMN500      0.0123
     16  C9A       63.4420   30.3250   -4.9620 C.2   500  FMN500      0.0793
     17  N10       63.7910   31.2800   -4.0290 N.pl3 500  FMN500     -0.2545
     18  C10       63.6070   32.6270   -4.3390 C.2   500  FMN500      0.2449
     19  C1'       64.1810   30.9320   -2.6250 C.3   500  FMN500      0.1336
     20  C2'       65.7170   30.8170   -2.4390 C.3   500  FMN500      0.2048
     21  O2'       66.3520   30.2850   -3.5880 O.3   500  FMN500     -0.2185
     22  C3'       66.0250   29.9590   -1.2050 C.3   500  FMN500      0.2165
     23  O3'       65.3540   28.7000   -1.3050 O.3   500  FMN500     -0.2175
     24  C4'       65.5710   30.7260    0.0600 C.3   500  FMN500      0.2147
     25  O4'       66.3820   31.8760    0.2450 O.3   500  FMN500     -0.2176
     26  C5'       65.5710   29.8940    1.3470 C.3   500  FMN500      0.1892
     27  O5'       66.7900   29.1510    1.4890 O.3   500  FMN500     -0.2674
     28  P         68.0140   29.8500    2.3140 P.3   500  FMN500      0.5327
     29  O1P       68.3960   31.1310    1.5700 O.2   500  FMN500     -0.2224
     30  O2P       69.1080   28.8250    2.3640 O.3   500  FMN500     -0.1145
     31  O3P       67.5480   30.2250    3.6530 O.3   500  FMN500     -0.1145
@<TRIPOS>BOND
     1    12    11    1
     2    10    11    1
     3    10     9    1
     4     6     5    2
     5    11    13    2
     6     8     9    2
     7     8     7    2
     8     9    16    1
     9     5     7    1
    10     5     4    2
    11    13    14    1
    12    13    15    1
    13     7    18    1
    14    16    15    2
    15    16    17    1
    16     4     2    2
    17    18    17    1
    18    18     1    2
    19    17    19    1
    20     2     1    2
    21     2     3    2
    22    21    20    1
    23    19    20    1
    24    20    22    1
    25    23    22    1
    26    22    24    1
    27    24    25    1
    28    24    26    1
    29    26    27    1
    30    27    28    1
    31    29    28    2
    32    28    30    1
    33    28    31    1
