@<TRIPOS>MOLECULE
2z6d_FMN_A_1.pdb
 31 33 0 0 0
SMALL
GASTEIGER

@<TRIPOS>ATOM
      1  N1        -8.5360  -53.9420   12.2370 N.2   500  FMN500     -0.2887
      2  C2        -9.3150  -54.3370   11.1740 C.1   500  FMN500      0.3669
      3  O2        -8.8600  -55.1490   10.3950 O.2   500  FMN500     -0.1744
      4  N3       -10.5920  -53.8330   11.0120 N.2   500  FMN500     -0.2300
      5  C4       -11.1180  -52.9280   11.9490 C.1   500  FMN500      0.2513
      6  O4       -12.2610  -52.4100   11.7960 O.2   500  FMN500     -0.2057
      7  C4A      -10.3030  -52.5110   13.0090 C.2   500  FMN500      0.2706
      8  N5       -10.7670  -51.5940   13.9430 N.2   500  FMN500     -0.3841
      9  C5A       -9.9830  -51.2220   14.9890 C.2   500  FMN500      0.1452
     10  C6       -10.4810  -50.3180   15.9290 C.2   500  FMN500      0.0252
     11  C7        -9.6900  -49.8870   16.9850 C.2   500  FMN500     -0.0375
     12  C7M      -10.3050  -49.0070   18.0690 C.3   500  FMN500      0.0268
     13  C8        -8.3710  -50.3900   17.1280 C.3   500  FMN500      0.0417
     14  C8M       -7.4490  -49.9110   18.2580 C.3   500  FMN500      0.0091
     15  C9        -7.8850  -51.2930   16.1910 C.2   500  FMN500     -0.0049
     16  C9A       -8.6760  -51.6950   15.0990 C.2   500  FMN500      0.0795
     17  N10       -8.2010  -52.6130   14.1950 N.pl3 500  FMN500     -0.2545
     18  C10       -9.0150  -53.0230   13.1420 C.2   500  FMN500      0.2449
     19  C1'       -6.7320  -52.9350   14.1100 C.3   500  FMN500      0.1336
     20  C2'       -6.4260  -54.2390   14.8300 C.3   500  FMN500      0.2048
     21  O2'       -7.1200  -54.2820   16.0600 O.3   500  FMN500     -0.2185
     22  C3'       -4.9190  -54.3660   15.1330 C.3   500  FMN500      0.2165
     23  O3'       -4.5380  -53.2120   15.8510 O.3   500  FMN500     -0.2175
     24  C4'       -4.1010  -54.5720   13.8480 C.3   500  FMN500      0.2147
     25  O4'       -4.4610  -55.8280   13.2900 O.3   500  FMN500     -0.2176
     26  C5'       -2.5750  -54.4570   14.0130 C.3   500  FMN500      0.1892
     27  O5'       -2.0520  -55.2040   15.1010 O.3   500  FMN500     -0.2674
     28  P         -1.6800  -56.7930   14.9410 P.3   500  FMN500      0.5327
     29  O1P       -2.9150  -57.5960   14.5210 O.3   500  FMN500     -0.1145
     30  O2P       -1.1910  -57.2370   16.3050 O.3   500  FMN500     -0.1145
     31  O3P       -0.7030  -57.0200   13.8140 O.2   500  FMN500     -0.2224
@<TRIPOS>BOND
     1     3     2    2
     2     4     2    2
     3     4     5    2
     4     2     1    2
     5     6     5    2
     6     5     7    1
     7     1    18    2
     8     7    18    1
     9     7     8    2
    10    18    17    1
    11    25    24    1
    12    31    28    2
    13    24    26    1
    14    24    22    1
    15     8     9    2
    16    26    27    1
    17    19    17    1
    18    19    20    1
    19    17    16    1
    20    29    28    1
    21    20    22    1
    22    20    21    1
    23    28    27    1
    24    28    30    1
    25     9    16    1
    26     9    10    1
    27    16    15    2
    28    22    23    1
    29    10    11    2
    30    15    13    1
    31    11    13    1
    32    11    12    1
    33    13    14    1
