@<TRIPOS>MOLECULE
2z6i_FMN_A_1.pdb
 31 33 0 0 0
SMALL
GASTEIGER

@<TRIPOS>ATOM
      1  N1         8.5440   -0.0330   12.1520 N.2   401  FMN401     -0.2887
      2  C2         8.3390   -1.0110   11.1990 C.1   401  FMN401      0.3669
      3  O2         7.3650   -0.9170   10.4490 O.2   401  FMN401     -0.1744
      4  N3         9.2090   -2.0950   11.1290 N.2   401  FMN401     -0.2300
      5  C4        10.2960   -2.1810   11.9870 C.1   401  FMN401      0.2513
      6  O4        11.0760   -3.1540   11.9110 O.2   401  FMN401     -0.2057
      7  C4A       10.5120   -1.1640   12.9300 C.2   401  FMN401      0.2706
      8  N5        11.5680   -1.2300   13.8180 N.2   401  FMN401     -0.3841
      9  C5A       11.6710   -0.3360   14.8690 C.2   401  FMN401      0.1452
     10  C6        12.6570   -0.5050   15.8440 C.2   401  FMN401      0.0252
     11  C7        12.7810    0.3890   16.9190 C.2   401  FMN401     -0.0375
     12  C7M       13.8620    0.1620   17.9440 C.3   401  FMN401      0.0268
     13  C8        11.8970    1.4760   17.0100 C.3   401  FMN401      0.0417
     14  C8M       11.9590    2.4830   18.1370 C.3   401  FMN401      0.0091
     15  C9        10.9180    1.6430   16.0160 C.2   401  FMN401     -0.0049
     16  C9A       10.7830    0.7480   14.9490 C.2   401  FMN401      0.0795
     17  N10        9.7960    0.9070   13.9730 N.pl3 401  FMN401     -0.2545
     18  C10        9.6600   -0.0540   12.9740 C.2   401  FMN401      0.2449
     19  C1'        8.6950    1.9260   14.1260 C.3   401  FMN401      0.1336
     20  C2'        7.6310    1.4910   15.1520 C.3   401  FMN401      0.2048
     21  O2'        6.9480    0.2950   14.7510 O.3   401  FMN401     -0.2185
     22  C3'        6.6720    2.6400   15.5510 C.3   401  FMN401      0.2165
     23  O3'        5.7770    2.9560   14.5050 O.3   401  FMN401     -0.2175
     24  C4'        7.4220    3.9160   15.9740 C.3   401  FMN401      0.2147
     25  O4'        8.4110    3.5990   16.9480 O.3   401  FMN401     -0.2176
     26  C5'        6.4340    4.9530   16.5130 C.3   401  FMN401      0.1892
     27  O5'        7.0450    6.1920   16.8520 O.3   401  FMN401     -0.2674
     28  P          7.6570    6.4230   18.3210 P.3   401  FMN401      0.5327
     29  O1P        7.7980    7.9270   18.4120 O.3   401  FMN401     -0.1145
     30  O2P        8.9730    5.6830   18.3530 O.2   401  FMN401     -0.2224
     31  O3P        6.6520    5.8760   19.3140 O.3   401  FMN401     -0.1145
@<TRIPOS>BOND
     1     3     2    2
     2     4     2    2
     3     4     5    2
     4     2     1    2
     5     6     5    2
     6     5     7    1
     7     1    18    2
     8     7    18    1
     9     7     8    2
    10    18    17    1
    11     8     9    2
    12    17    19    1
    13    17    16    1
    14    19    20    1
    15    23    22    1
    16    21    20    1
    17     9    16    1
    18     9    10    1
    19    16    15    2
    20    20    22    1
    21    22    24    1
    22    10    11    2
    23    24    26    1
    24    24    25    1
    25    15    13    1
    26    26    27    1
    27    27    28    1
    28    11    13    1
    29    11    12    1
    30    13    14    1
    31    28    30    2
    32    28    29    1
    33    28    31    1
