@<TRIPOS>MOLECULE
2z6j_FMN_A_1.pdb
 31 33 0 0 0
SMALL
GASTEIGER

@<TRIPOS>ATOM
      1  N1         7.6870   -0.4490   12.4890 N.2   401  FMN401     -0.2890
      2  C2         7.4350   -1.4560   11.5850 C.1   401  FMN401      0.3669
      3  O2         6.4640   -1.3450   10.8420 O.2   401  FMN401     -0.1744
      4  N3         8.2600   -2.5680   11.5260 N.2   401  FMN401     -0.2300
      5  C4         9.3440   -2.6550   12.3890 C.1   401  FMN401      0.2513
      6  O4        10.0740   -3.6460   12.3140 O.2   401  FMN401     -0.2057
      7  C4A        9.5970   -1.6280   13.3120 C.2   401  FMN401      0.2700
      8  N5        10.6690   -1.6840   14.1790 N.2   401  FMN401     -0.3878
      9  C5A       10.8660   -0.6800   15.1350 C.2   401  FMN401      0.1320
     10  C6        11.9290   -0.7800   16.0440 C.2   401  FMN401      0.0250
     11  C7        12.1630    0.2120   17.0020 C.2   401  FMN401     -0.0238
     12  C7M       13.3110    0.0420   17.9530 C.3   401  FMN401      0.0308
     13  C8        11.3100    1.3230   17.0610 C.2   401  FMN401     -0.0280
     14  C8M       11.5070    2.4150   18.0720 C.3   401  FMN401      0.0304
     15  C9        10.2480    1.4270   16.1560 C.2   401  FMN401     -0.0041
     16  C9A       10.0150    0.4330   15.1860 C.3   401  FMN401      0.1497
     17  N10        8.9600    0.5280   14.2650 N.pl3 401  FMN401     -0.2691
     18  C10        8.7640   -0.5030   13.3450 C.2   401  FMN401      0.2416
     19  C1'        7.8770    1.5690   14.4150 C.3   401  FMN401      0.1294
     20  C2'        6.9800    1.3320   15.6470 C.3   401  FMN401      0.2044
     21  O2'        6.2670    0.1180   15.5190 O.3   401  FMN401     -0.2185
     22  C3'        6.0310    2.5120   15.9440 C.3   401  FMN401      0.2164
     23  O3'        5.1880    2.7960   14.8480 O.3   401  FMN401     -0.2175
     24  C4'        6.7840    3.8080   16.2520 C.3   401  FMN401      0.2147
     25  O4'        7.8660    3.5450   17.1310 O.3   401  FMN401     -0.2176
     26  C5'        5.8330    4.8440   16.8460 C.3   401  FMN401      0.1892
     27  O5'        6.5530    6.0280   17.1360 O.3   401  FMN401     -0.2674
     28  P          7.0780    6.3190   18.6330 P.3   401  FMN401      0.5327
     29  O1P        7.1270    7.8060   18.8960 O.3   401  FMN401     -0.1145
     30  O2P        8.4270    5.6780   18.8040 O.2   401  FMN401     -0.2224
     31  O3P        6.1090    5.7430   19.6450 O.3   401  FMN401     -0.1145
@<TRIPOS>BOND
     1     3     2    2
     2     4     2    2
     3     4     5    2
     4     2     1    2
     5     6     5    2
     6     5     7    1
     7     1    18    2
     8     7    18    1
     9     7     8    2
    10    18    17    1
    11     8     9    2
    12    17    19    1
    13    17    16    1
    14    19    20    1
    15    23    22    1
    16     9    16    1
    17     9    10    1
    18    16    15    1
    19    21    20    1
    20    20    22    1
    21    22    24    1
    22    10    11    2
    23    15    13    2
    24    24    26    1
    25    24    25    1
    26    26    27    1
    27    11    13    1
    28    11    12    1
    29    13    14    1
    30    27    28    1
    31    28    30    2
    32    28    29    1
    33    28    31    1
