@<TRIPOS>MOLECULE
2z6j_TUI_A_1.pdb
 33 36 0 0 0
SMALL
GASTEIGER

@<TRIPOS>ATOM
      1  O21        9.1880    0.3820    9.1900 O.2   501  TUI501     -0.2487
      2  C19        9.1990    1.1640   10.1290 C.2   501  TUI501      0.3463
      3  N20       10.2120    1.2130   11.0000 N.am  501  TUI501     -0.1359
      4  C22       11.2220    0.3370   11.0820 C.ar  501  TUI501      0.1878
      5  S23       11.5410   -0.9540   10.0740 S.2   501  TUI501     -0.0430
      6  C24       12.9140   -1.4150   10.9210 C.ar  501  TUI501      0.0819
      7  S27       13.9470   -2.7040   10.6040 S.3   501  TUI501     -0.0598
      8  C28       14.8600   -2.3950    9.2020 C.ar  501  TUI501      0.1112
      9  N29       15.8150   -3.2770    8.8050 N.ar  501  TUI501     -0.2373
     10  C30       16.5560   -3.0710    7.7040 C.ar  501  TUI501      0.0994
     11  C31       16.3630   -1.9350    6.9220 C.ar  501  TUI501      0.0207
     12  C32       15.3920   -1.0140    7.3000 C.ar  501  TUI501      0.0037
     13  C33       14.6280   -1.2390    8.4450 C.ar  501  TUI501      0.0258
     14  C25       13.0230   -0.5220   11.9180 C.ar  501  TUI501      0.1139
     15  N26       12.1310    0.3680   11.9670 N.ar  501  TUI501     -0.2204
     16  N18        8.1830    2.0030   10.3240 N.am  501  TUI501     -0.1693
     17  C17        6.9420    1.9760    9.5730 C.3   501  TUI501      0.2273
     18  C15        7.1570    2.6460    8.2370 C.1   501  TUI501      0.0819
     19  N16        6.6410    2.2390    7.0630 N.2   501  TUI501     -0.3557
     20  N14        7.9200    3.7340    8.0770 N.2   501  TUI501     -0.2047
     21  C13        7.9060    4.0700    6.7710 C.3   501  TUI501      0.1963
     22  C12        7.1020    3.1220    6.1560 C.2   501  TUI501      0.1453
     23  C3         6.7750    3.0580    4.7080 C.ar  501  TUI501      0.0285
     24  C2         5.6610    2.3160    4.2970 C.ar  501  TUI501      0.0054
     25  C1         5.3330    2.2300    2.9500 C.ar  501  TUI501      0.0370
     26  C4         7.5720    3.7150    3.7730 C.ar  501  TUI501      0.0054
     27  C5         7.2380    3.6220    2.4240 C.ar  501  TUI501      0.0370
     28  C6         6.1250    2.8810    2.0160 C.ar  501  TUI501      0.1394
     29  O7         5.7960    2.7950    0.6890 O.3   501  TUI501     -0.4637
     30  C8         6.6310    2.0620   -0.2080 C.3   501  TUI501      0.3186
     31  C9         6.5940    2.7330   -1.5560 C.2   501  TUI501      0.4084
     32  O11        5.4670    2.9240   -2.0690 O.co2 501  TUI501     -0.2415
     33  O10        7.6790    3.0720   -2.0900 O.co2 501  TUI501     -0.2415
@<TRIPOS>BOND
     1    33    31   ar
     2    32    31   ar
     3    31    30    1
     4    30    29    1
     5    29    28    1
     6    28    27   ar
     7    28    25   ar
     8    27    26   ar
     9    25    24   ar
    10    26    23   ar
    11    24    23   ar
    12    23    22    1
    13    22    21    1
    14    22    19    2
    15    21    20    1
    16    11    12   ar
    17    11    10   ar
    18    19    18    2
    19    12    13   ar
    20    10     9   ar
    21    20    18    2
    22    18    17    1
    23    13     8   ar
    24     9     8   ar
    25     1     2    2
    26     8     7    1
    27    17    16    1
    28     5     6   ar
    29     5     4   ar
    30     2    16   am
    31     2     3   am
    32     7     6    1
    33     6    14   ar
    34     3     4    1
    35     4    15   ar
    36    14    15   ar
