@<TRIPOS>MOLECULE
2z6n_HEM_A_1.pdb
 43 50 0 0 0
SMALL
GASTEIGER

@<TRIPOS>ATOM
      1 FE         41.0390   12.0620    8.3370 Fe    150  HEM150      0.0000
      2  CHA       41.3840   10.9560    5.1300 C.2   150  HEM150      0.0000
      3  CHB       39.2970    9.1340    9.1240 C.2   150  HEM150      0.0000
      4  CHC       40.6520   13.2060   11.5310 C.2   150  HEM150      0.0000
      5  CHD       42.7090   15.0460    7.4970 C.2   150  HEM150      0.0000
      6  NA        40.4660   10.3850    7.3430 N.2   150  HEM150      0.0000
      7  C1A       40.7170   10.1120    5.9970 C.2   150  HEM150      0.0000
      8  C2A       40.1690    8.7990    5.6180 C.2   150  HEM150      0.0000
      9  C3A       39.5630    8.2800    6.7510 C.2   150  HEM150      0.0000
     10  C4A       39.7540    9.2670    7.8150 C.2   150  HEM150      0.0000
     11  CMA       38.8370    6.9390    6.8780 C.3   150  HEM150      0.0000
     12  CAA       40.2750    8.1690    4.2210 C.3   150  HEM150      0.0000
     13  CBA       39.0620    8.4500    3.2810 C.3   150  HEM150      0.0000
     14  CGA       39.1380    7.7010    1.9380 C.2   150  HEM150      0.0000
     15  O1A       38.5460    8.2100    0.9620 O.co2 150  HEM150      0.0000
     16  O2A       39.7950    6.6410    1.9160 O.co2 150  HEM150      0.0000
     17  NB        40.1590   11.3000    9.9670 N.ar  150  HEM150      0.0000
     18  C1B       39.4890   10.0940   10.1360 C.ar  150  HEM150      0.0000
     19  C2B       39.0030    9.9440   11.5020 C.ar  150  HEM150      0.0000
     20  C3B       39.3820   11.0940   12.2050 C.ar  150  HEM150      0.0000
     21  C4B       40.1100   11.9500   11.2320 C.ar  150  HEM150      0.0000
     22  CMB       38.2240    8.7330   12.0270 C.3   150  HEM150      0.0000
     23  CAB       39.1040   11.4230   13.7000 C.3   150  HEM150      0.0000
     24  CBB       37.6910   11.6770   14.1510 C.3   150  HEM150      0.0000
     25  NC        41.5940   13.7910    9.3100 N.2   150  HEM150      0.0000
     26  C1C       41.3280   14.0490   10.6450 C.2   150  HEM150      0.0000
     27  C2C       41.8470   15.3660   11.0370 C.2   150  HEM150      0.0000
     28  C3C       42.4290   15.8870    9.8790 C.2   150  HEM150      0.0000
     29  C4C       42.2700   14.9010    8.8100 C.2   150  HEM150      0.0000
     30  CMC       41.7230   15.9710   12.4370 C.3   150  HEM150      0.0000
     31  CAC       43.1200   17.2610    9.7140 C.2   150  HEM150      0.0000
     32  CBC       42.4690   18.4420    9.8570 C.2   150  HEM150      0.0000
     33  ND        41.8880   12.8420    6.6390 N.ar  150  HEM150      0.0000
     34  C1D       42.5240   14.0830    6.4920 C.ar  150  HEM150      0.0000
     35  C2D       42.9630   14.2330    5.1030 C.ar  150  HEM150      0.0000
     36  C3D       42.5880   13.0800    4.4250 C.ar  150  HEM150      0.0000
     37  C4D       41.9180   12.2160    5.4160 C.ar  150  HEM150      0.0000
     38  CMD       43.6850   15.4250    4.4970 C.3   150  HEM150      0.0000
     39  CAD       42.8170   12.7850    2.9280 C.3   150  HEM150      0.0000
     40  CBD       41.4600   12.5600    2.1910 C.3   150  HEM150      0.0000
     41  CGD       41.3090   12.8350    0.6950 C.2   150  HEM150      0.0000
     42  O1D       42.2790   13.2520    0.0370 O.co2 150  HEM150      0.0000
     43  O2D       40.1760   12.6060    0.2380 O.co2 150  HEM150      0.0000
@<TRIPOS>BOND
     1    42    41   ar
     2    43    41   ar
     3    41    40    1
     4    15    14   ar
     5    16    14   ar
     6    14    13    1
     7    40    39    1
     8    39    36    1
     9    13    12    1
    10    12     8    1
    11    36    35   ar
    12    36    37   ar
    13    38    35    1
    14    35    34   ar
    15     2    37    2
    16     2     7    1
    17    37    33   ar
    18     8     7    1
    19     8     9    2
    20     7     6    2
    21    34    33   ar
    22    34     5    2
    23    33     1    1
    24     9    11    1
    25     9    10    1
    26     6    10    1
    27     6     1    1
    28     5    29    1
    29    10     3    2
    30     1    25    1
    31     1    17    1
    32    29    25    2
    33    29    28    1
    34     3    18    1
    35    25    26    1
    36    31    32    2
    37    31    28    1
    38    28    27    2
    39    17    18   ar
    40    17    21   ar
    41    18    19   ar
    42    26    27    1
    43    26     4    2
    44    27    30    1
    45    21     4    1
    46    21    20   ar
    47    19    22    1
    48    19    20   ar
    49    20    23    1
    50    23    24    1
