@<TRIPOS>MOLECULE
2z6q_DCZ_A_1.pdb
 16 17 0 0 0
SMALL
GASTEIGER

@<TRIPOS>ATOM
      1  N1       -18.7500   37.8240   83.9080 N.am  427  DCZ427     -0.1802
      2  C2       -18.0240   36.7150   83.4610 C.1   427  DCZ427      0.2756
      3  N3       -17.5620   36.6990   82.1860 N.2   427  DCZ427     -0.3024
      4  C4       -17.8380   37.7210   81.3610 C.2   427  DCZ427      0.2346
      5  C5       -18.6470   38.8210   81.7710 C.2   427  DCZ427      0.0687
      6  C6       -19.0790   38.8300   83.0400 C.2   427  DCZ427      0.0835
      7  O2       -17.8350   35.7710   84.2380 O.2   427  DCZ427     -0.1925
      8  N4       -17.3210   37.6960   80.1270 N.pl3 427  DCZ427     -0.0921
      9  C1'      -19.1040   37.9230   85.3290 C.3   427  DCZ427      0.2090
     10  C2'      -17.8710   37.7420   86.2120 C.3   427  DCZ427      0.0874
     11  C3'      -17.8950   38.9220   87.1680 C.3   427  DCZ427      0.1858
     12  C4'      -18.6650   39.9900   86.3860 C.3   427  DCZ427      0.1802
     13  O4'      -19.5700   39.2520   85.5340 O.3   427  DCZ427     -0.3338
     14  O3'      -18.4730   38.4450   88.3790 O.3   427  DCZ427     -0.2203
     15  C5'      -17.7860   40.8960   85.5450 C.3   427  DCZ427      0.2141
     16  O5'      -18.4200   41.7460   84.5870 O.3   427  DCZ427     -0.2176
@<TRIPOS>BOND
     1     8     4    1
     2     4     5    1
     3     4     3    2
     4     5     6    2
     5     3     2    2
     6     6     1    1
     7     2     1   am
     8     2     7    2
     9     1     9    1
    10    16    15    1
    11     9    13    1
    12     9    10    1
    13    13    12    1
    14    15    12    1
    15    10    11    1
    16    12    11    1
    17    11    14    1
