@<TRIPOS>MOLECULE
2z6q_SAH_A_1.pdb
 26 28 0 0 0
SMALL
GASTEIGER

@<TRIPOS>ATOM
      1  N        -16.5710   28.3570   79.6760 N.3   328  SAH328     -0.1208
      2  CA       -17.3700   28.3080   80.9750 C.3   328  SAH328      0.1952
      3  CB       -17.1690   29.3690   81.9870 C.3   328  SAH328      0.0422
      4  CG       -15.7810   29.6500   82.4890 C.3   328  SAH328      0.0597
      5  SD       -15.9120   29.8830   84.2930 S.3   328  SAH328     -0.1375
      6  C        -18.9000   28.2180   80.5880 C.2   328  SAH328      0.3819
      7  O        -19.2260   28.1980   79.3930 O.co2 328  SAH328     -0.2441
      8  OXT      -19.7230   28.1710   81.5760 O.co2 328  SAH328     -0.2441
      9  C5'      -14.3050   29.4680   84.7900 C.3   328  SAH328      0.0899
     10  C4'      -14.3270   27.9980   85.3770 C.3   328  SAH328      0.1630
     11  O4'      -12.9890   27.7900   85.7770 O.3   328  SAH328     -0.3153
     12  C3'      -15.1330   27.8120   86.6340 C.3   328  SAH328      0.2168
     13  O3'      -16.2560   26.9780   86.3950 O.3   328  SAH328     -0.2175
     14  C2'      -14.0650   27.2360   87.6440 C.3   328  SAH328      0.2569
     15  O2'      -14.6050   26.3040   88.5560 O.3   328  SAH328     -0.2130
     16  C1'      -13.0060   26.6730   86.7080 C.3   328  SAH328      0.3185
     17  N9       -11.7880   26.5180   87.2140 N.pl3 328  SAH328     -0.1439
     18  C8       -10.9640   27.3480   87.9360 C.3   328  SAH328      0.3377
     19  N7        -9.8300   26.8430   88.2630 N.2   328  SAH328     -0.2095
     20  C5        -9.8550   25.5410   87.7270 C.2   328  SAH328      0.2526
     21  C6        -8.8820   24.4870   87.7650 C.2   328  SAH328      0.4393
     22  N6        -7.6890   24.5950   88.3770 N.pl3 328  SAH328      0.2180
     23  N1        -9.2630   23.3310   87.1170 N.2   328  SAH328      0.0021
     24  C2       -10.4630   23.1880   86.4910 C.3   328  SAH328      0.5254
     25  N3       -11.4250   24.1800   86.4390 N.2   328  SAH328     -0.0055
     26  C4       -11.0470   25.3220   87.0780 C.2   328  SAH328      0.3518
@<TRIPOS>BOND
     1     7     6   ar
     2     1     2    1
     3     6     2    1
     4     6     8   ar
     5     2     3    1
     6     3     4    1
     7     4     5    1
     8     5     9    1
     9     9    10    1
    10    10    11    1
    11    10    12    1
    12    11    16    1
    13    13    12    1
    14    25    24    1
    15    25    26    2
    16    24    23    1
    17    12    14    1
    18    16    17    1
    19    16    14    1
    20    26    17    1
    21    26    20    1
    22    23    21    2
    23    17    18    1
    24    14    15    1
    25    20    21    1
    26    20    19    2
    27    21    22    1
    28    18    19    1
