@<TRIPOS>MOLECULE
2z6r_SAH_A_1.pdb
 26 28 0 0 0
SMALL
GASTEIGER

@<TRIPOS>ATOM
      1  N         34.2990   92.4790   67.9210 N.3   1300  SAH1300    -0.1208
      2  CA        32.8520   92.0500   67.7300 C.3   1300  SAH1300     0.1952
      3  CB        32.1830   91.4320   68.9240 C.3   1300  SAH1300     0.0422
      4  CG        32.8140   90.1930   69.5360 C.3   1300  SAH1300     0.0597
      5  SD        31.6520   89.5120   70.7890 S.3   1300  SAH1300    -0.1375
      6  C         32.0500   93.3290   67.2470 C.2   1300  SAH1300     0.3819
      7  O         32.6530   94.4130   67.1290 O.co2 1300  SAH1300    -0.2441
      8  OXT       30.7950   93.1520   67.0010 O.co2 1300  SAH1300    -0.2441
      9  C5'       30.7510   88.3950   69.7830 C.3   1300  SAH1300     0.0899
     10  C4'       29.2310   88.3170   70.2300 C.3   1300  SAH1300     0.1630
     11  O4'       28.6010   89.5800   69.8780 O.3   1300  SAH1300    -0.3153
     12  C3'       28.4290   87.2620   69.5560 C.3   1300  SAH1300     0.2168
     13  O3'       28.5800   86.0050   70.2110 O.3   1300  SAH1300    -0.2175
     14  C2'       27.0120   87.8780   69.6170 C.3   1300  SAH1300     0.2569
     15  O2'       26.4040   87.6790   70.8990 O.3   1300  SAH1300    -0.2130
     16  C1'       27.2530   89.3570   69.2780 C.3   1300  SAH1300     0.3185
     17  N9        27.2750   89.6680   67.9580 N.pl3 1300  SAH1300    -0.1439
     18  C8        28.2880   89.9160   67.0470 C.3   1300  SAH1300     0.3377
     19  N7        27.8930   90.1990   65.8440 N.2   1300  SAH1300    -0.2095
     20  C5        26.4820   90.1510   65.9140 C.2   1300  SAH1300     0.2526
     21  C6        25.4730   90.3790   64.9100 C.2   1300  SAH1300     0.4393
     22  N6        25.7400   90.7000   63.6310 N.pl3 1300  SAH1300     0.2180
     23  N1        24.1810   90.2440   65.3560 N.2   1300  SAH1300     0.0021
     24  C2        23.8560   89.9190   66.6400 C.3   1300  SAH1300     0.5254
     25  N3        24.7910   89.6940   67.6220 N.2   1300  SAH1300    -0.0055
     26  C4        26.0800   89.8280   67.1910 C.2   1300  SAH1300     0.3518
@<TRIPOS>BOND
     1    22    21    1
     2    21    23    2
     3    21    20    1
     4    23    24    1
     5    19    20    2
     6    19    18    1
     7    20    26    1
     8    24    25    1
     9     8     6   ar
    10    18    17    1
    11     7     6   ar
    12    26    25    2
    13    26    17    1
    14     6     2    1
    15     2     1    1
    16     2     3    1
    17    17    16    1
    18     3     4    1
    19    16    14    1
    20    16    11    1
    21     4     5    1
    22    12    14    1
    23    12    13    1
    24    12    10    1
    25    14    15    1
    26     9    10    1
    27     9     5    1
    28    11    10    1
