@<TRIPOS>MOLECULE
2z6s_HEM_A_1.pdb
 43 50 0 0 0
SMALL
GASTEIGER

@<TRIPOS>ATOM
      1 FE         -0.6210   27.0280   15.2720 Fe    201  HEM201      0.0000
      2  CHA       -0.4870   30.1120   16.6430 C.2   201  HEM201      0.0000
      3  CHB       -4.0940   27.0010   15.5530 C.2   201  HEM201      0.0000
      4  CHC       -0.7340   23.8580   13.9850 C.2   201  HEM201      0.0000
      5  CHD        2.7450   26.9780   15.2090 C.2   201  HEM201      0.0000
      6  NA        -1.9830   28.3140   15.9410 N.2   201  HEM201      0.0000
      7  C1A       -1.7770   29.6670   16.4840 C.2   201  HEM201      0.0000
      8  C2A       -3.0990   30.2450   16.7820 C.2   201  HEM201      0.0000
      9  C3A       -4.0610   29.3300   16.4790 C.2   201  HEM201      0.0000
     10  C4A       -3.4650   28.1420   15.9490 C.2   201  HEM201      0.0000
     11  CMA       -5.5250   29.4890   16.6220 C.3   201  HEM201      0.0000
     12  CAA       -3.2260   31.6340   17.2580 C.3   201  HEM201      0.0000
     13  CBA       -3.7520   32.5230   16.0860 C.3   201  HEM201      0.0000
     14  CGA       -2.8230   32.5910   14.9390 C.2   201  HEM201      0.0000
     15  O1A       -3.1900   32.1570   13.7950 O.co2 201  HEM201      0.0000
     16  O2A       -1.6460   33.0080   15.0850 O.co2 201  HEM201      0.0000
     17  NB        -2.0860   25.7320   14.8160 N.ar  201  HEM201      0.0000
     18  C1B       -3.4600   25.8400   14.9540 C.ar  201  HEM201      0.0000
     19  C2B       -4.1850   24.7260   14.5430 C.ar  201  HEM201      0.0000
     20  C3B       -3.2610   23.8060   14.1370 C.ar  201  HEM201      0.0000
     21  C4B       -2.0130   24.4810   14.2870 C.ar  201  HEM201      0.0000
     22  CMB       -5.7110   24.5770   14.5320 C.3   201  HEM201      0.0000
     23  CAB       -3.4160   22.4170   13.5890 C.2   201  HEM201      0.0000
     24  CBB       -4.3550   21.6360   14.0080 C.2   201  HEM201      0.0000
     25  NC         0.7310   25.7460   14.6920 N.2   201  HEM201      0.0000
     26  C1C        0.5600   24.4370   14.2500 C.2   201  HEM201      0.0000
     27  C2C        1.7280   23.6790   14.0750 C.2   201  HEM201      0.0000
     28  C3C        2.7490   24.5640   14.4580 C.2   201  HEM201      0.0000
     29  C4C        2.0800   25.8000   14.8080 C.2   201  HEM201      0.0000
     30  CMC        1.8930   22.2550   13.5850 C.3   201  HEM201      0.0000
     31  CAC        4.2430   24.3670   14.6580 C.2   201  HEM201      0.0000
     32  CBC        4.8900   23.3420   14.3430 C.2   201  HEM201      0.0000
     33  ND         0.8240   28.2990   15.7370 N.ar  201  HEM201      0.0000
     34  C1D        2.1600   28.1740   15.6680 C.ar  201  HEM201      0.0000
     35  C2D        2.9430   29.2450   16.1730 C.ar  201  HEM201      0.0000
     36  C3D        1.9200   30.1070   16.6100 C.ar  201  HEM201      0.0000
     37  C4D        0.7290   29.5730   16.3560 C.ar  201  HEM201      0.0000
     38  CMD        4.4140   29.3930   16.2360 C.3   201  HEM201      0.0000
     39  CAD        2.2250   31.4560   17.4660 C.3   201  HEM201      0.0000
     40  CBD        2.3830   31.0340   19.0230 C.3   201  HEM201      0.0000
     41  CGD        2.5830   32.1240   19.6830 C.2   201  HEM201      0.0000
     42  O1D        3.7440   32.5250   19.9870 O.co2 201  HEM201      0.0000
     43  O2D        1.8470   32.9010   20.3230 O.co2 201  HEM201      0.0000
@<TRIPOS>BOND
     1    30    27    1
     2    23    24    2
     3    23    20    1
     4    15    14   ar
     5     4    26    2
     6     4    21    1
     7    27    26    1
     8    27    28    2
     9    20    21   ar
    10    20    19   ar
    11    26    25    1
    12    21    17   ar
    13    32    31    2
    14    28    31    1
    15    28    29    1
    16    22    19    1
    17    19    18   ar
    18    25    29    2
    19    25     1    1
    20    29     5    1
    21    17    18   ar
    22    17     1    1
    23    14    16   ar
    24    14    13    1
    25    18     3    1
    26     5    34    2
    27     1    33    1
    28     1     6    1
    29     3    10    2
    30    34    33   ar
    31    34    35   ar
    32    33    37   ar
    33     6    10    1
    34     6     7    2
    35    10     9    1
    36    13    12    1
    37    35    38    1
    38    35    36   ar
    39    37    36   ar
    40    37     2    2
    41     9    11    1
    42     9     8    2
    43     7     2    1
    44     7     8    1
    45    36    39    1
    46     8    12    1
    47    39    40    1
    48    40    41    1
    49    41    42   ar
    50    41    43   ar
