@<TRIPOS>MOLECULE
2z6t_HEM_A_1.pdb
 43 50 0 0 0
SMALL
GASTEIGER

@<TRIPOS>ATOM
      1 FE         -0.6300   27.0220   15.3010 Fe    201  HEM201      0.0000
      2  CHA       -0.4920   30.1080   16.7000 C.2   201  HEM201      0.0000
      3  CHB       -4.0930   27.0390   15.4980 C.2   201  HEM201      0.0000
      4  CHC       -0.7370   23.8290   14.0410 C.2   201  HEM201      0.0000
      5  CHD        2.7630   26.9590   15.2200 C.2   201  HEM201      0.0000
      6  NA        -1.9790   28.3250   15.9370 N.2   201  HEM201      0.0000
      7  C1A       -1.7160   29.6270   16.5080 C.2   201  HEM201      0.0000
      8  C2A       -3.0610   30.2380   16.7640 C.2   201  HEM201      0.0000
      9  C3A       -4.0290   29.3840   16.4660 C.2   201  HEM201      0.0000
     10  C4A       -3.3640   28.1830   15.9430 C.2   201  HEM201      0.0000
     11  CMA       -5.5680   29.5270   16.5780 C.3   201  HEM201      0.0000
     12  CAA       -3.2290   31.6470   17.2570 C.3   201  HEM201      0.0000
     13  CBA       -3.8050   32.5200   16.0720 C.3   201  HEM201      0.0000
     14  CGA       -2.8310   32.5970   14.9280 C.2   201  HEM201      0.0000
     15  O1A       -3.1770   32.1900   13.7560 O.co2 201  HEM201      0.0000
     16  O2A       -1.6660   33.0250   15.0890 O.co2 201  HEM201      0.0000
     17  NB        -2.1420   25.7120   14.8240 N.ar  201  HEM201      0.0000
     18  C1B       -3.4920   25.8560   14.9490 C.ar  201  HEM201      0.0000
     19  C2B       -4.1770   24.7650   14.5070 C.ar  201  HEM201      0.0000
     20  C3B       -3.2920   23.7930   14.1360 C.ar  201  HEM201      0.0000
     21  C4B       -1.9600   24.4400   14.2990 C.ar  201  HEM201      0.0000
     22  CMB       -5.7300   24.5940   14.5060 C.3   201  HEM201      0.0000
     23  CAB       -3.4430   22.4400   13.6590 C.2   201  HEM201      0.0000
     24  CBB       -4.3510   21.6290   14.0690 C.2   201  HEM201      0.0000
     25  NC         0.7460   25.7500   14.6980 N.2   201  HEM201      0.0000
     26  C1C        0.5830   24.4090   14.2680 C.2   201  HEM201      0.0000
     27  C2C        1.7410   23.6940   14.1240 C.2   201  HEM201      0.0000
     28  C3C        2.7220   24.5380   14.4560 C.2   201  HEM201      0.0000
     29  C4C        2.0950   25.8080   14.8020 C.2   201  HEM201      0.0000
     30  CMC        1.8710   22.2110   13.6490 C.3   201  HEM201      0.0000
     31  CAC        4.2400   24.3650   14.6360 C.2   201  HEM201      0.0000
     32  CBC        4.9000   23.3170   14.3360 C.2   201  HEM201      0.0000
     33  ND         0.7990   28.2930   15.7470 N.ar  201  HEM201      0.0000
     34  C1D        2.1400   28.1540   15.6900 C.ar  201  HEM201      0.0000
     35  C2D        2.8490   29.2480   16.2040 C.ar  201  HEM201      0.0000
     36  C3D        1.9230   30.1190   16.6800 C.ar  201  HEM201      0.0000
     37  C4D        0.7440   29.5400   16.3930 C.ar  201  HEM201      0.0000
     38  CMD        4.4020   29.3820   16.2520 C.3   201  HEM201      0.0000
     39  CAD        2.2140   31.3990   17.4860 C.3   201  HEM201      0.0000
     40  CBD        2.5040   31.0250   19.0310 C.3   201  HEM201      0.0000
     41  CGD        2.6570   32.2440   19.8050 C.2   201  HEM201      0.0000
     42  O1D        3.8560   32.5710   19.8820 O.co2 201  HEM201      0.0000
     43  O2D        1.7850   32.9090   20.4040 O.co2 201  HEM201      0.0000
@<TRIPOS>BOND
     1    30    27    1
     2    23    24    2
     3    23    20    1
     4    15    14   ar
     5     4    26    2
     6     4    21    1
     7    27    26    1
     8    27    28    2
     9    20    21   ar
    10    20    19   ar
    11    26    25    1
    12    21    17   ar
    13    32    31    2
    14    28    31    1
    15    28    29    1
    16    22    19    1
    17    19    18   ar
    18    25    29    2
    19    25     1    1
    20    29     5    1
    21    17    18   ar
    22    17     1    1
    23    14    16   ar
    24    14    13    1
    25    18     3    1
    26     5    34    2
    27     1    33    1
    28     1     6    1
    29     3    10    2
    30    34    33   ar
    31    34    35   ar
    32    33    37   ar
    33     6    10    1
    34     6     7    2
    35    10     9    1
    36    13    12    1
    37    35    38    1
    38    35    36   ar
    39    37    36   ar
    40    37     2    2
    41     9    11    1
    42     9     8    2
    43     7     2    1
    44     7     8    1
    45    36    39    1
    46     8    12    1
    47    39    40    1
    48    40    41    1
    49    41    42   ar
    50    41    43   ar
