@<TRIPOS>MOLECULE
2z6u_SAH_A_1.pdb
 26 28 0 0 0
SMALL
GASTEIGER

@<TRIPOS>ATOM
      1  N        -18.3630   31.0720   80.2000 N.3   328  SAH328     -0.1208
      2  CA       -19.0160   30.4060   81.4110 C.3   328  SAH328      0.1952
      3  CB       -18.9170   31.0430   82.7550 C.3   328  SAH328      0.0422
      4  CG       -17.5410   31.3700   83.2890 C.3   328  SAH328      0.0597
      5  SD       -17.7150   31.8040   85.0580 S.3   328  SAH328     -0.1375
      6  C        -20.5200   30.1360   81.0040 C.2   328  SAH328      0.3819
      7  O        -20.9110   30.4530   79.8750 O.co2 328  SAH328     -0.2441
      8  OXT      -21.2550   29.5840   81.8950 O.co2 328  SAH328     -0.2441
      9  C5'      -16.2070   31.2730   85.7060 C.3   328  SAH328      0.0899
     10  C4'      -16.3190   29.7380   86.1040 C.3   328  SAH328      0.1630
     11  O4'      -15.0410   29.4760   86.6220 O.3   328  SAH328     -0.3153
     12  C3'      -17.2540   29.3990   87.2340 C.3   328  SAH328      0.2168
     13  O3'      -18.2980   28.5520   86.7780 O.3   328  SAH328     -0.2175
     14  C2'      -16.2880   28.7430   88.2960 C.3   328  SAH328      0.2569
     15  O2'      -16.9220   27.7240   89.0500 O.3   328  SAH328     -0.2130
     16  C1'      -15.1290   28.2720   87.4270 C.3   328  SAH328      0.3185
     17  N9       -13.9350   28.0940   88.0070 N.pl3 328  SAH328     -0.1439
     18  C8       -13.1540   28.8820   88.8330 C.3   328  SAH328      0.3377
     19  N7       -12.0310   28.3590   89.1940 N.2   328  SAH328     -0.2095
     20  C5       -12.0140   27.0820   88.5650 C.2   328  SAH328      0.2526
     21  C6       -11.0310   26.0220   88.5760 C.2   328  SAH328      0.4393
     22  N6        -9.8760   26.0800   89.2400 N.pl3 328  SAH328      0.2180
     23  N1       -11.3650   24.9190   87.8430 N.2   328  SAH328      0.0021
     24  C2       -12.5330   24.8100   87.1470 C.3   328  SAH328      0.5254
     25  N3       -13.5000   25.7990   87.1070 N.2   328  SAH328     -0.0055
     26  C4       -13.1700   26.9020   87.8380 C.2   328  SAH328      0.3518
@<TRIPOS>BOND
     1     7     6   ar
     2     1     2    1
     3     6     2    1
     4     6     8   ar
     5     2     3    1
     6     3     4    1
     7     4     5    1
     8     5     9    1
     9     9    10    1
    10    10    11    1
    11    10    12    1
    12    11    16    1
    13    13    12    1
    14    25    24    1
    15    25    26    2
    16    24    23    1
    17    12    14    1
    18    16    17    1
    19    16    14    1
    20    26    17    1
    21    26    20    1
    22    23    21    2
    23    17    18    1
    24    14    15    1
    25    20    21    1
    26    20    19    2
    27    21    22    1
    28    18    19    1
