@<TRIPOS>MOLECULE
2z71_PNV_A_1.pdb
 24 26 0 0 0
SMALL
GASTEIGER

@<TRIPOS>ATOM
      1  C24       13.6660   52.1500   33.1190 C.ar  903  PNV903      0.0369
      2  C23       12.5340   51.9250   32.3360 C.ar  903  PNV903      0.0031
      3  C22       12.0100   52.9580   31.5710 C.ar  903  PNV903      0.0002
      4  C21       12.6090   54.2120   31.5940 C.ar  903  PNV903      0.0031
      5  C20       13.7440   54.4330   32.3760 C.ar  903  PNV903      0.0369
      6  C19       14.2870   53.4030   33.1530 C.ar  903  PNV903      0.1393
      7  O1        15.4100   53.6690   33.9220 O.3   903  PNV903     -0.4656
      8  C2        15.9490   52.8600   34.9830 C.3   903  PNV903      0.2911
      9  C3        15.2700   52.9910   36.3410 C.2   903  PNV903      0.2864
     10  O18       15.5110   53.9320   37.0730 O.2   903  PNV903     -0.2693
     11  N4        14.4480   51.9690   36.6160 N.am  903  PNV903     -0.1920
     12  C5        13.5590   51.5500   37.7260 C.3   903  PNV903      0.1996
     13  C6        12.6770   52.4580   38.5370 C.2   903  PNV903      0.2491
     14  O17       11.6730   53.1120   38.2650 O.2   903  PNV903     -0.2729
     15  C8        14.2860   51.1980   39.0590 C.3   903  PNV903      0.1529
     16  N7        13.3800   52.1840   39.6230 N.am  903  PNV903     -0.2594
     17  S11       15.7070   52.0270   39.7040 S.3   903  PNV903     -0.1184
     18  C10       15.0470   52.4660   41.3010 C.3   903  PNV903      0.0681
     19  C12       15.3190   51.3150   42.2830 C.3   903  PNV903      0.0131
     20  C15       15.7660   53.7080   41.8300 C.3   903  PNV903      0.0131
     21  C9        13.5440   52.7450   40.9770 C.3   903  PNV903      0.1888
     22  C13       12.4660   52.3930   41.9950 C.2   903  PNV903      0.3833
     23  O14       12.6170   51.4470   42.8070 O.co2 903  PNV903     -0.2438
     24  O16       11.4210   53.0920   41.9980 O.co2 903  PNV903     -0.2438
@<TRIPOS>BOND
     1     3     4   ar
     2     3     2   ar
     3     4     5   ar
     4     2     1   ar
     5     5     6   ar
     6     1     6   ar
     7     6     7    1
     8     7     8    1
     9     8     9    1
    10     9    11   am
    11     9    10    2
    12    11    12    1
    13    12    13    1
    14    12    15    1
    15    14    13    2
    16    13    16   am
    17    15    16    1
    18    15    17    1
    19    16    21    1
    20    17    18    1
    21    21    18    1
    22    21    22    1
    23    18    20    1
    24    18    19    1
    25    22    24   ar
    26    22    23   ar
