@<TRIPOS>MOLECULE
2z73_RET_A_1.pdb
 20 20 0 0 0
SMALL
GASTEIGER

@<TRIPOS>ATOM
      1  C1        19.3470   44.6960   60.6810 C.3   1000  RET1000     0.0183
      2  C2        20.4460   44.1470   61.6350 C.3   1000  RET1000     0.0044
      3  C3        19.9550   43.2390   62.7500 C.3   1000  RET1000     0.0047
      4  C4        18.7920   43.8530   63.5480 C.3   1000  RET1000     0.0217
      5  C5        17.6940   44.4280   62.6520 C.2   1000  RET1000    -0.0479
      6  C6        17.9190   44.8120   61.3540 C.2   1000  RET1000    -0.0307
      7  C7        16.8150   45.3690   60.4660 C.2   1000  RET1000    -0.0052
      8  C8        15.7570   44.6130   59.9370 C.2   1000  RET1000    -0.0046
      9  C9        14.5830   44.9870   59.1360 C.2   1000  RET1000    -0.0219
     10  C10       13.7890   43.9460   58.8540 C.2   1000  RET1000    -0.0043
     11  C11       12.5210   43.8720   58.1610 C.2   1000  RET1000    -0.0007
     12  C12       11.7640   42.7610   57.9090 C.2   1000  RET1000    -0.0046
     13  C13       11.9580   41.2710   58.0970 C.2   1000  RET1000    -0.0261
     14  C14       10.9360   40.4080   57.8130 C.2   1000  RET1000    -0.0300
     15  C15       11.0490   38.9510   57.9510 C.3   1000  RET1000     0.0304
     16  C16       19.7930   46.0520   60.1340 C.3   1000  RET1000     0.0043
     17  C17       19.3380   43.7280   59.4530 C.3   1000  RET1000     0.0043
     18  C18       16.3930   44.4870   63.4090 C.3   1000  RET1000     0.0260
     19  C19       14.3400   46.4310   58.7450 C.3   1000  RET1000     0.0310
     20  C20       13.3400   40.8070   58.6080 C.3   1000  RET1000     0.0307
@<TRIPOS>BOND
     1    14    15    1
     2    14    13    2
     3    12    13    1
     4    12    11    2
     5    13    20    1
     6    11    10    1
     7    19     9    1
     8    10     9    2
     9     9     8    1
    10    17     1    1
    11     8     7    2
    12    16     1    1
    13     7     6    1
    14     1     6    1
    15     1     2    1
    16     6     5    2
    17     2     3    1
    18     5    18    1
    19     5     4    1
    20     3     4    1
