@<TRIPOS>MOLECULE
2z77_HE7_A_1.pdb
 27 30 0 0 0
SMALL
GASTEIGER

@<TRIPOS>ATOM
      1  OAB       -0.5390   -0.8790   38.3350 O.co2 200  HE7200     -0.2457
      2  CAR        0.0190   -0.7690   39.4430 C.2   200  HE7200      0.3650
      3  OAC        0.1210   -1.7430   40.2130 O.co2 200  HE7200     -0.2457
      4  CAI        0.6100    0.5700   39.8530 C.3   200  HE7200      0.1193
      5  CAK        0.1680    1.0440   41.2410 C.3   200  HE7200      0.0761
      6  CAV       -1.1550    0.4010   41.6710 C.3   200  HE7200      0.2694
      7  OAE       -2.2330    0.8290   40.7850 O.3   200  HE7200     -0.1899
      8  OAQ       -1.3460    0.6540   43.0600 O.3   200  HE7200     -0.3310
      9  CAW       -2.6310    0.2930   43.6260 C.3   200  HE7200      0.1177
     10  CBA       -2.5850    0.4100   45.1440 C.3   200  HE7200      0.0252
     11  CAA       -1.3410   -0.3810   45.6520 C.3   200  HE7200      0.0024
     12  CAM       -3.2060   -1.1220   43.3780 C.3   200  HE7200      0.0296
     13  CAO       -3.9800   -1.4900   44.6510 C.3   200  HE7200      0.0026
     14  CAZ       -3.9310   -0.2030   45.4960 C.3   200  HE7200      0.0027
     15  CAY       -4.1820   -0.2330   47.0120 C.3   200  HE7200      0.0044
     16  CAX       -4.0190    1.1650   47.6250 C.3   200  HE7200      0.0220
     17  CAN       -2.7010    1.8280   47.1920 C.3   200  HE7200      0.0044
     18  CAP       -2.5930    1.8400   45.6700 C.3   200  HE7200      0.0027
     19  CAL       -5.5590   -0.7320   47.4080 C.3   200  HE7200      0.0050
     20  CAJ       -5.6850   -0.9130   48.9300 C.3   200  HE7200      0.0261
     21  CAT       -4.9560    0.1470   49.7390 C.ar  200  HE7200     -0.0230
     22  CAU       -4.1730    1.1220   49.1060 C.ar  200  HE7200     -0.0263
     23  CAH       -5.0980    0.1450   51.1400 C.ar  200  HE7200      0.0375
     24  CAS       -4.4160    1.1170   51.8880 C.ar  200  HE7200      0.1954
     25  OAD       -4.5010    1.1670   53.2470 O.3   200  HE7200     -0.2866
     26  CAF       -3.6460    2.0900   51.2660 C.ar  200  HE7200      0.0417
     27  CAG       -3.5250    2.0920   49.8790 C.ar  200  HE7200     -0.0013
@<TRIPOS>BOND
     1     1     2   ar
     2     2     4    1
     3     2     3   ar
     4     4     5    1
     5     7     6    1
     6     5     6    1
     7     6     8    1
     8     8     9    1
     9    12     9    1
    10    12    13    1
    11     9    10    1
    12    13    14    1
    13    10    14    1
    14    10    11    1
    15    10    18    1
    16    14    15    1
    17    18    17    1
    18    15    19    1
    19    15    16    1
    20    17    16    1
    21    19    20    1
    22    16    22    1
    23    20    21    1
    24    22    21   ar
    25    22    27   ar
    26    21    23   ar
    27    27    26   ar
    28    23    24   ar
    29    26    24   ar
    30    24    25    1
