@<TRIPOS>MOLECULE
2z78_H86_A_1.pdb
 35 36 0 0 0
SMALL
GASTEIGER

@<TRIPOS>ATOM
      1  CAA       39.2900   53.7080   12.4160 C.3   1300  H861300     0.0000
      2  CAP       38.0870   54.6400   12.2560 C.3   1300  H861300     0.0000
      3  CAQ       36.7800   53.8490   12.2090 C.3   1300  H861300     0.0000
      4  CAR       36.6960   53.0080   10.9350 C.3   1300  H861300     0.0000
      5  CAS       35.4070   52.1850   10.9000 C.3   1300  H861300     0.0000
      6  CAT       35.2350   51.5180    9.5340 C.3   1300  H861300     0.0000
      7  CAU       33.9600   50.6750    9.4930 C.3   1300  H861300     0.0001
      8  CAV       32.7940   51.4730   10.0800 C.3   1300  H861300     0.0038
      9  CAW       31.5570   51.3660    9.1880 C.3   1300  H861300     0.0473
     10  CAX       31.1460   49.9100    8.9690 C.3   1300  H861300     0.2050
     11  OAZ       30.9080   49.3290   10.2570 O.2   1300  H861300    -0.4780
     12  CBC       30.2540   48.1430   10.1330 C.2   1300  H861300     0.1360
     13  CAM       29.5500   47.6580   11.2270 C.2   1300  H861300     0.0354
     14  CAN       30.3330   47.3940    8.9630 C.3   1300  H861300     0.1556
     15  NBG       29.6930   46.1500    8.8920 N.pl3 1300  H861300    -0.2992
     16  CAY       29.8130   45.3090    7.6790 C.3   1300  H861300     0.1057
     17  CBF       29.2230   45.9790    6.4350 C.3   1300  H861300     0.1236
     18  PBI       29.7630   45.1030    4.9110 P.3   1300  H861300     0.1253
     19  OAF       28.8970   45.7200    3.6980 O.2   1300  H861300    -0.4596
     20  OAG       31.2850   45.5290    4.6180 O.3   1300  H861300    -0.3568
     21  OAC       29.5760   43.6430    5.0640 O.3   1300  H861300    -0.3568
     22  PBH       27.3870   46.0550    6.4820 P.3   1300  H861300     0.1253
     23  OAD       26.7940   44.5670    6.3060 O.3   1300  H861300    -0.3568
     24  OAE       26.9470   46.4730    7.9720 O.3   1300  H861300    -0.3568
     25  OAB       26.8860   47.0010    5.4600 O.2   1300  H861300    -0.4596
     26  CAO       28.9860   45.6630    9.9980 C.2   1300  H861300     0.0617
     27  CBE       28.9270   46.4170   11.1640 C.2   1300  H861300     0.0174
     28  CBD       28.3320   45.8850   12.3000 C.ar  1300  H861300     0.0058
     29  CAK       28.3660   44.5090   12.4920 C.ar  1300  H861300     0.0298
     30  CBA       27.8900   43.9650   13.6780 C.ar  1300  H861300     0.1424
     31  FAH       27.9690   42.6360   13.8840 F     1300  H861300    -0.2041
     32  CAJ       27.3710   44.7930   14.6650 C.ar  1300  H861300     0.0592
     33  CBB       27.3340   46.1680   14.4650 C.ar  1300  H861300     0.1424
     34  FAI       26.8570   46.9660   15.4400 F     1300  H861300    -0.2041
     35  CAL       27.8130   46.7210   13.2830 C.ar  1300  H861300     0.0298
@<TRIPOS>BOND
     1    19    18    2
     2    20    18    1
     3    18    21    1
     4    18    17    1
     5    25    22    2
     6    23    22    1
     7    17    22    1
     8    17    16    1
     9    22    24    1
    10    16    15    1
    11    15    14    1
    12    15    26    1
    13    14    12    1
    14    10     9    1
    15    10    11    1
    16     9     8    1
    17     7     6    1
    18     7     8    1
    19     6     5    1
    20    26    27    2
    21    12    11    1
    22    12    13    2
    23     5     4    1
    24     4     3    1
    25    27    13    1
    26    27    28    1
    27     3     2    1
    28     2     1    1
    29    28    29   ar
    30    28    35   ar
    31    29    30   ar
    32    35    33   ar
    33    30    31    1
    34    30    32   ar
    35    33    32   ar
    36    33    34    1
