@<TRIPOS>MOLECULE
2z7c_ARG_A_1.pdb
 12 11 0 0 0
SMALL
GASTEIGER

@<TRIPOS>ATOM
      1  N        -14.9810    2.7060   26.7070 N.3   920  ARG920     -0.1208
      2  CA       -14.0700    1.8910   27.5640 C.3   920  ARG920      0.1944
      3  C        -14.6820    1.6120   28.9380 C.2   920  ARG920      0.3819
      4  O        -14.4860    0.4870   29.4540 O.co2 920  ARG920     -0.2441
      5  CB       -12.7320    2.6090   27.7510 C.3   920  ARG920      0.0343
      6  CG       -12.8190    3.8630   28.5930 C.3   920  ARG920      0.0490
      7  CD       -11.5810    4.0140   29.4430 C.3   920  ARG920      0.2205
      8  NE       -10.7170    5.1110   29.0200 N.pl3 920  ARG920     -0.0865
      9  CZ       -10.2120    5.2480   27.8010 C.cat 920  ARG920      0.5346
     10  NH1      -10.4870    4.3610   26.8590 N.pl3 920  ARG920      0.1354
     11  NH2       -9.3970    6.2550   27.5370 N.pl3 920  ARG920      0.1354
     12  OXT      -15.3420    2.5240   29.4840 O.co2 920  ARG920     -0.2441
@<TRIPOS>BOND
     1     1     2    1
     2    10     9    1
     3    11     9    1
     4     2     5    1
     5     2     3    1
     6     5     6    1
     7     9     8    2
     8     6     7    1
     9     3     4   ar
    10     3    12   ar
    11     8     7    1
