@<TRIPOS>MOLECULE
2z7f_FUC_E_1.pdb
 10 10 0 0 0
SMALL
GASTEIGER

@<TRIPOS>ATOM
      1  C1        22.0200  107.2740   -9.9660 C.3     2  FUC2        0.1776
      2  C2        20.9780  107.5140  -11.0590 C.3     2  FUC2        0.2141
      3  C3        20.1400  106.2540  -11.2790 C.3     2  FUC2        0.2172
      4  C4        19.5700  105.7540   -9.9470 C.3     2  FUC2        0.2116
      5  C5        20.7020  105.5730   -8.9190 C.3     2  FUC2        0.1483
      6  C6        20.2190  105.0930   -7.5470 C.3     2  FUC2        0.0349
      7  O2        21.6130  107.8300  -12.2890 O.3     2  FUC2       -0.2176
      8  O3        19.1390  106.4830  -12.2720 O.3     2  FUC2       -0.2175
      9  O4        18.6420  106.6930   -9.4610 O.3     2  FUC2       -0.2177
     10  O5        21.4310  106.7870   -8.7560 O.3     2  FUC2       -0.3508
@<TRIPOS>BOND
     1     7     2    1
     2     8     3    1
     3     3     2    1
     4     3     4    1
     5     2     1    1
     6     1    10    1
     7     4     9    1
     8     4     5    1
     9     5    10    1
    10     5     6    1
