@<TRIPOS>MOLECULE
2z7g_EH9_A_1.pdb
 20 21 0 0 0
SMALL
GASTEIGER

@<TRIPOS>ATOM
      1  C1        11.1280   12.4930   20.8060 C.2   356  EH9356      0.4393
      2  C2        11.2890   13.5410   21.6690 C.2   356  EH9356      0.2525
      3  C3        11.3170   14.8440   21.1580 C.2   356  EH9356      0.3500
      4  C5        11.0300   14.0770   19.0180 C.3   356  EH9356      0.5254
      5  C14       11.5140   14.8780   23.3390 C.3   356  EH9356      0.3358
      6  N4        11.1890   15.1420   19.8320 N.2   356  EH9356     -0.0055
      7  N6        10.9990   12.8050   19.4730 N.2   356  EH9356      0.0021
      8  N13       11.4920   15.6660   22.2350 N.pl3 356  EH9356     -0.1691
      9  N15       11.4290   13.5780   22.9820 N.2   356  EH9356     -0.2096
     10  C20       11.6060   17.1340   22.4080 C.3   356  EH9356      0.1921
     11  C21       10.3050   17.9310   22.1900 C.3   356  EH9356      0.0493
     12  N24       11.0920   11.1990   21.2030 N.pl3 356  EH9356      0.2180
     13  C26        9.6850   17.7460   20.8140 C.3   356  EH9356      0.0042
     14  C28        8.3600   18.4180   20.4980 C.3   356  EH9356      0.0001
     15  C30        7.8760   17.8430   19.1520 C.3   356  EH9356      0.0000
     16  C31        8.0060   16.2970   19.0820 C.3   356  EH9356      0.0000
     17  C34        6.7940   15.5750   18.4960 C.3   356  EH9356      0.0000
     18  C36       12.9100   17.7480   21.9080 C.3   356  EH9356      0.1943
     19  O38       13.9610   17.3190   22.7340 O.3   356  EH9356     -0.2189
     20  C40       13.1900   17.8300   20.4080 C.3   356  EH9356      0.0398
@<TRIPOS>BOND
     1    17    16    1
     2     4     7    1
     3     4     6    1
     4    16    15    1
     5    15    14    1
     6     7     1    2
     7     6     3    2
     8    20    18    1
     9    14    13    1
    10     1    12    1
    11     1     2    1
    12    13    11    1
    13     3     2    1
    14     3     8    1
    15     2     9    2
    16    18    10    1
    17    18    19    1
    18    11    10    1
    19     8    10    1
    20     8     5    1
    21     9     5    1
