@<TRIPOS>MOLECULE
2z7h_GG3_A_1.pdb
 24 24 0 0 0
SMALL
GASTEIGER

@<TRIPOS>ATOM
      1  C2        29.2020   47.4270    8.0120 C.3   1302  GG31302     0.0756
      2  C6        30.9280   48.4100    9.3830 C.3   1302  GG31302     0.0721
      3  C7        29.5880   46.1220    7.3130 C.3   1302  GG31302     0.0620
      4  C8        29.0040   46.1970    5.9010 C.3   1302  GG31302     0.2173
      5  O16       29.3100   43.5190    5.0770 O.3   1302  GG31302    -0.3553
      6  P14       29.8630   44.9970    4.7620 P.3   1302  GG31302     0.1511
      7  O17       29.3340   45.4200    3.2990 O.2   1302  GG31302    -0.4573
      8  O15       31.3390   45.0760    4.8520 O.3   1302  GG31302    -0.3553
      9  P9        27.1620   45.8940    5.9230 P.3   1302  GG31302     0.1511
     10  O11       26.9240   44.3870    6.4390 O.3   1302  GG31302    -0.3553
     11  O10       26.7150   45.9160    4.3750 O.2   1302  GG31302    -0.4573
     12  O12       26.4210   46.9070    6.7080 O.3   1302  GG31302    -0.3553
     13  O13       29.2630   47.5120    5.4030 O.3   1302  GG31302    -0.2108
     14  N13       29.7840   47.4880    9.3600 N.3   1302  GG31302    -0.2714
     15  C21       28.7470   47.9660   10.2870 C.3   1302  GG31302     0.0896
     16  C22       31.9130   48.0770    8.2590 C.3   1302  GG31302     0.0177
     17  C26       33.2440   48.8010    8.4730 C.3   1302  GG31302     0.0061
     18  C27       33.0650   50.3180    8.5670 C.3   1302  GG31302     0.0264
     19  C28       34.4010   50.9860    8.9020 C.ar  1302  GG31302    -0.0222
     20  C33       34.5750   51.6120   10.1300 C.ar  1302  GG31302    -0.0043
     21  C32       35.8100   52.1600   10.4630 C.ar  1302  GG31302    -0.0003
     22  C31       36.8690   52.0840    9.5660 C.ar  1302  GG31302    -0.0000
     23  C30       36.6930   51.4630    8.3340 C.ar  1302  GG31302    -0.0003
     24  C29       35.4590   50.9150    8.0020 C.ar  1302  GG31302    -0.0043
@<TRIPOS>BOND
     1     7     6    2
     2    11     9    2
     3     6     8    1
     4     6     5    1
     5     6     4    1
     6    13     4    1
     7     4     9    1
     8     4     3    1
     9     9    10    1
    10     9    12    1
    11     3     1    1
    12    24    23   ar
    13    24    19   ar
    14     1    14    1
    15    16    17    1
    16    16     2    1
    17    23    22   ar
    18    17    18    1
    19    18    19    1
    20    19    20   ar
    21    14     2    1
    22    14    15    1
    23    22    21   ar
    24    20    21   ar
