@<TRIPOS>MOLECULE
2z7i_742_A_1.pdb
 25 24 0 0 0
SMALL
GASTEIGER

@<TRIPOS>ATOM
      1  CAA       37.7590   58.1190   12.9960 C.3   1302  7421302     0.0000
      2  CAJ       38.3310   56.7020   12.9330 C.3   1302  7421302     0.0000
      3  CAK       37.4110   55.8220   12.0860 C.3   1302  7421302     0.0000
      4  CAL       37.8180   54.3500   12.1110 C.3   1302  7421302     0.0000
      5  CAM       36.9070   53.5980   11.1420 C.3   1302  7421302     0.0000
      6  CAN       37.0270   52.0840   11.3160 C.3   1302  7421302     0.0000
      7  CAO       36.2810   51.3430   10.2050 C.3   1302  7421302     0.0000
      8  CAP       34.7670   51.5610   10.2230 C.3   1302  7421302     0.0000
      9  CAQ       34.1230   50.4690    9.3650 C.3   1302  7421302     0.0000
     10  CAR       32.5970   50.5650    9.2850 C.3   1302  7421302     0.0004
     11  CAS       32.0120   49.2380    8.7910 C.3   1302  7421302     0.0044
     12  CAT       30.5040   49.3580    8.5720 C.3   1302  7421302     0.0182
     13  PAY       29.6710   47.7510    8.5250 P.3   1302  7421302    -0.0898
     14  CAB       28.1540   47.9900    9.4470 C.3   1302  7421302     0.0225
     15  CAC       30.6630   46.5060    9.3430 C.3   1302  7421302     0.0225
     16  CAU       29.3130   47.2960    6.8070 C.3   1302  7421302     0.0326
     17  CAV       28.9170   45.8200    6.6970 C.3   1302  7421302     0.1079
     18  PAX       27.0890   45.5990    6.7640 P.3   1302  7421302     0.1239
     19  OAH       26.6670   45.8250    8.3000 O.3   1302  7421302    -0.3568
     20  OAI       26.4370   46.8240    5.9620 O.2   1302  7421302    -0.4597
     21  OAE       26.7050   44.2620    6.2580 O.3   1302  7421302    -0.3568
     22  PAW       29.5660   45.0860    5.1390 P.3   1302  7421302     0.1239
     23  OAF       29.1070   43.5490    5.0560 O.3   1302  7421302    -0.3568
     24  OAG       28.7800   45.8250    3.9400 O.2   1302  7421302    -0.4597
     25  OAD       31.0360   45.2320    5.0230 O.3   1302  7421302    -0.3568
@<TRIPOS>BOND
     1    24    22    2
     2    25    22    1
     3    23    22    1
     4    22    17    1
     5    20    18    2
     6    21    18    1
     7    17    18    1
     8    17    16    1
     9    18    19    1
    10    16    13    1
    11    13    12    1
    12    13    15    1
    13    13    14    1
    14    12    11    1
    15    11    10    1
    16    10     9    1
    17     9     8    1
    18     7     8    1
    19     7     6    1
    20     5     6    1
    21     5     4    1
    22     3     4    1
    23     3     2    1
    24     2     1    1
