@<TRIPOS>MOLECULE
2z7k_BGU_A_1.pdb
 16 18 0 0 0
SMALL
GASTEIGER

@<TRIPOS>ATOM
      1  N2        18.8280   17.6550   18.3230 N.2   400  BGU400     -0.3235
      2  C3        18.1320   17.3850   19.4560 C.2   400  BGU400      0.1725
      3  C7        18.4970   17.4170   20.7950 C.2   400  BGU400      0.0504
      4  C8        17.5120   17.0550   21.7150 C.2   400  BGU400      0.1247
      5  C14       16.2510   16.5620   21.3330 C.2   400  BGU400      0.1418
      6  C15       15.9230   16.4750   19.9800 C.3   400  BGU400      0.1233
      7  C4        16.8790   16.8940   19.0660 C.2   400  BGU400      0.1601
      8  N5        16.8390   17.0040   17.7050 N.2   400  BGU400     -0.3272
      9  C1        17.9900   17.4100   17.3380 C.1   400  BGU400      0.2413
     10  N6        18.2890   17.7710   16.0820 N.pl3 400  BGU400     -0.0232
     11  N13       15.3220   16.2730   22.3130 N.2   400  BGU400     -0.3285
     12  C12       15.5730   16.4480   23.5950 C.1   400  BGU400      0.2515
     13  N16       14.6020   16.2430   24.4620 N.pl3 400  BGU400     -0.0226
     14  N11       16.7320   16.9190   24.0270 N.2   400  BGU400     -0.2501
     15  C9        17.7310   17.2130   23.1940 C.1   400  BGU400      0.2180
     16  O10       18.8460   17.5780   23.6320 O.2   400  BGU400     -0.2085
@<TRIPOS>BOND
     1    10     9    1
     2     9     8    2
     3     9     1    2
     4     8     7    2
     5     1     2    2
     6     7     2    1
     7     7     6    1
     8     2     3    1
     9     6     5    1
    10     3     4    2
    11     5     4    1
    12     5    11    2
    13     4    15    1
    14    11    12    2
    15    15    16    2
    16    15    14    2
    17    12    14    2
    18    12    13    1
