@<TRIPOS>MOLECULE
2z7l_S91_A_1.pdb
 28 30 0 0 0
SMALL
GASTEIGER

@<TRIPOS>ATOM
      1  C1        22.5970    9.5290   10.7330 C.ar  1001  S911001    -0.0109
      2  C2        23.6230    9.6290   11.7690 C.ar  1001  S911001    -0.0024
      3  C3        23.8730    8.4710   12.6010 C.ar  1001  S911001     0.0170
      4  C4        23.0810    7.2830   12.3460 C.ar  1001  S911001     0.0826
      5  C5        22.0460    7.1890   11.2970 C.ar  1001  S911001     0.0170
      6  C6        21.8000    8.3450   10.4730 C.ar  1001  S911001    -0.0024
      7  C7        22.3270   10.7250    9.8270 C.3   1001  S911001     0.1404
      8  C8        23.6470   11.3290    9.3900 C.2   1001  S911001     0.3692
      9  O1        24.1100   12.2600   10.0560 O.co2 1001  S911001    -0.2453
     10  O2        24.2120   10.8550    8.3970 O.co2 1001  S911001    -0.2453
     11  N1        21.4460    6.3890   14.4650 N.2   1001  S911001    -0.3188
     12  C9        20.5440    5.7740   15.2490 C.2   1001  S911001     0.2222
     13  C10       20.6040    4.4150   15.5390 C.2   1001  S911001     0.1231
     14  C11       21.6420    3.6520   14.9900 C.2   1001  S911001     0.1203
     15  N2        22.5210    4.2880   14.2170 N.2   1001  S911001    -0.1681
     16  C12       22.4150    5.6130   13.9670 C.1   1001  S911001     0.1709
     17  C13       19.6070    3.8360   16.3900 C.2   1001  S911001     0.2896
     18  O3        18.6520    4.4790   16.8020 O.2   1001  S911001    -0.2665
     19  N3        19.5200    6.4940   15.8020 N.pl3 1001  S911001    -0.1826
     20  N4        23.3530    6.2020   13.1640 N.pl3 1001  S911001    -0.1357
     21  N5        19.8400    2.5770   16.7750 N.am  1001  S911001    -0.0835
     22  C14       17.2080    9.7600   14.4990 C.ar  1001  S911001    -0.0042
     23  C15       16.5930    8.6370   15.1590 C.ar  1001  S911001     0.0010
     24  C16       17.4640    7.5670   15.5740 C.ar  1001  S911001     0.0166
     25  C17       18.8840    7.6030   15.3300 C.ar  1001  S911001     0.0728
     26  C18       19.5140    8.7290   14.6650 C.ar  1001  S911001     0.0123
     27  C19       18.6250    9.8110   14.2470 C.ar  1001  S911001    -0.0206
     28  C20       19.1630   10.9830   13.5660 C.3   1001  S911001     0.0311
@<TRIPOS>BOND
     1    10     8   ar
     2     8     7    1
     3     8     9   ar
     4     7     1    1
     5     6     1   ar
     6     6     5   ar
     7     1     2   ar
     8     5     4   ar
     9     2     3   ar
    10     4     3   ar
    11     4    20    1
    12    20    16    1
    13    28    27    1
    14    16    15    2
    15    16    11    2
    16    15    14    1
    17    27    22   ar
    18    27    26   ar
    19    11    12    2
    20    22    23   ar
    21    26    25   ar
    22    14    13    2
    23    23    24   ar
    24    12    13    1
    25    12    19    1
    26    25    24   ar
    27    25    19    1
    28    13    17    1
    29    17    21   am
    30    17    18    2
