@<TRIPOS>MOLECULE
2z7q_ACP_A_1.pdb
 31 33 0 0 0
SMALL
GASTEIGER

@<TRIPOS>ATOM
      1  PG         4.2350   -9.1850   20.7780 P.3   500  ACP500      0.1295
      2  O1G        4.6980   -9.4810   19.4020 O.2   500  ACP500     -0.4595
      3  O2G        4.1930   -7.6980   21.0500 O.3   500  ACP500     -0.3567
      4  O3G        4.9920   -9.9290   21.8590 O.3   500  ACP500     -0.3567
      5  PB         1.3850   -8.7730   21.7120 P.3   500  ACP500      0.3815
      6  O1B       -0.0290   -9.3300   21.5840 O.2   500  ACP500     -0.2547
      7  O2B        1.2200   -7.2520   21.6140 O.3   500  ACP500     -0.1391
      8  C3B        2.6040   -9.6880   20.7930 C.3   500  ACP500      0.1768
      9  PA         2.3510   -8.1310   24.1520 P.3   500  ACP500      0.2209
     10  O1A        3.2950   -7.0190   23.6810 O.2   500  ACP500     -0.5170
     11  O2A        3.1210   -9.0110   25.1080 O.3   500  ACP500     -0.4371
     12  O3A        2.1020   -9.1700   22.9650 O.3   500  ACP500     -0.2483
     13  O5'        1.1410   -7.5020   24.7560 O.3   500  ACP500     -0.3111
     14  C5'        0.1960   -8.4080   25.2540 C.3   500  ACP500      0.1813
     15  C4'       -1.0660   -7.8000   25.7400 C.3   500  ACP500      0.1821
     16  O4'       -0.8390   -6.4530   26.1780 O.3   500  ACP500     -0.3135
     17  C3'       -1.7970   -7.5450   24.3970 C.3   500  ACP500      0.2184
     18  O3'       -3.1900   -7.7440   24.5420 O.3   500  ACP500     -0.2174
     19  C2'       -1.4920   -6.0920   24.0230 C.3   500  ACP500      0.2570
     20  O2'       -2.5290   -5.6620   23.1940 O.3   500  ACP500     -0.2130
     21  C1'       -1.4220   -5.4490   25.3570 C.3   500  ACP500      0.3186
     22  N9        -0.5840   -4.2410   25.5730 N.pl3 500  ACP500     -0.1439
     23  C8         0.7670   -4.0550   25.4750 C.3   500  ACP500      0.3377
     24  N7         1.0900   -2.7640   25.7570 N.2   500  ACP500     -0.2095
     25  C5        -0.0550   -2.1240   26.0510 C.2   500  ACP500      0.2526
     26  C6        -0.4700   -0.7570   26.4220 C.2   500  ACP500      0.4393
     27  N6         0.4810    0.2140   26.5550 N.pl3 500  ACP500      0.2180
     28  N1        -1.8090   -0.4910   26.6430 N.2   500  ACP500      0.0021
     29  C2        -2.7740   -1.4550   26.5140 C.3   500  ACP500      0.5254
     30  N3        -2.4420   -2.7380   26.1590 N.2   500  ACP500     -0.0055
     31  C4        -1.1490   -3.0960   25.9300 C.2   500  ACP500      0.3518
@<TRIPOS>BOND
     1     2     1    2
     2     1     8    1
     3     1     3    1
     4     1     4    1
     5     8     5    1
     6     6     5    2
     7     7     5    1
     8     5    12    1
     9    12     9    1
    10    20    19    1
    11    10     9    2
    12    19    17    1
    13    19    21    1
    14     9    13    1
    15     9    11    1
    16    17    18    1
    17    17    15    1
    18    13    14    1
    19    14    15    1
    20    21    22    1
    21    21    16    1
    22    23    22    1
    23    23    24    1
    24    22    31    1
    25    15    16    1
    26    24    25    2
    27    31    25    1
    28    31    30    2
    29    25    26    1
    30    30    29    1
    31    26    27    1
    32    26    28    2
    33    29    28    1
