@<TRIPOS>MOLECULE
2z7r_STU_A_1.pdb
 35 42 0 0 0
SMALL
GASTEIGER

@<TRIPOS>ATOM
      1  O4        -0.1620   -7.1300   25.4320 O.3     1  STU1       -0.3186
      2  C25       -1.4890   -6.7410   25.0470 C.3     1  STU1        0.2078
      3  C24       -1.8190   -7.1200   23.5640 C.3     1  STU1        0.0739
      4  C23       -0.6160   -7.8240   22.8830 C.3     1  STU1        0.1086
      5  C22        0.6960   -6.9660   23.0330 C.3     1  STU1        0.1761
      6  C21        0.9900   -6.8750   24.6010 C.3     1  STU1        0.1915
      7  C26        1.9040   -8.0550   24.9410 C.3     1  STU1        0.0566
      8  N2         1.5970   -5.5100   24.9700 N.ar    1  STU1       -0.3054
      9  C18        0.7170   -4.4460   25.3810 C.ar    1  STU1        0.0774
     10  C19       -0.6450   -4.3610   25.5240 C.ar    1  STU1        0.0783
     11  C6        -1.3060   -3.1370   25.9480 C.ar    1  STU1        0.0293
     12  C7        -0.3820   -1.9920   26.2180 C.ar    1  STU1        0.0822
     13  C10        0.9360   -2.0740   26.0790 C.ar    1  STU1        0.0154
     14  C11        1.5880   -3.2800   25.6480 C.ar    1  STU1        0.0173
     15  C12        2.9140   -3.6510   25.4050 C.ar    1  STU1        0.0171
     16  C17        2.9440   -5.0440   24.9730 C.ar    1  STU1        0.0617
     17  C16        4.1650   -5.6310   24.6580 C.ar    1  STU1        0.0172
     18  C15        5.3360   -4.9060   24.7500 C.ar    1  STU1        0.0015
     19  C14        5.3420   -3.5150   25.1790 C.ar    1  STU1        0.0001
     20  C13        4.1190   -2.9330   25.4940 C.ar    1  STU1        0.0015
     21  C9         1.5910   -0.7230   26.4230 C.3     1  STU1        0.1650
     22  N1         0.3940    0.0230   26.7520 N.2     1  STU1       -0.1976
     23  C8        -0.7730   -0.6210   26.6630 C.1     1  STU1        0.1501
     24  O5        -1.8810   -0.1920   26.8880 O.2     1  STU1       -0.2222
     25  C5        -2.7010   -3.3610   25.9880 C.ar    1  STU1        0.0180
     26  C20       -2.9100   -4.7370   25.5870 C.ar    1  STU1        0.0618
     27  C1        -4.2250   -5.3160   25.5070 C.ar    1  STU1        0.0172
     28  C2        -5.3240   -4.4940   25.8300 C.ar    1  STU1        0.0015
     29  C3        -5.1210   -3.1280   26.2270 C.ar    1  STU1        0.0001
     30  C4        -3.8390   -2.5900   26.3000 C.ar    1  STU1        0.0015
     31  N3        -1.6940   -5.3070   25.3230 N.ar    1  STU1       -0.3039
     32  O6         0.3800   -5.6550   22.4960 O.3     1  STU1       -0.3478
     33  C27        1.3950   -5.1690   21.6410 C.3     1  STU1        0.1743
     34  N4        -0.9660   -8.0480   21.3630 N.3     1  STU1       -0.2152
     35  C28       -1.6300   -9.3720   21.1720 C.3     1  STU1        0.1075
@<TRIPOS>BOND
     1    35    34    1
     2    34     4    1
     3    33    32    1
     4    32     5    1
     5     4     5    1
     6     4     3    1
     7     5     6    1
     8     3     2    1
     9     6     7    1
    10     6     8    1
    11     6     1    1
    12    17    18   ar
    13    17    16   ar
    14    18    19   ar
    15     8    16   ar
    16     8     9   ar
    17    16    15   ar
    18     2    31    1
    19     2     1    1
    20    19    20   ar
    21    31    10   ar
    22    31    26   ar
    23     9    10   ar
    24     9    14   ar
    25    15    20   ar
    26    15    14   ar
    27    27    26   ar
    28    27    28   ar
    29    10    11   ar
    30    26    25   ar
    31    14    13   ar
    32    28    29   ar
    33    11    25   ar
    34    11    12   ar
    35    25    30   ar
    36    13    12   ar
    37    13    21    1
    38    12    23    1
    39    29    30   ar
    40    21    22    1
    41    23    22    2
    42    23    24    2
