@<TRIPOS>MOLECULE
2z7s_P01_A_1.pdb
 27 29 0 0 0
SMALL
GASTEIGER

@<TRIPOS>ATOM
      1 CL1        -6.7640   -6.9140   26.1240 Cl      1  P011       -0.0822
      2  C5A       -6.7600   -5.1330   26.0950 C.ar    1  P011        0.0590
      3  C6A       -5.4980   -4.5150   25.9400 C.ar    1  P011        0.0280
      4  C1A       -5.3920   -3.0960   25.9060 C.ar    1  P011        0.0740
      5  C2A       -6.6040   -2.3460   26.0400 C.ar    1  P011        0.0166
      6  C3A       -7.8780   -2.9750   26.1960 C.ar    1  P011        0.0022
      7  C4A       -7.9580   -4.3850   26.2270 C.ar    1  P011        0.0115
      8  N6        -4.2070   -2.3940   25.7530 N.pl3   1  P011       -0.1814
      9  C6        -2.9140   -2.8580   25.5900 C.2     1  P011        0.2383
     10  C5        -1.8460   -1.9660   25.8490 C.2     1  P011        0.1693
     11  N7        -1.7940   -0.6490   26.2620 N.2     1  P011       -0.2402
     12  C4        -0.5580   -2.4000   25.6760 C.2     1  P011        0.2197
     13  N9         0.3050   -1.4190   25.9640 N.pl3   1  P011       -0.2624
     14  C10        1.7770   -1.7060   25.8240 C.3     1  P011        0.0770
     15  C11        2.3130   -2.5550   26.9740 C.3     1  P011        0.0216
     16  C12        2.5920   -0.4270   25.5800 C.3     1  P011        0.0216
     17  C8        -0.4480   -0.3440   26.3210 C.3     1  P011        0.2220
     18  N3        -0.2470   -3.6790   25.2680 N.2     1  P011       -0.3099
     19  C2        -1.2950   -4.5490   25.0170 C.1     1  P011        0.2227
     20  N1        -2.6020   -4.1300   25.1790 N.2     1  P011       -0.3081
     21  N21       -1.0130   -5.8210   24.6070 N.pl3   1  P011       -0.1508
     22  C22       -2.0790   -6.7750   24.2440 C.3     1  P011        0.1384
     23  C25       -1.6960   -8.2160   24.6540 C.3     1  P011        0.0234
     24  C26       -1.1510   -8.2600   26.0930 C.3     1  P011        0.0019
     25  C27       -2.8620   -9.1970   24.4600 C.3     1  P011        0.0019
     26  C23       -2.4750   -6.6280   22.7580 C.3     1  P011        0.2044
     27  O24       -1.3740   -6.8150   21.8720 O.3     1  P011       -0.2185
@<TRIPOS>BOND
     1    27    26    1
     2    26    22    1
     3    22    21    1
     4    22    23    1
     5    25    23    1
     6    21    19    1
     7    23    24    1
     8    19    20    2
     9    19    18    2
    10    20     9    2
    11    18    12    2
    12    16    14    1
    13     9     8    1
    14     9    10    1
    15    12    10    1
    16    12    13    1
    17     8     4    1
    18    14    13    1
    19    14    15    1
    20    10    11    2
    21     4     3   ar
    22     4     5   ar
    23     3     2   ar
    24    13    17    1
    25     5     6   ar
    26     2     1    1
    27     2     7   ar
    28     6     7   ar
    29    11    17    1
