@<TRIPOS>MOLECULE
2z7x_III_C_1.pdb
 43 42 0 0 0
SMALL
GASTEIGER

@<TRIPOS>ATOM
      1  N        -11.4770   -9.9290    7.2060 N.3     2  SER2       -0.1202
      2  CA       -10.1590   -9.7290    6.6010 C.3     2  SER2        0.2020
      3  C         -9.9120  -10.6030    5.3890 C.2     2  SER2        0.2619
      4  O        -10.2240  -11.7940    5.3910 O.2     2  SER2       -0.2717
      5  CB        -9.0420   -9.9850    7.6110 C.3     2  SER2        0.2103
      6  OG        -8.7510   -8.8250    8.3550 O.3     2  SER2       -0.2182
      7  N         -9.3290   -9.9950    4.3600 N.am    3  LYS3       -0.1965
      8  CA        -9.0160  -10.6980    3.1280 C.3     3  LYS3        0.1728
      9  C         -7.5510  -11.1230    3.1620 C.2     3  LYS3        0.2616
     10  O         -6.6600  -10.3040    3.4090 O.2     3  LYS3       -0.2715
     11  CB        -9.2880   -9.7890    1.9220 C.3     3  LYS3        0.0311
     12  CG        -9.4640  -10.5450    0.6080 C.3     3  LYS3        0.0038
     13  CD        -8.1430  -10.7840   -0.1060 C.3     3  LYS3        0.0206
     14  CE        -7.8110   -9.6260   -1.0450 C.3     3  LYS3        0.1093
     15  NZ        -7.7830   -8.3080   -0.3450 N.3     3  LYS3       -0.1314
     16  N         -7.3190  -12.4130    2.9340 N.am    4  LYS4       -0.1963
     17  CA        -5.9780  -13.0000    2.9300 C.3     4  LYS4        0.1728
     18  C         -5.0290  -12.2090    2.0280 C.2     4  LYS4        0.2616
     19  O         -5.2650  -12.0880    0.8270 O.2     4  LYS4       -0.2715
     20  CB        -6.0690  -14.4540    2.4440 C.3     4  LYS4        0.0311
     21  CG        -4.7460  -15.1910    2.3160 C.3     4  LYS4        0.0038
     22  CD        -4.1450  -15.5200    3.6700 C.3     4  LYS4        0.0206
     23  CE        -2.8840  -16.3630    3.5150 C.3     4  LYS4        0.1093
     24  NZ        -3.1410  -17.6680    2.8370 N.3     4  LYS4       -0.1314
     25  N         -3.9560  -11.6730    2.6070 N.am    5  LYS5       -0.1963
     26  CA        -2.9900  -10.8950    1.8350 C.3     5  LYS5        0.1728
     27  C         -1.8180  -11.7300    1.3290 C.2     5  LYS5        0.2617
     28  O         -0.9750  -12.1760    2.1110 O.2     5  LYS5       -0.2715
     29  CB        -2.4530   -9.7250    2.6650 C.3     5  LYS5        0.0311
     30  CG        -3.4840   -8.6580    2.9750 C.3     5  LYS5        0.0038
     31  CD        -2.8680   -7.4800    3.7170 C.3     5  LYS5        0.0206
     32  CE        -3.9220   -6.4320    4.0510 C.3     5  LYS5        0.1093
     33  NZ        -3.3540   -5.2490    4.7550 N.3     5  LYS5       -0.1314
     34  N         -1.7720  -11.9250    0.0130 N.am    6  LYS6       -0.1942
     35  CA        -0.7050  -12.6870   -0.6350 C.3     6  LYS6        0.1978
     36  C         -0.5500  -12.2720   -2.0980 C.2     6  LYS6        0.3842
     37  O          0.5640  -11.8440   -2.4690 O.co2   6  LYS6       -0.2437
     38  CB        -0.9890  -14.1930   -0.5450 C.3     6  LYS6        0.0333
     39  CG        -0.6380  -14.8160    0.8030 C.3     6  LYS6        0.0039
     40  CD         0.8700  -14.8080    1.0310 C.3     6  LYS6        0.0206
     41  CE         1.2240  -15.1520    2.4720 C.3     6  LYS6        0.1093
     42  NZ         0.6960  -16.4830    2.8940 N.3     6  LYS6       -0.1314
     43  OXT       -1.5390  -12.3760   -2.8550 O.co2   6  LYS6       -0.2437
@<TRIPOS>BOND
     1    43    36   ar
     2    37    36   ar
     3    36    35    1
     4    14    15    1
     5    14    13    1
     6    35    38    1
     7    35    34    1
     8    38    39    1
     9    13    12    1
    10    34    27   am
    11    12    11    1
    12    39    40    1
    13    19    18    2
    14    40    41    1
    15    27    26    1
    16    27    28    2
    17    26    25    1
    18    26    29    1
    19    11     8    1
    20    18    25   am
    21    18    17    1
    22    21    20    1
    23    21    22    1
    24    20    17    1
    25    41    42    1
    26    29    30    1
    27    24    23    1
    28    17    16    1
    29    16     9   am
    30    30    31    1
    31     8     9    1
    32     8     7    1
    33     9    10    2
    34    23    22    1
    35    31    32    1
    36    32    33    1
    37     7     3   am
    38     3     4    2
    39     3     2    1
    40     2     1    1
    41     2     5    1
    42     5     6    1
