@<TRIPOS>MOLECULE
2z81_PCJ_A_1.pdb
 45 44 0 0 0
SMALL
GASTEIGER

@<TRIPOS>ATOM
      1  CB        29.1470  -13.0220   12.3940 C.3     1  PCJ1        0.0846
      2  SG        28.7580  -12.8530   10.6330 S.3     1  PCJ1       -0.1343
      3  C         31.5920  -12.8390   13.0870 C.2     1  PCJ1        0.2269
      4  O         31.7560  -11.7570   12.5220 O.2     1  PCJ1       -0.2867
      5  N         30.2570  -15.0210   13.4060 N.3     1  PCJ1       -0.1236
      6  CA        30.4520  -13.7730   12.6830 C.3     1  PCJ1        0.1668
      7  C1        28.2230  -11.1320   10.5630 C.3     1  PCJ1        0.1051
      8  C2        26.8660  -10.9310    9.9040 C.3     1  PCJ1        0.2230
      9  O2        26.8510   -9.7280    9.1510 O.3     1  PCJ1       -0.4474
     10  C3        25.7600  -10.8750   10.9450 C.3     1  PCJ1        0.2526
     11  O3        24.9320   -9.7500   10.6890 O.3     1  PCJ1       -0.4445
     12  C11       17.8140    1.4670   20.4200 C.3     1  PCJ1        0.0000
     13  C12       18.3680    0.0660   20.3120 C.3     1  PCJ1        0.0000
     14  C13       18.3610   -0.5010   18.9000 C.3     1  PCJ1        0.0000
     15  C14       19.1860   -1.7730   18.8270 C.3     1  PCJ1        0.0000
     16  C15       19.2750   -2.3080   17.4090 C.3     1  PCJ1        0.0000
     17  C16       20.4190   -3.2980   17.2870 C.3     1  PCJ1        0.0000
     18  C17       20.7800   -3.5720   15.8330 C.3     1  PCJ1        0.0000
     19  C18       19.8110   -4.5460   15.1770 C.3     1  PCJ1        0.0000
     20  C19       20.5460   -5.7940   14.7110 C.3     1  PCJ1        0.0000
     21  C20       19.6250   -6.7810   14.0150 C.3     1  PCJ1        0.0000
     22  C21       20.3260   -7.4360   12.8320 C.3     1  PCJ1        0.0000
     23  C22       19.4520   -8.5030   12.1830 C.3     1  PCJ1        0.0000
     24  C23       20.0950   -9.0800   10.9230 C.3     1  PCJ1        0.0006
     25  C24       21.3540   -9.8790   11.2320 C.3     1  PCJ1        0.0116
     26  C25       22.6050   -9.0610   10.9770 C.3     1  PCJ1        0.1096
     27  C26       23.8700   -9.7560   11.4490 C.2     1  PCJ1        0.3171
     28  O28       23.8780  -10.2910   12.5590 O.2     1  PCJ1       -0.2501
     29  C31       23.8920    1.8970   14.5820 C.3     1  PCJ1        0.0000
     30  C32       23.5640    0.5710   13.9310 C.3     1  PCJ1        0.0000
     31  C33       23.9420   -0.6480   14.7650 C.3     1  PCJ1        0.0000
     32  C34       23.6850   -1.9350   13.9940 C.3     1  PCJ1        0.0000
     33  C35       24.0180   -3.1810   14.8120 C.3     1  PCJ1        0.0000
     34  C36       23.7970   -4.4470   13.9840 C.3     1  PCJ1        0.0000
     35  C37       24.8310   -4.5610   12.8680 C.3     1  PCJ1        0.0000
     36  C38       24.4040   -5.5340   11.7700 C.3     1  PCJ1        0.0000
     37  C39       25.2750   -5.3640   10.5240 C.3     1  PCJ1        0.0000
     38  C40       24.7370   -6.1490    9.3370 C.3     1  PCJ1        0.0000
     39  C41       25.8250   -6.9680    8.6450 C.3     1  PCJ1        0.0000
     40  C42       26.8720   -6.0830    7.9840 C.3     1  PCJ1        0.0000
     41  C43       27.7890   -6.8780    7.0580 C.3     1  PCJ1        0.0006
     42  C44       28.6130   -7.9160    7.8090 C.3     1  PCJ1        0.0116
     43  C45       28.3550   -9.3180    7.2750 C.3     1  PCJ1        0.1096
     44  C46       27.1290   -9.9560    7.8970 C.2     1  PCJ1        0.3170
     45  O47       26.4020  -10.6680    7.2010 O.2     1  PCJ1       -0.2501
@<TRIPOS>BOND
     1    41    42    1
     2    41    40    1
     3    45    44    2
     4    43    42    1
     5    43    44    1
     6    44     9    1
     7    40    39    1
     8    39    38    1
     9     9     8    1
    10    38    37    1
    11     8     7    1
    12     8    10    1
    13    37    36    1
    14     7     2    1
    15     2     1    1
    16    11    10    1
    17    11    27    1
    18    24    25    1
    19    24    23    1
    20    26    25    1
    21    26    27    1
    22    27    28    2
    23    36    35    1
    24    23    22    1
    25     1     6    1
    26     4     3    2
    27     6     3    1
    28     6     5    1
    29    22    21    1
    30    35    34    1
    31    30    29    1
    32    30    31    1
    33    34    33    1
    34    32    31    1
    35    32    33    1
    36    21    20    1
    37    20    19    1
    38    19    18    1
    39    18    17    1
    40    17    16    1
    41    16    15    1
    42    15    14    1
    43    14    13    1
    44    13    12    1
