@<TRIPOS>MOLECULE
2z82_PDJ_A_1.pdb
 45 44 0 0 0
SMALL
GASTEIGER

@<TRIPOS>ATOM
      1  CB       -28.9450  -12.9410  -11.5030 C.3     1  PDJ1        0.0846
      2  SG       -27.4500  -13.3490  -10.5630 S.3     1  PDJ1       -0.1343
      3  C        -30.6520  -13.6430  -13.2580 C.2     1  PDJ1        0.2269
      4  O        -31.7330  -14.2320  -13.2060 O.2     1  PDJ1       -0.2867
      5  N        -28.4280  -14.9060  -12.9680 N.3     1  PDJ1       -0.1236
      6  CA       -29.4770  -14.0810  -12.3860 C.3     1  PDJ1        0.1668
      7  C1       -27.6290  -12.3040   -9.0810 C.3     1  PDJ1        0.1051
      8  C2       -26.5000  -11.2870   -8.8520 C.3     1  PDJ1        0.2230
      9  O2       -26.9660  -10.1660   -8.1240 O.3     1  PDJ1       -0.4474
     10  C3       -25.9170  -10.8300  -10.1870 C.3     1  PDJ1        0.2526
     11  O3       -24.8620   -9.9000   -9.9940 O.3     1  PDJ1       -0.4445
     12  C11      -18.0930    2.5980  -20.3020 C.3     1  PDJ1        0.0000
     13  C12      -18.2190    1.0840  -20.3020 C.3     1  PDJ1        0.0000
     14  C13      -18.0260    0.4410  -18.9320 C.3     1  PDJ1        0.0000
     15  C14      -18.1920   -1.0790  -18.9740 C.3     1  PDJ1        0.0000
     16  C15      -18.0170   -1.6780  -17.5860 C.3     1  PDJ1        0.0000
     17  C16      -18.2960   -3.1720  -17.5490 C.3     1  PDJ1        0.0000
     18  C17      -19.3500   -3.5020  -16.4960 C.3     1  PDJ1        0.0000
     19  C18      -19.4110   -4.9980  -16.1820 C.3     1  PDJ1        0.0000
     20  C19      -19.0620   -5.2460  -14.7160 C.3     1  PDJ1        0.0000
     21  C20      -19.1690   -6.7120  -14.3150 C.3     1  PDJ1        0.0000
     22  C21      -20.0290   -6.8780  -13.0610 C.3     1  PDJ1        0.0000
     23  C22      -19.5180   -8.0070  -12.1660 C.3     1  PDJ1        0.0000
     24  C23      -20.4770   -8.3150  -11.0170 C.3     1  PDJ1        0.0006
     25  C24      -21.7770   -8.9350  -11.5260 C.3     1  PDJ1        0.0116
     26  C25      -22.4540   -9.8000  -10.4670 C.3     1  PDJ1        0.1096
     27  C26      -23.8860  -10.1530  -10.8290 C.2     1  PDJ1        0.3171
     28  O28      -24.1120  -10.6820  -11.9190 O.2     1  PDJ1       -0.2501
     29  C31      -23.3410    1.9880  -13.7840 C.3     1  PDJ1        0.0000
     30  C32      -22.7420    0.6120  -13.5840 C.3     1  PDJ1        0.0000
     31  C33      -23.4080   -0.4800  -14.4050 C.3     1  PDJ1        0.0000
     32  C34      -22.8700   -1.8570  -14.0420 C.3     1  PDJ1        0.0000
     33  C35      -23.7070   -2.9710  -14.6700 C.3     1  PDJ1        0.0000
     34  C36      -23.3170   -4.3480  -14.1360 C.3     1  PDJ1        0.0000
     35  C37      -23.5270   -4.4580  -12.6230 C.3     1  PDJ1        0.0000
     36  C38      -23.2140   -5.8650  -12.1220 C.3     1  PDJ1        0.0000
     37  C39      -24.0160   -6.2350  -10.8740 C.3     1  PDJ1        0.0000
     38  C40      -23.3840   -5.7030   -9.5940 C.3     1  PDJ1        0.0000
     39  C41      -24.3830   -4.9240   -8.7530 C.3     1  PDJ1        0.0000
     40  C42      -25.6520   -5.7240   -8.4510 C.3     1  PDJ1        0.0000
     41  C43      -25.3810   -6.9070   -7.5310 C.3     1  PDJ1        0.0006
     42  C44      -26.6780   -7.5720   -7.0900 C.3     1  PDJ1        0.0116
     43  C45      -26.3980   -8.7700   -6.1990 C.3     1  PDJ1        0.1096
     44  C46      -26.3440  -10.0690   -6.9790 C.2     1  PDJ1        0.3170
     45  O47      -25.7120  -11.0140   -6.5100 O.2     1  PDJ1       -0.2501
@<TRIPOS>BOND
     1    13    12    1
     2    13    14    1
     3    15    14    1
     4    15    16    1
     5    16    17    1
     6    17    18    1
     7    18    19    1
     8    19    20    1
     9    20    21    1
    10    33    34    1
    11    33    32    1
    12    31    32    1
    13    31    30    1
    14    21    22    1
    15    34    35    1
    16    29    30    1
    17     3     4    2
    18     3     6    1
    19    22    23    1
    20     5     6    1
    21    35    36    1
    22     6     1    1
    23    23    24    1
    24    36    37    1
    25    28    27    2
    26    25    24    1
    27    25    26    1
    28     1     2    1
    29    37    38    1
    30    27    26    1
    31    27    11    1
    32     2     7    1
    33    10    11    1
    34    10     8    1
    35    38    39    1
    36     7     8    1
    37     8     9    1
    38    39    40    1
    39    40    41    1
    40     9    44    1
    41    41    42    1
    42    42    43    1
    43    44    45    2
    44    44    43    1
