@<TRIPOS>MOLECULE
2z85_HEM_A_1.pdb
 43 50 0 0 0
SMALL
GASTEIGER

@<TRIPOS>ATOM
      1 FE         17.7600    7.8380   20.1470 Fe    147  HEM147      0.0000
      2  CHA       16.7400    9.7510   17.4500 C.2   147  HEM147      0.0000
      3  CHB       14.8010    8.6650   21.7360 C.2   147  HEM147      0.0000
      4  CHC       19.1060    7.0600   23.2410 C.2   147  HEM147      0.0000
      5  CHD       20.9430    7.7310   18.8330 C.2   147  HEM147      0.0000
      6  NA        16.1050    8.8700   19.6550 N.2   147  HEM147      0.0000
      7  C1A       15.8010    9.4650   18.4370 C.2   147  HEM147      0.0000
      8  C2A       14.3940    9.8580   18.3910 C.2   147  HEM147      0.0000
      9  C3A       13.8710    9.5850   19.6090 C.2   147  HEM147      0.0000
     10  C4A       14.9400    9.0190   20.4030 C.2   147  HEM147      0.0000
     11  CMA       12.4140    9.7820   20.0360 C.3   147  HEM147      0.0000
     12  CAA       13.6040   10.4090   17.2080 C.3   147  HEM147      0.0000
     13  CBA       12.9730    9.3380   16.3300 C.3   147  HEM147      0.0000
     14  CGA       14.0050    8.5320   15.5660 C.2   147  HEM147      0.0000
     15  O1A       14.6190    9.0930   14.6360 O.co2 147  HEM147      0.0000
     16  O2A       14.2090    7.3470   15.8990 O.co2 147  HEM147      0.0000
     17  NB        17.0840    7.8110   22.0470 N.ar  147  HEM147      0.0000
     18  C1B       15.8020    8.0950   22.5070 C.ar  147  HEM147      0.0000
     19  C2B       15.6380    7.7370   23.9060 C.ar  147  HEM147      0.0000
     20  C3B       16.8530    7.2850   24.3500 C.ar  147  HEM147      0.0000
     21  C4B       17.7480    7.3860   23.1960 C.ar  147  HEM147      0.0000
     22  CMB       14.3230    7.8130   24.6860 C.3   147  HEM147      0.0000
     23  CAB       17.2170    6.7650   25.6050 C.3   147  HEM147      0.0000
     24  CBB       16.5500    6.9820   26.8690 C.3   147  HEM147      0.0000
     25  NC        19.5940    7.3780   20.8600 N.2   147  HEM147      0.0000
     26  C1C       19.9550    7.0410   22.1530 C.2   147  HEM147      0.0000
     27  C2C       21.3600    6.6500   22.2340 C.2   147  HEM147      0.0000
     28  C3C       21.8750    6.7780   20.9830 C.2   147  HEM147      0.0000
     29  C4C       20.7750    7.2670   20.1430 C.2   147  HEM147      0.0000
     30  CMC       22.0860    6.2130   23.5080 C.3   147  HEM147      0.0000
     31  CAC       23.1740    6.5190   20.5170 C.3   147  HEM147      0.0000
     32  CBC       24.3920    6.4180   21.2840 C.3   147  HEM147      0.0000
     33  ND        18.6460    8.5930   18.5200 N.ar  147  HEM147      0.0000
     34  C1D       19.9710    8.4210   18.1020 C.ar  147  HEM147      0.0000
     35  C2D       20.2430    9.1790   16.8900 C.ar  147  HEM147      0.0000
     36  C3D       19.0980    9.7970   16.5400 C.ar  147  HEM147      0.0000
     37  C4D       18.0900    9.4030   17.5210 C.ar  147  HEM147      0.0000
     38  CMD       21.5860    9.3830   16.1790 C.3   147  HEM147      0.0000
     39  CAD       18.9460   10.7910   15.3960 C.3   147  HEM147      0.0000
     40  CBD       19.3100   12.1920   15.8620 C.3   147  HEM147      0.0000
     41  CGD       19.0730   13.2430   14.8000 C.2   147  HEM147      0.0000
     42  O1D       19.7930   13.2350   13.7790 O.co2 147  HEM147      0.0000
     43  O2D       18.1600   14.0750   14.9850 O.co2 147  HEM147      0.0000
@<TRIPOS>BOND
     1    42    41   ar
     2    15    14   ar
     3    41    43   ar
     4    41    40    1
     5    39    40    1
     6    39    36    1
     7    14    16   ar
     8    14    13    1
     9    38    35    1
    10    13    12    1
    11    36    35   ar
    12    36    37   ar
    13    35    34   ar
    14    12     8    1
    15     2    37    2
    16     2     7    1
    17    37    33   ar
    18    34    33   ar
    19    34     5    2
    20     8     7    1
    21     8     9    2
    22     7     6    2
    23    33     1    1
    24     5    29    1
    25     9    11    1
    26     9    10    1
    27     6     1    1
    28     6    10    1
    29    29    25    2
    30    29    28    1
    31     1    25    1
    32     1    17    1
    33    10     3    2
    34    31    28    1
    35    31    32    1
    36    25    26    1
    37    28    27    2
    38     3    18    1
    39    17    18   ar
    40    17    21   ar
    41    26    27    1
    42    26     4    2
    43    27    30    1
    44    18    19   ar
    45    21     4    1
    46    21    20   ar
    47    19    20   ar
    48    19    22    1
    49    20    23    1
    50    23    24    1
