@<TRIPOS>MOLECULE
2z86_UGA_A_1.pdb
 37 39 0 0 0
SMALL
GASTEIGER

@<TRIPOS>ATOM
      1  C1'      -33.5090   48.5950  -41.1850 C.3   683  UGA683      0.2746
      2  C2'      -32.8540   48.3420  -39.8170 C.3   683  UGA683      0.2409
      3  O2'      -31.4310   48.2500  -39.9660 O.3   683  UGA683     -0.2149
      4  C3'      -33.3920   47.0670  -39.1560 C.3   683  UGA683      0.2203
      5  O3'      -32.8000   46.8420  -37.8720 O.3   683  UGA683     -0.2174
      6  C4'      -34.9050   47.1920  -39.0410 C.3   683  UGA683      0.2229
      7  O4'      -35.4620   46.0400  -38.4050 O.3   683  UGA683     -0.2171
      8  C5'      -35.4900   47.3340  -40.4470 C.3   683  UGA683      0.2529
      9  O5'      -34.9460   48.4890  -41.1200 O.3   683  UGA683     -0.3167
     10  C6'      -36.9960   47.3830  -40.3500 C.2   683  UGA683      0.3941
     11  O'P      -37.6970   48.5040  -40.8970 O.co2 683  UGA683     -0.2429
     12  O'Q      -37.7170   46.3890  -39.7720 O.co2 683  UGA683     -0.2429
     13  PB       -33.3040   47.6350  -43.7280 P.3   683  UGA683      0.2208
     14  O1B      -33.3330   49.0290  -44.3300 O.2   683  UGA683     -0.5170
     15  O2B      -34.5440   46.7780  -43.9040 O.3   683  UGA683     -0.4371
     16  O3B      -32.9500   47.6950  -42.1450 O.3   683  UGA683     -0.2857
     17  O3A      -32.0300   46.7540  -44.2460 O.3   683  UGA683     -0.2703
     18  PA       -30.5790   47.2460  -44.8030 P.3   683  UGA683      0.2189
     19  O1A      -30.4680   48.7560  -44.8480 O.3   683  UGA683     -0.4371
     20  O2A      -30.2620   46.4590  -46.0500 O.2   683  UGA683     -0.5170
     21  O5D      -29.5800   46.6950  -43.6740 O.3   683  UGA683     -0.3112
     22  C5D      -29.6100   47.2830  -42.3830 C.3   683  UGA683      0.1813
     23  C4D      -28.1890   47.5760  -41.9260 C.3   683  UGA683      0.1799
     24  O4D      -27.4570   46.3480  -41.8960 O.3   683  UGA683     -0.3320
     25  C3D      -27.4370   48.5520  -42.8280 C.3   683  UGA683      0.2158
     26  O3D      -26.9190   49.6070  -42.0130 O.3   683  UGA683     -0.2175
     27  C2D      -26.2720   47.7620  -43.3660 C.3   683  UGA683      0.2319
     28  O2D      -25.1130   48.6010  -43.3340 O.3   683  UGA683     -0.2157
     29  C1D      -26.1430   46.6020  -42.3840 C.3   683  UGA683      0.2401
     30  N1       -25.5840   45.3450  -42.8800 N.am  683  UGA683     -0.1766
     31  C6       -26.1360   44.6990  -43.9150 C.2   683  UGA683      0.0929
     32  C2       -24.5210   44.8310  -42.2180 C.1   683  UGA683      0.2845
     33  O2       -24.0150   45.4380  -41.2330 O.2   683  UGA683     -0.1918
     34  N3       -23.9740   43.6630  -42.6110 N.2   683  UGA683     -0.2452
     35  C4       -24.4780   42.9750  -43.6650 C.1   683  UGA683      0.2182
     36  O4       -23.9580   41.8850  -44.0230 O.2   683  UGA683     -0.2085
     37  C5       -25.5840   43.4940  -44.3420 C.2   683  UGA683      0.1242
@<TRIPOS>BOND
     1    20    18    2
     2    19    18    1
     3    18    17    1
     4    18    21    1
     5    37    31    2
     6    37    35    1
     7    14    13    2
     8    17    13    1
     9    36    35    2
    10    31    30    1
    11    15    13    1
    12    13    16    1
    13    21    22    1
    14    35    34    2
    15    27    28    1
    16    27    25    1
    17    27    29    1
    18    30    29    1
    19    30    32   am
    20    25    26    1
    21    25    23    1
    22    34    32    2
    23    29    24    1
    24    22    23    1
    25    32    33    2
    26    16     1    1
    27    23    24    1
    28     1     9    1
    29     1     2    1
    30     9     8    1
    31    11    10   ar
    32     8    10    1
    33     8     6    1
    34    10    12   ar
    35     3     2    1
    36     2     4    1
    37     4     6    1
    38     4     5    1
    39     6     7    1
