@<TRIPOS>MOLECULE
2z86_UDP_B_1.pdb
 25 26 0 0 0
SMALL
GASTEIGER

@<TRIPOS>ATOM
      1  N1         2.4840   55.6880  -31.7110 N.am    1  UDP1       -0.1766
      2  C2         1.2150   56.2770  -31.8100 C.1     1  UDP1        0.2845
      3  N3         1.0970   57.5470  -32.2840 N.2     1  UDP1       -0.2452
      4  C4         2.1910   58.2450  -32.6830 C.1     1  UDP1        0.2182
      5  C5         3.4550   57.6720  -32.5810 C.2     1  UDP1        0.1242
      6  C6         3.5720   56.3840  -32.0870 C.2     1  UDP1        0.0929
      7  O2         0.1870   55.6890  -31.4710 O.2     1  UDP1       -0.1918
      8  O4         2.0680   59.4030  -33.1460 O.2     1  UDP1       -0.2085
      9  C1'        2.5920   54.3240  -31.1780 C.3     1  UDP1        0.2401
     10  C2'        3.4230   53.3490  -32.0190 C.3     1  UDP1        0.2319
     11  O2'        2.6890   52.7130  -33.0580 O.3     1  UDP1       -0.2157
     12  C3'        3.8690   52.3440  -30.9860 C.3     1  UDP1        0.2158
     13  C4'        4.0310   53.1900  -29.7320 C.3     1  UDP1        0.1799
     14  O4'        3.2970   54.3910  -29.9490 O.3     1  UDP1       -0.3320
     15  O3'        2.8210   51.3930  -30.7460 O.3     1  UDP1       -0.2175
     16  C5'        5.4650   53.5740  -29.4000 C.3     1  UDP1        0.1813
     17  O5'        6.1400   54.1700  -30.5180 O.3     1  UDP1       -0.3111
     18  PA         7.7080   53.8380  -30.6690 P.3     1  UDP1        0.2231
     19  O1A        8.3520   54.9490  -31.4420 O.2     1  UDP1       -0.5169
     20  O2A        7.8340   52.3940  -31.1370 O.3     1  UDP1       -0.4370
     21  O3A        8.1820   53.9160  -29.1420 O.3     1  UDP1       -0.2261
     22  PB         9.6430   53.4840  -28.6300 P.3     1  UDP1        0.5373
     23  O1B        9.9510   52.1420  -29.2590 O.2     1  UDP1       -0.2221
     24  O2B        9.4310   53.4420  -27.1350 O.3     1  UDP1       -0.1143
     25  O3B       10.5130   54.6200  -29.1300 O.3     1  UDP1       -0.1143
@<TRIPOS>BOND
     1     8     4    2
     2    11    10    1
     3     4     5    1
     4     4     3    2
     5     5     6    2
     6     3     2    2
     7     6     1    1
     8    10     9    1
     9    10    12    1
    10     2     1   am
    11     2     7    2
    12     1     9    1
    13    19    18    2
    14     9    14    1
    15    20    18    1
    16    12    15    1
    17    12    13    1
    18    18    17    1
    19    18    21    1
    20    17    16    1
    21    14    13    1
    22    13    16    1
    23    23    22    2
    24    21    22    1
    25    25    22    1
    26    22    24    1
