@<TRIPOS>MOLECULE
2z87_UDP_A_1.pdb
 25 26 0 0 0
SMALL
GASTEIGER

@<TRIPOS>ATOM
      1  N1         7.1110   11.8090   32.9730 N.am  684  UDP684     -0.1766
      2  C2         6.3910   11.7100   31.8030 C.1   684  UDP684      0.2845
      3  N3         5.1000   11.4360   31.7470 N.2   684  UDP684     -0.2452
      4  C4         4.4620   11.2360   32.8790 C.1   684  UDP684      0.2182
      5  C5         5.1440   11.3180   34.0690 C.2   684  UDP684      0.1242
      6  C6         6.4860   11.6140   34.1060 C.2   684  UDP684      0.0929
      7  O2         6.9450   11.8790   30.7150 O.2   684  UDP684     -0.1918
      8  O4         3.2620   10.9820   32.8380 O.2   684  UDP684     -0.2085
      9  C1'        8.5370   12.0940   32.8920 C.3   684  UDP684      0.2401
     10  C2'        9.0100   13.0540   33.9260 C.3   684  UDP684      0.2319
     11  O2'        9.0450   14.3560   33.4100 O.3   684  UDP684     -0.2157
     12  C3'       10.4360   12.6720   34.0040 C.3   684  UDP684      0.2158
     13  C4'       10.4460   11.1960   33.9100 C.3   684  UDP684      0.1799
     14  O4'        9.2650   10.9210   33.1940 O.3   684  UDP684     -0.3320
     15  O3'       10.8440   13.0870   32.7510 O.3   684  UDP684     -0.2175
     16  C5'       10.5100   10.5840   35.3050 C.3   684  UDP684      0.1813
     17  O5'        9.4350   10.9630   36.1790 O.3   684  UDP684     -0.3111
     18  PA         9.3960   12.0030   37.3870 P.3   684  UDP684      0.2231
     19  O1A        8.0310   12.5040   37.6280 O.3   684  UDP684     -0.4370
     20  O2A       10.4490   13.0320   37.3390 O.2   684  UDP684     -0.5169
     21  O3A        9.8060   10.9460   38.4460 O.3   684  UDP684     -0.2261
     22  PB        10.9840   10.0730   37.8960 P.3   684  UDP684      0.5373
     23  O1B       11.7180   11.1280   37.1800 O.3   684  UDP684     -0.1143
     24  O2B       10.2730    9.0460   37.1200 O.2   684  UDP684     -0.2221
     25  O3B       11.7570    9.5500   39.0450 O.3   684  UDP684     -0.1143
@<TRIPOS>BOND
     1     7     2    2
     2     3     2    2
     3     3     4    2
     4     2     1   am
     5    15    12    1
     6     8     4    2
     7     4     5    1
     8     9     1    1
     9     9    14    1
    10     9    10    1
    11     1     6    1
    12    14    13    1
    13    11    10    1
    14    13    12    1
    15    13    16    1
    16    10    12    1
    17     5     6    2
    18    16    17    1
    19    17    18    1
    20    24    22    2
    21    23    22    1
    22    20    18    2
    23    18    19    1
    24    18    21    1
    25    22    21    1
    26    22    25    1
