@<TRIPOS>MOLECULE
2z87_UD2_A_1.pdb
 39 41 0 0 0
SMALL
GASTEIGER

@<TRIPOS>ATOM
      1  C1'       27.1700   -0.5190   -9.4170 C.3   683  UD2683      0.2633
      2  C2'       26.4600   -1.4860   -8.4530 C.3   683  UD2683      0.1845
      3  C3'       24.9570   -1.1970   -8.4870 C.3   683  UD2683      0.2094
      4  C4'       24.7560    0.2050   -7.8940 C.3   683  UD2683      0.2136
      5  C5'       25.6510    1.2110   -8.6550 C.3   683  UD2683      0.1834
      6  C6'       25.6310    2.5990   -8.0250 C.3   683  UD2683      0.2142
      7  C7'       27.9360   -3.4090   -8.5870 C.2   683  UD2683      0.2420
      8  C8'       28.0660   -4.8060   -9.1040 C.3   683  UD2683      0.0964
      9  N2'       26.7470   -2.8510   -8.8690 N.am  683  UD2683     -0.1992
     10  O1'       26.6350   -0.5260  -10.7650 O.3   683  UD2683     -0.2864
     11  O3'       24.2210   -2.1680   -7.7450 O.3   683  UD2683     -0.2183
     12  O4'       24.9990    0.2500   -6.4700 O.3   683  UD2683     -0.2176
     13  O5'       27.0240    0.7740   -8.8150 O.3   683  UD2683     -0.3260
     14  O6'       24.3970    3.2350   -8.4100 O.3   683  UD2683     -0.2176
     15  O7'       28.8570   -2.8530   -7.9770 O.2   683  UD2683     -0.2733
     16  N1        20.2680    2.2370  -14.1430 N.am  683  UD2683     -0.1766
     17  C2        19.0640    2.9060  -14.0240 C.1   683  UD2683      0.2845
     18  N3        18.9110    4.1350  -14.5700 N.2   683  UD2683     -0.2452
     19  C4        19.9320    4.7370  -15.2490 C.1   683  UD2683      0.2182
     20  C5        21.1880    4.0640  -15.3890 C.2   683  UD2683      0.1242
     21  C6        21.3300    2.8260  -14.8310 C.2   683  UD2683      0.0929
     22  O2        18.1260    2.4060  -13.4310 O.2   683  UD2683     -0.1918
     23  O4        19.7750    5.8420  -15.7350 O.2   683  UD2683     -0.2085
     24  C1B       20.4080    0.8880  -13.5390 C.3   683  UD2683      0.2401
     25  C2B       20.7560   -0.1830  -14.5340 C.3   683  UD2683      0.2319
     26  O2'       19.5240   -0.7840  -14.9060 O.3   683  UD2683     -0.2157
     27  C3B       21.5960   -1.1430  -13.7410 C.3   683  UD2683      0.2158
     28  C4B       22.2270   -0.2960  -12.6750 C.3   683  UD2683      0.1799
     29  O4B       21.3570    0.7880  -12.4750 O.3   683  UD2683     -0.3320
     30  O3B       20.7090   -2.0880  -13.1330 O.3   683  UD2683     -0.2175
     31  C5B       23.3690    0.4730  -13.2580 C.3   683  UD2683      0.1813
     32  O5B       24.5520   -0.0870  -12.7600 O.3   683  UD2683     -0.3112
     33  PA        25.5330   -0.5420  -13.9000 P.3   683  UD2683      0.2189
     34  O1A       25.5020   -2.0510  -13.9290 O.3   683  UD2683     -0.4371
     35  O2A       25.1380    0.2740  -15.0950 O.2   683  UD2683     -0.5170
     36  O3A       26.8800    0.0560  -13.2810 O.3   683  UD2683     -0.2703
     37  PB        27.6210   -0.6490  -12.0500 P.3   683  UD2683      0.2208
     38  O1B       27.8220   -2.1200  -12.3680 O.2   683  UD2683     -0.5170
     39  O2B       28.8060    0.2490  -11.7330 O.3   683  UD2683     -0.4371
@<TRIPOS>BOND
     1    23    19    2
     2    20    19    1
     3    20    21    2
     4    19    18    2
     5    35    33    2
     6    26    25    1
     7    21    16    1
     8    18    17    2
     9    25    27    1
    10    25    24    1
    11    16    17   am
    12    16    24    1
    13    17    22    2
    14    34    33    1
    15    33    36    1
    16    33    32    1
    17    27    30    1
    18    27    28    1
    19    24    29    1
    20    36    37    1
    21    31    32    1
    22    31    28    1
    23    28    29    1
    24    38    37    2
    25    37    39    1
    26    37    10    1
    27    10     1    1
    28     1    13    1
    29     1     2    1
    30     8     7    1
    31     9     7   am
    32     9     2    1
    33    13     5    1
    34     5     6    1
    35     5     4    1
    36     7    15    2
    37     3     2    1
    38     3     4    1
    39     3    11    1
    40    14     6    1
    41     4    12    1
