@<TRIPOS>MOLECULE
2z8a_HEM_A_1.pdb
 43 50 0 0 0
SMALL
GASTEIGER

@<TRIPOS>ATOM
      1 FE         42.7530   -2.2160   20.0620 Fe    1147  HEM1147     0.0000
      2  CHA       41.7600   -0.6290   17.1970 C.2   1147  HEM1147     0.0000
      3  CHB       39.5330   -2.0840   21.2250 C.2   1147  HEM1147     0.0000
      4  CHC       43.8150   -3.4280   23.0460 C.2   1147  HEM1147     0.0000
      5  CHD       45.8760   -2.5890   18.7730 C.2   1147  HEM1147     0.0000
      6  NA        41.0160   -1.4650   19.3750 N.2   1147  HEM1147     0.0000
      7  C1A       40.7930   -0.9180   18.1420 C.2   1147  HEM1147     0.0000
      8  C2A       39.3860   -0.5630   17.9810 C.2   1147  HEM1147     0.0000
      9  C3A       38.7640   -0.9350   19.1170 C.2   1147  HEM1147     0.0000
     10  C4A       39.7960   -1.5350   19.9690 C.2   1147  HEM1147     0.0000
     11  CMA       37.3160   -0.8200   19.4930 C.3   1147  HEM1147     0.0000
     12  CAA       38.8050   -0.0410   16.6940 C.3   1147  HEM1147     0.0000
     13  CBA       38.7130   -1.1650   15.6380 C.3   1147  HEM1147     0.0000
     14  CGA       38.3930   -0.6980   14.2390 C.2   1147  HEM1147     0.0000
     15  O1A       37.5890    0.2530   14.0830 O.co2 1147  HEM1147     0.0000
     16  O2A       38.9310   -1.3200   13.2820 O.co2 1147  HEM1147     0.0000
     17  NB        41.8430   -2.7000   21.7650 N.ar  1147  HEM1147     0.0000
     18  C1B       40.5000   -2.6310   22.0670 C.ar  1147  HEM1147     0.0000
     19  C2B       40.2390   -3.0880   23.4060 C.ar  1147  HEM1147     0.0000
     20  C3B       41.4580   -3.3880   23.9550 C.ar  1147  HEM1147     0.0000
     21  C4B       42.4400   -3.1570   22.9180 C.ar  1147  HEM1147     0.0000
     22  CMB       38.8930   -3.1880   24.0570 C.3   1147  HEM1147     0.0000
     23  CAB       41.7880   -3.8610   25.2810 C.2   1147  HEM1147     0.0000
     24  CBB       41.1540   -3.5100   26.4340 C.2   1147  HEM1147     0.0000
     25  NC        44.4880   -2.9740   20.7460 N.2   1147  HEM1147     0.0000
     26  C1C       44.7460   -3.3850   22.0300 C.2   1147  HEM1147     0.0000
     27  C2C       46.1620   -3.6790   22.1890 C.2   1147  HEM1147     0.0000
     28  C3C       46.7330   -3.5100   20.9630 C.2   1147  HEM1147     0.0000
     29  C4C       45.6900   -3.0170   20.0730 C.2   1147  HEM1147     0.0000
     30  CMC       46.7730   -4.0870   23.4870 C.3   1147  HEM1147     0.0000
     31  CAC       48.1210   -3.6730   20.5620 C.2   1147  HEM1147     0.0000
     32  CBC       49.1270   -4.2290   21.1710 C.2   1147  HEM1147     0.0000
     33  ND        43.6440   -1.7200   18.3290 N.ar  1147  HEM1147     0.0000
     34  C1D       44.9570   -1.9260   17.9910 C.ar  1147  HEM1147     0.0000
     35  C2D       45.2470   -1.3340   16.7030 C.ar  1147  HEM1147     0.0000
     36  C3D       44.1090   -0.7350   16.2800 C.ar  1147  HEM1147     0.0000
     37  C4D       43.1000   -1.0080   17.3010 C.ar  1147  HEM1147     0.0000
     38  CMD       46.6020   -1.3230   16.0680 C.3   1147  HEM1147     0.0000
     39  CAD       43.8930    0.1080   15.0560 C.3   1147  HEM1147     0.0000
     40  CBD       44.0580    1.6190   15.3420 C.3   1147  HEM1147     0.0000
     41  CGD       43.6980    2.3890   14.0730 C.2   1147  HEM1147     0.0000
     42  O1D       44.5480    2.3910   13.1190 O.co2 1147  HEM1147     0.0000
     43  O2D       42.5580    2.8980   13.9900 O.co2 1147  HEM1147     0.0000
@<TRIPOS>BOND
     1    42    41   ar
     2    16    14   ar
     3    43    41   ar
     4    41    40    1
     5    15    14   ar
     6    14    13    1
     7    39    40    1
     8    39    36    1
     9    13    12    1
    10    38    35    1
    11    36    35   ar
    12    36    37   ar
    13    12     8    1
    14    35    34   ar
    15     2    37    2
    16     2     7    1
    17    37    33   ar
    18     8     7    1
    19     8     9    2
    20    34    33   ar
    21    34     5    2
    22     7     6    2
    23    33     1    1
    24     5    29    1
    25     9    11    1
    26     9    10    1
    27     6    10    1
    28     6     1    1
    29    10     3    2
    30     1    25    1
    31     1    17    1
    32    29    25    2
    33    29    28    1
    34    31    28    1
    35    31    32    2
    36    25    26    1
    37    28    27    2
    38     3    18    1
    39    17    18   ar
    40    17    21   ar
    41    26    27    1
    42    26     4    2
    43    18    19   ar
    44    27    30    1
    45    21     4    1
    46    21    20   ar
    47    19    20   ar
    48    19    22    1
    49    20    23    1
    50    23    24    2
