@<TRIPOS>MOLECULE
2z8c_S91_A_1.pdb
 28 30 0 0 0
SMALL
GASTEIGER

@<TRIPOS>ATOM
      1  C1        17.8320   32.3320   29.2220 C.ar    1  S911       -0.0109
      2  C2        18.7610   33.2400   29.9040 C.ar    1  S911       -0.0024
      3  C3        18.6180   34.6670   29.6000 C.ar    1  S911        0.0170
      4  C4        17.5470   35.0850   28.6390 C.ar    1  S911        0.0826
      5  C5        16.6160   34.1850   27.9670 C.ar    1  S911        0.0170
      6  C6        16.7750   32.7670   28.2760 C.ar    1  S911       -0.0024
      7  C7        18.1310   30.8620   29.3060 C.3     1  S911        0.1404
      8  C8        16.9770   30.1600   29.9660 C.2     1  S911        0.3692
      9  O1        16.0430   29.7590   29.2480 O.co2   1  S911       -0.2453
     10  O2        17.0070   30.0420   31.1950 O.co2   1  S911       -0.2453
     11  N1        18.5290   36.1520   26.3530 N.2     1  S911       -0.3188
     12  C9        19.1220   36.7760   25.3250 C.2     1  S911        0.2222
     13  C10       19.2250   38.1930   25.2410 C.2     1  S911        0.1231
     14  C11       18.7050   39.0300   26.2510 C.2     1  S911        0.1203
     15  N2        18.1190   38.3700   27.2660 N.2     1  S911       -0.1681
     16  C12       18.0470   36.9880   27.2930 C.1     1  S911        0.1709
     17  C13       19.8740   38.8090   24.1020 C.2     1  S911        0.2896
     18  O3        20.5850   38.1770   23.3010 O.2     1  S911       -0.2665
     19  N3        19.6780   36.1210   24.2740 N.pl3   1  S911       -0.1826
     20  N4        17.4310   36.4120   28.3630 N.pl3   1  S911       -0.1357
     21  N5        19.5170   40.1300   24.0520 N.am    1  S911       -0.0835
     22  C14       19.8760   32.0850   22.9750 C.ar    1  S911       -0.0042
     23  C15       19.2880   32.3180   24.2850 C.ar    1  S911        0.0010
     24  C16       19.2070   33.6890   24.7600 C.ar    1  S911        0.0166
     25  C17       19.7020   34.8070   23.9400 C.ar    1  S911        0.0728
     26  C18       20.2870   34.5840   22.6400 C.ar    1  S911        0.0123
     27  C19       20.3480   33.2060   22.2060 C.ar    1  S911       -0.0206
     28  C20       20.9210   32.9240   20.9200 C.3     1  S911        0.0311
@<TRIPOS>BOND
     1    28    27    1
     2    27    26   ar
     3    27    22   ar
     4    26    25   ar
     5    22    23   ar
     6    18    17    2
     7    25    19    1
     8    25    24   ar
     9    21    17   am
    10    17    13    1
    11    19    12    1
    12    23    24   ar
    13    13    12    1
    14    13    14    2
    15    12    11    2
    16    14    15    1
    17    11    16    2
    18    15    16    2
    19    16    20    1
    20     5     6   ar
    21     5     4   ar
    22     6     1   ar
    23    20     4    1
    24     4     3   ar
    25     1     7    1
    26     1     2   ar
    27     9     8   ar
    28     7     8    1
    29     3     2   ar
    30     8    10   ar
