@<TRIPOS>MOLECULE
2z8d_GAL_A_1.pdb
 11 11 0 0 0
SMALL
GASTEIGER

@<TRIPOS>ATOM
      1  C1        25.0260    7.1950   16.1020 C.3     1  GAL1        0.1777
      2  C2        25.5140    6.0270   16.9760 C.3     1  GAL1        0.2141
      3  C3        27.0000    6.1860   17.3070 C.3     1  GAL1        0.2173
      4  C4        27.8110    6.3620   16.0490 C.3     1  GAL1        0.2142
      5  C5        27.2550    7.5670   15.2410 C.3     1  GAL1        0.1810
      6  C6        27.9330    7.6800   13.8990 C.3     1  GAL1        0.2141
      7  O2        24.8190    5.9560   18.1840 O.3     1  GAL1       -0.2176
      8  O3        27.4700    5.1290   18.1260 O.3     1  GAL1       -0.2175
      9  O4        27.7720    5.1540   15.3010 O.3     1  GAL1       -0.2176
     10  O5        25.8440    7.3490   14.9930 O.3     1  GAL1       -0.3481
     11  O6        27.6460    8.9490   13.3090 O.3     1  GAL1       -0.2176
@<TRIPOS>BOND
     1    11     6    1
     2     6     5    1
     3    10     5    1
     4    10     1    1
     5     5     4    1
     6     9     4    1
     7     4     3    1
     8     1     2    1
     9     2     3    1
    10     2     7    1
    11     3     8    1
