@<TRIPOS>MOLECULE
2z8e_GAL_A_1.pdb
 11 11 0 0 0
SMALL
GASTEIGER

@<TRIPOS>ATOM
      1  C1        25.0040   -7.0630   41.2480 C.3     1  GAL1        0.1777
      2  C2        25.5410   -5.9500   40.3450 C.3     1  GAL1        0.2141
      3  C3        27.0210   -6.1930   40.0660 C.3     1  GAL1        0.2173
      4  C4        27.8100   -6.4010   41.3680 C.3     1  GAL1        0.2142
      5  C5        27.1750   -7.5540   42.1880 C.3     1  GAL1        0.1810
      6  C6        27.7390   -7.5960   43.6030 C.3     1  GAL1        0.2141
      7  O2        24.7850   -5.8290   39.1610 O.3     1  GAL1       -0.2176
      8  O3        27.4460   -5.0720   39.3390 O.3     1  GAL1       -0.2175
      9  O4        27.7140   -5.1770   42.1220 O.3     1  GAL1       -0.2176
     10  O5        25.8220   -7.1730   42.3790 O.3     1  GAL1       -0.3481
     11  O6        27.6530   -8.9020   44.1540 O.3     1  GAL1       -0.2176
@<TRIPOS>BOND
     1     7     2    1
     2     8     3    1
     3     3     2    1
     4     3     4    1
     5     2     1    1
     6     1    10    1
     7     4     9    1
     8     4     5    1
     9     5    10    1
    10     5     6    1
    11     6    11    1
