@<TRIPOS>MOLECULE
2z8e_MES_A_1.pdb
 12 12 0 0 0
SMALL
GASTEIGER

@<TRIPOS>ATOM
      1  O1        44.8880    8.3500   35.6020 O.3    11  MES11      -0.3508
      2  C2        44.6430    7.8530   36.9290 C.3    11  MES11       0.1595
      3  C3        45.8400    7.1680   37.5790 C.3    11  MES11       0.1047
      4  N4        46.4170    6.2580   36.6030 N.3    11  MES11      -0.2670
      5  C5        46.6110    6.6650   35.2040 C.3    11  MES11       0.1047
      6  C6        45.3660    7.3870   34.6740 C.3    11  MES11       0.1595
      7  C7        46.8500    4.9410   37.0590 C.3    11  MES11       0.0940
      8  C8        47.2050    4.2070   35.7720 C.3    11  MES11       0.1225
      9  S         48.4630    3.1320   35.9750 S.3    11  MES11      -0.1946
     10  O1S       48.1770    2.2040   37.1040 O.3    11  MES11      -0.3074
     11  O2S       48.5760    2.4160   34.6790 O.3    11  MES11      -0.3074
     12  O3S       49.7130    3.8980   36.2550 O.3    11  MES11      -0.3074
@<TRIPOS>BOND
     1     6     5    1
     2     6     1    1
     3    11     9    1
     4     5     4    1
     5     1     2    1
     6     8     9    1
     7     8     7    1
     8     9    12    1
     9     9    10    1
    10     4     7    1
    11     4     3    1
    12     2     3    1
