@<TRIPOS>MOLECULE
2z8f_BGC_A_1.pdb
 12 12 0 0 0
SMALL
GASTEIGER

@<TRIPOS>ATOM
      1  C2        10.6960    7.1160   14.2830 C.3     4  BGC4        0.2434
      2  C3        12.2090    7.2380   14.1000 C.3     4  BGC4        0.2199
      3  C4        12.9810    6.9750   15.4170 C.3     4  BGC4        0.2144
      4  C5        12.4400    5.6960   16.0760 C.3     4  BGC4        0.1836
      5  C6        13.0560    5.3330   17.4320 C.3     4  BGC4        0.2142
      6  C1        10.3460    5.8220   14.9890 C.3     4  BGC4        0.3024
      7  O1         8.9510    5.8310   15.1940 O.3     4  BGC4       -0.1869
      8  O2        10.0370    7.1440   13.0250 O.3     4  BGC4       -0.2148
      9  O3        12.4600    8.5340   13.6050 O.3     4  BGC4       -0.2174
     10  O4        14.3680    6.7900   15.1530 O.3     4  BGC4       -0.2176
     11  O5        11.0270    5.7680   16.2420 O.3     4  BGC4       -0.3236
     12  O6        12.8190    3.9470   17.6550 O.3     4  BGC4       -0.2176
@<TRIPOS>BOND
     1     8     1    1
     2     9     2    1
     3     2     1    1
     4     2     3    1
     5     1     6    1
     6     6     7    1
     7     6    11    1
     8    10     3    1
     9     3     4    1
    10     4    11    1
    11     4     5    1
    12     5    12    1
