@<TRIPOS>MOLECULE
2z8f_GAL_A_1.pdb
 11 11 0 0 0
SMALL
GASTEIGER

@<TRIPOS>ATOM
      1  C1        15.1670    7.9690   15.1460 C.3     3  GAL3        0.1777
      2  C2        16.6050    7.4440   15.2900 C.3     3  GAL3        0.2141
      3  C3        17.6700    8.4860   14.9750 C.3     3  GAL3        0.2173
      4  C4        17.3640    9.2000   13.6540 C.3     3  GAL3        0.2142
      5  C5        15.9190    9.7070   13.6670 C.3     3  GAL3        0.1810
      6  C6        15.5080   10.3380   12.3380 C.3     3  GAL3        0.2141
      7  O2        16.7510    6.9810   16.6080 O.3     3  GAL3       -0.2176
      8  O3        18.8820    7.7290   14.9860 O.3     3  GAL3       -0.2175
      9  O4        17.4860    8.2270   12.6490 O.3     3  GAL3       -0.2176
     10  O5        15.0380    8.6390   13.9130 O.3     3  GAL3       -0.3481
     11  O6        14.1470   10.7610   12.4740 O.3     3  GAL3       -0.2176
@<TRIPOS>BOND
     1     6    11    1
     2     6     5    1
     3     9     4    1
     4     4     5    1
     5     4     3    1
     6     5    10    1
     7    10     1    1
     8     3     8    1
     9     3     2    1
    10     1     2    1
    11     2     7    1
