@<TRIPOS>MOLECULE
2z8g_BGC_A_1.pdb
 12 12 0 0 0
SMALL
GASTEIGER

@<TRIPOS>ATOM
      1  C2         6.3570    1.8990    2.3040 C.3   2003  BGC2003     0.2434
      2  C3         5.1860    2.7740    2.7630 C.3   2003  BGC2003     0.2199
      3  C4         4.1860    1.9460    3.5810 C.3   2003  BGC2003     0.2144
      4  C5         4.9220    1.2260    4.7130 C.3   2003  BGC2003     0.1836
      5  C6         4.0430    0.3090    5.5310 C.3   2003  BGC2003     0.2142
      6  C1         6.9840    1.1970    3.5130 C.3   2003  BGC2003     0.3024
      7  O1         7.9880    0.3390    3.0970 O.3   2003  BGC2003    -0.1869
      8  O2         7.3290    2.7020    1.6560 O.3   2003  BGC2003    -0.2148
      9  O3         4.5380    3.3360    1.6320 O.3   2003  BGC2003    -0.2174
     10  O4         3.1930    2.8000    4.1330 O.3   2003  BGC2003    -0.2176
     11  O5         5.9910    0.4160    4.1840 O.3   2003  BGC2003    -0.3236
     12  O6         4.7940   -0.1260    6.6790 O.3   2003  BGC2003    -0.2176
@<TRIPOS>BOND
     1     9     2    1
     2     8     1    1
     3     1     2    1
     4     1     6    1
     5     2     3    1
     6     7     6    1
     7     6    11    1
     8     3    10    1
     9     3     4    1
    10    11     4    1
    11     4     5    1
    12     5    12    1
