@<TRIPOS>MOLECULE
2z8g_NAG_A_1.pdb
 14 14 0 0 0
SMALL
GASTEIGER

@<TRIPOS>ATOM
      1  C1        38.8730   20.5510  -12.5970 C.3   1000  NAG1000     0.1665
      2  C2        37.6590   19.9770  -13.3410 C.3   1000  NAG1000     0.1576
      3  C3        38.0350   18.6800  -14.0650 C.3   1000  NAG1000     0.2069
      4  C4        39.2920   18.8680  -14.9200 C.3   1000  NAG1000     0.2134
      5  C5        40.4160   19.4900  -14.0840 C.3   1000  NAG1000     0.1809
      6  C6        41.6500   19.7980  -14.9100 C.3   1000  NAG1000     0.2141
      7  C7        35.6120   20.5860  -12.2300 C.2   1000  NAG1000     0.2420
      8  C8        34.2870   20.0530  -11.7020 C.3   1000  NAG1000     0.0964
      9  N2        36.5950   19.7080  -12.3940 N.am  1000  NAG1000    -0.2019
     10  O3        36.9560   18.2710  -14.8950 O.3   1000  NAG1000    -0.2184
     11  O4        39.7160   17.6100  -15.4230 O.3   1000  NAG1000    -0.2176
     12  O5        39.9690   20.7340  -13.5040 O.3   1000  NAG1000    -0.3489
     13  O6        41.3220   20.5860  -16.0460 O.3   1000  NAG1000    -0.2176
     14  O7        35.7330   21.7810  -12.4920 O.2   1000  NAG1000    -0.2733
@<TRIPOS>BOND
     1    13     6    1
     2    11     4    1
     3     4     5    1
     4     4     3    1
     5     6     5    1
     6    10     3    1
     7     5    12    1
     8     3     2    1
     9    12     1    1
    10     2     1    1
    11     2     9    1
    12    14     7    2
    13     9     7   am
    14     7     8    1
