@<TRIPOS>MOLECULE
2z8g_GLC_A_1.pdb
 11 11 0 0 0
SMALL
GASTEIGER

@<TRIPOS>ATOM
      1  C1         8.2890   -4.7630    7.0740 C.3   2001  GLC2001     0.1777
      2  C2         9.7130   -4.7120    7.6480 C.3   2001  GLC2001     0.2141
      3  C3        10.6970   -4.2430    6.5730 C.3   2001  GLC2001     0.2173
      4  C4        10.5770   -5.1190    5.3180 C.3   2001  GLC2001     0.2142
      5  C5         9.1150   -5.1840    4.8510 C.3   2001  GLC2001     0.1810
      6  C6         8.8920   -6.1430    3.6930 C.3   2001  GLC2001     0.2141
      7  O2         9.7610   -3.8300    8.7620 O.3   2001  GLC2001    -0.2176
      8  O3        12.0230   -4.3080    7.0800 O.3   2001  GLC2001    -0.2175
      9  O4        11.3830   -4.5720    4.2830 O.3   2001  GLC2001    -0.2176
     10  O5         8.2630   -5.6180    5.9360 O.3   2001  GLC2001    -0.3481
     11  O6         9.3140   -7.4590    4.0220 O.3   2001  GLC2001    -0.2176
@<TRIPOS>BOND
     1     6    11    1
     2     6     5    1
     3     9     4    1
     4     5     4    1
     5     5    10    1
     6     4     3    1
     7    10     1    1
     8     3     8    1
     9     3     2    1
    10     1     2    1
    11     2     7    1
