@<TRIPOS>MOLECULE
2z8i_AZS_B_1.pdb
 10 9 0 0 0
SMALL
GASTEIGER

@<TRIPOS>ATOM
      1  O         12.7560  -33.6320  -23.2430 O.co2 390  AZS390     -0.2440
      2  C         13.9900  -33.7090  -23.4310 C.2   390  AZS390      0.3844
      3  OXT       14.8550  -33.1150  -22.7540 O.co2 390  AZS390     -0.2440
      4  CA        14.4630  -34.5940  -24.5870 C.3   390  AZS390      0.2237
      5  N         13.4940  -35.6870  -24.7560 N.3   390  AZS390     -0.1181
      6  CB        14.5930  -33.8080  -25.8970 C.3   390  AZS390      0.1754
      7  OG        15.0720  -34.6560  -26.9560 O.3   390  AZS390     -0.3263
      8  CH        15.2120  -33.9300  -28.1820 C.3   390  AZS390      0.2691
      9  CI        15.3790  -34.9370  -29.3200 C.3   390  AZS390      0.0696
     10  OH        16.3730  -33.0960  -28.1080 O.3   390  AZS390     -0.1899
@<TRIPOS>BOND
     1     9     8    1
     2     8    10    1
     3     8     7    1
     4     7     6    1
     5     6     4    1
     6     5     4    1
     7     4     2    1
     8     2     1   ar
     9     2     3   ar
