@<TRIPOS>MOLECULE
2z8j_AZS_B_1.pdb
 12 11 0 0 0
SMALL
GASTEIGER

@<TRIPOS>ATOM
      1  O         12.4200  -33.8800  -22.7540 O.co2 390  AZS390     -0.2440
      2  C         13.6520  -33.9390  -22.9580 C.2   390  AZS390      0.3844
      3  OXT       14.5300  -33.2890  -22.3570 O.co2 390  AZS390     -0.2440
      4  CA        14.1250  -34.8980  -24.0580 C.3   390  AZS390      0.2237
      5  N         13.1010  -35.9350  -24.2490 N.3   390  AZS390     -0.1181
      6  CB        14.3240  -34.1100  -25.3560 C.3   390  AZS390      0.1754
      7  OG        14.8470  -34.9440  -26.4010 O.3   390  AZS390     -0.3252
      8  CH        14.9050  -34.2110  -27.6260 C.3   390  AZS390      0.2883
      9  CI        15.0180  -35.1810  -28.7990 C.3   390  AZS390      0.1750
     10  NJ        16.3430  -35.8380  -28.7470 N.3   390  AZS390     -0.1071
     11  NK        17.5490  -36.5770  -28.8340 N.3   390  AZS390     -0.0203
     12  OH        16.0490  -33.3490  -27.6050 O.3   390  AZS390     -0.1882
@<TRIPOS>BOND
     1    11    10    1
     2     9    10    1
     3     9     8    1
     4     8    12    1
     5     8     7    1
     6     7     6    1
     7     6     4    1
     8     5     4    1
     9     4     2    1
    10     2     1   ar
    11     2     3   ar
