@<TRIPOS>MOLECULE
2z8k_AVN_B_1.pdb
 10 10 0 0 0
SMALL
GASTEIGER

@<TRIPOS>ATOM
      1  C1        13.9750  -34.0910  -23.2400 C.2   390  AVN390      0.3844
      2  O1        14.8630  -33.3190  -22.6140 O.co2 390  AVN390     -0.2440
      3  O2        12.7900  -33.8440  -23.1630 O.co2 390  AVN390     -0.2440
      4  C2        14.5040  -34.9350  -24.3820 C.3   390  AVN390      0.2233
      5  N1        13.5680  -36.0330  -24.6650 N.3   390  AVN390     -0.1181
      6  C3        14.7710  -34.1940  -25.6740 C.3   390  AVN390      0.1692
      7  O3        15.4840  -34.8210  -26.6440 O.3   390  AVN390     -0.2667
      8  N2        15.5580  -33.9470  -27.8240 N.4   390  AVN390     -0.0836
      9  C4        14.5000  -33.0200  -27.5520 C.3   390  AVN390      0.1241
     10  C5        13.9360  -33.2140  -26.0970 C.3   390  AVN390      0.0553
@<TRIPOS>BOND
     1     8     9    1
     2     8     7    1
     3     9    10    1
     4     7     6    1
     5    10     6    1
     6     6     4    1
     7     5     4    1
     8     4     1    1
     9     1     3   ar
    10     1     2   ar
