@<TRIPOS>MOLECULE
2z8l_FUC_A_1.pdb
 10 10 0 0 0
SMALL
GASTEIGER

@<TRIPOS>ATOM
      1  C1        10.4660   22.2920   19.0610 C.3   604  FUC604      0.1776
      2  C2        10.1530   23.6490   18.4170 C.3   604  FUC604      0.2141
      3  C3         9.0300   24.3580   19.1530 C.3   604  FUC604      0.2172
      4  C4         9.3290   24.3990   20.6450 C.3   604  FUC604      0.2116
      5  C5         9.6670   22.9970   21.1640 C.3   604  FUC604      0.1483
      6  C6         9.9770   22.9240   22.6480 C.3   604  FUC604      0.0349
      7  O2         9.8140   23.5170   17.0490 O.3   604  FUC604     -0.2176
      8  O3         8.8470   25.6600   18.5910 O.3   604  FUC604     -0.2175
      9  O4        10.4560   25.2260   20.7850 O.3   604  FUC604     -0.2177
     10  O5        10.7430   22.4490   20.4340 O.3   604  FUC604     -0.3508
@<TRIPOS>BOND
     1     7     2    1
     2     2     1    1
     3     2     3    1
     4     8     3    1
     5     1    10    1
     6     3     4    1
     7    10     5    1
     8     4     9    1
     9     4     5    1
    10     5     6    1
