@<TRIPOS>MOLECULE
2z8l_SIA_A_1.pdb
 20 20 0 0 0
SMALL
GASTEIGER

@<TRIPOS>ATOM
      1  C1         2.6020   20.6970   24.1770 C.2   601  SIA601      0.3914
      2  C2         3.7680   19.8250   24.6550 C.3   601  SIA601      0.2203
      3  C3         3.7600   19.6380   26.1730 C.3   601  SIA601      0.0760
      4  C4         2.6140   18.7330   26.6130 C.3   601  SIA601      0.1773
      5  C5         2.6160   17.3890   25.8630 C.3   601  SIA601      0.1552
      6  C6         2.6360   17.6960   24.3600 C.3   601  SIA601      0.1710
      7  C7         2.6980   16.4900   23.4300 C.3   601  SIA601      0.2134
      8  C8         2.9490   16.9250   21.9780 C.3   601  SIA601      0.2173
      9  C9         2.7350   15.8500   20.9400 C.3   601  SIA601      0.2175
     10  C10        1.3550   15.4260   26.6510 C.2   601  SIA601      0.2420
     11  C11       -0.0090   14.8560   26.9390 C.3   601  SIA601      0.0964
     12  N5         1.3830   16.6750   26.2120 N.am  601  SIA601     -0.2020
     13  O1A        2.1360   20.3880   23.0580 O.co2 601  SIA601     -0.2430
     14  O1B        2.1860   21.6800   24.8420 O.co2 601  SIA601     -0.2430
     15  O4         2.6540   18.5510   28.0670 O.3   601  SIA601     -0.2211
     16  O6         3.7870   18.5090   24.0950 O.3   601  SIA601     -0.3429
     17  O7         3.7970   15.6540   23.7940 O.3   601  SIA601     -0.2176
     18  O8         2.0760   18.0470   21.7490 O.3   601  SIA601     -0.2175
     19  O9         3.0740   16.2680   19.6110 O.3   601  SIA601     -0.2175
     20  O10        2.4020   14.7930   26.7690 O.2   601  SIA601     -0.2733
@<TRIPOS>BOND
     1    19     9    1
     2     9     8    1
     3    18     8    1
     4     8     7    1
     5    13     1   ar
     6     7    17    1
     7     7     6    1
     8    16     6    1
     9    16     2    1
    10     1     2    1
    11     1    14   ar
    12     6     5    1
    13     2     3    1
    14     5    12    1
    15     5     4    1
    16     3     4    1
    17    12    10   am
    18     4    15    1
    19    10    20    2
    20    10    11    1
