@<TRIPOS>MOLECULE
2z8l_GAL_A_1.pdb
 11 11 0 0 0
SMALL
GASTEIGER

@<TRIPOS>ATOM
      1  C1         6.8490   20.3440   21.0860 C.3   602  GAL602      0.1777
      2  C2         6.7220   20.2360   22.5960 C.3   602  GAL602      0.2141
      3  C3         5.2880   20.6250   22.9440 C.3   602  GAL602      0.2173
      4  C4         4.9940   22.0350   22.4220 C.3   602  GAL602      0.2142
      5  C5         5.2560   22.1340   20.9150 C.3   602  GAL602      0.1810
      6  C6         5.0340   23.5260   20.3660 C.3   602  GAL602      0.2141
      7  O2         6.9660   18.8730   22.9420 O.3   602  GAL602     -0.2176
      8  O3         5.0070   20.5050   24.3460 O.3   602  GAL602     -0.2175
      9  O4         5.8320   22.9390   23.1020 O.3   602  GAL602     -0.2176
     10  O5         6.6000   21.6850   20.6430 O.3   602  GAL602     -0.3481
     11  O6         5.3560   23.6560   18.9900 O.3   602  GAL602     -0.2176
@<TRIPOS>BOND
     1    11     6    1
     2     6     5    1
     3    10     5    1
     4    10     1    1
     5     5     4    1
     6     1     2    1
     7     4     3    1
     8     4     9    1
     9     2     7    1
    10     2     3    1
    11     3     8    1
