@<TRIPOS>MOLECULE
2z8s_ADA_A_1.pdb
 13 13 0 0 0
SMALL
GASTEIGER

@<TRIPOS>ATOM
      1  C1        18.5370   -2.8090   17.9310 C.3   630  ADA630      0.3028
      2  C2        19.7830   -1.9120   18.0460 C.3   630  ADA630      0.2435
      3  C3        19.4540   -0.4980   17.5170 C.3   630  ADA630      0.2204
      4  C4        19.0690   -0.6020   16.0440 C.3   630  ADA630      0.2229
      5  C5        17.7430   -1.3960   16.0190 C.3   630  ADA630      0.2530
      6  C6        17.2170   -1.5490   14.5830 C.2   630  ADA630      0.3941
      7  O1        17.5470   -2.4980   18.9050 O.3   630  ADA630     -0.1869
      8  O2        20.2750   -1.8830   19.3940 O.3   630  ADA630     -0.2148
      9  O3        20.5560    0.4080   17.6630 O.3   630  ADA630     -0.2174
     10  O4        20.1510   -1.2620   15.3440 O.3   630  ADA630     -0.2171
     11  O5        17.8840   -2.7180   16.6180 O.3   630  ADA630     -0.3149
     12  O6B       16.9370   -0.5260   13.9310 O.co2 630  ADA630     -0.2429
     13  O6A       17.0980   -2.6980   14.1310 O.co2 630  ADA630     -0.2429
@<TRIPOS>BOND
     1    12     6   ar
     2    13     6   ar
     3     6     5    1
     4    10     4    1
     5     5     4    1
     6     5    11    1
     7     4     3    1
     8    11     1    1
     9     3     9    1
    10     3     2    1
    11     1     2    1
    12     1     7    1
    13     2     8    1
