@<TRIPOS>MOLECULE
2z92_ENE_A_1.pdb
 30 34 0 0 0
SMALL
GASTEIGER

@<TRIPOS>ATOM
      1  OAB      -17.9460    7.3040  -39.1180 O.3     1  ENE1       -0.2156
      2  CAT      -17.3270    7.7870  -37.9190 C.3     1  ENE1        0.2032
      3  CAG      -18.3570    8.5560  -37.1400 C.2     1  ENE1        0.0042
      4  CAF      -17.9860    9.4420  -36.0900 C.2     1  ENE1       -0.0255
      5  CAM      -16.6740    9.6250  -35.7420 C.3     1  ENE1        0.0582
      6  CAY      -16.3370    8.8150  -34.4810 C.3     1  ENE1        0.1507
      7  OAR      -17.4650    8.9890  -33.6090 O.3     1  ENE1       -0.3526
      8  CAZ      -17.0170    8.6860  -32.2820 C.3     1  ENE1        0.1489
      9  CAN      -17.5770    9.6660  -31.2470 C.3     1  ENE1        0.0646
     10  CBB      -16.9630    9.3530  -29.8800 C.3     1  ENE1        0.1479
     11  OAS      -17.5850   10.1810  -28.8870 O.3     1  ENE1       -0.3479
     12  CBA      -17.0770    9.9820  -27.5580 C.3     1  ENE1        0.1796
     13  CAL      -17.8680   11.0270  -26.7660 C.2     1  ENE1        0.0067
     14  CAE      -17.7750   11.0030  -25.3860 C.2     1  ENE1        0.0012
     15  CAD      -17.2360   10.0750  -24.4980 C.2     1  ENE1        0.0398
     16  CAJ      -16.6270    8.8440  -24.7290 C.2     1  ENE1        0.1723
     17  OAO      -16.3660    8.2830  -26.0180 O.2     1  ENE1       -0.4705
     18  CBC      -17.2910    8.5420  -27.0920 C.3     1  ENE1        0.2296
     19  CAW      -16.7830    7.5700  -28.1370 C.3     1  ENE1        0.2237
     20  OAC      -17.2260    6.2380  -27.8100 O.3     1  ENE1       -0.2164
     21  CBD      -17.2530    7.8970  -29.5600 C.3     1  ENE1        0.1766
     22  OAQ      -16.5620    7.0610  -30.4960 O.3     1  ENE1       -0.3466
     23  CAV      -17.1650    7.2620  -31.7820 C.3     1  ENE1        0.1641
     24  CAI      -16.7820    6.2550  -32.6900 C.2     1  ENE1        0.0032
     25  CAH      -16.4110    6.2910  -33.9940 C.2     1  ENE1        0.0032
     26  CAU      -16.3950    7.3760  -34.9160 C.3     1  ENE1        0.1644
     27  OAP      -15.8310    7.0200  -36.1810 O.3     1  ENE1       -0.3462
     28  CAX      -16.8240    6.5700  -37.1090 C.3     1  ENE1        0.1828
     29  CAK      -16.1210    5.6090  -38.0610 C.3     1  ENE1        0.2144
     30  OAA      -14.9730    6.2590  -38.6200 O.3     1  ENE1       -0.2176
@<TRIPOS>BOND
     1     1     2    1
     2    30    29    1
     3    29    28    1
     4     2     3    1
     5     2    28    1
     6     3     4    2
     7    28    27    1
     8    27    26    1
     9     4     5    1
    10     5     6    1
    11    26     6    1
    12    26    25    1
    13     6     7    1
    14    25    24    2
    15     7     8    1
    16    24    23    1
    17     8    23    1
    18     8     9    1
    19    23    22    1
    20     9    10    1
    21    22    21    1
    22    10    21    1
    23    10    11    1
    24    21    19    1
    25    11    12    1
    26    19    20    1
    27    19    18    1
    28    12    18    1
    29    12    13    1
    30    18    17    1
    31    13    14    2
    32    17    16    1
    33    14    15    1
    34    16    15    2
