@<TRIPOS>MOLECULE
2z93_END_C_1.pdb
 24 27 0 0 0
SMALL
GASTEIGER

@<TRIPOS>ATOM
      1  OAB       50.4310   -8.7330   71.6920 O.3     1  END1       -0.2156
      2  CAP       51.4700   -8.0680   70.9690 C.3     1  END1        0.2033
      3  CAF       52.4350   -9.0810   70.3340 C.2     1  END1        0.0066
      4  CAG       53.0390   -9.1640   69.0930 C.2     1  END1        0.0033
      5  CAQ       52.9460   -8.3730   67.9410 C.3     1  END1        0.1641
      6  OAM       52.9810   -9.1100   66.7120 O.3     1  END1       -0.3467
      7  CAX       53.3810   -8.1980   65.6770 C.3     1  END1        0.1753
      8  CAR       53.6730   -8.9390   64.3710 C.3     1  END1        0.2106
      9  OAC       54.8510   -9.7280   64.5580 O.3     1  END1       -0.2177
     10  CAW       53.9170   -8.0040   63.1830 C.3     1  END1        0.1756
     11  OAL       53.9190   -8.9640   62.1140 O.3     1  END1       -0.3463
     12  CAH       53.8410   -8.5700   60.7360 C.3     1  END1        0.1681
     13  CAD       53.5340   -7.3090   60.2210 C.2     1  END1        0.0012
     14  CAE       53.2490   -6.1160   60.8490 C.2     1  END1       -0.0256
     15  CAJ       53.1940   -5.8070   62.2120 C.3     1  END1        0.0579
     16  CAU       52.8040   -6.9660   63.1260 C.3     1  END1        0.1491
     17  OAO       52.6950   -6.2910   64.3890 O.3     1  END1       -0.3532
     18  CAV       52.3080   -7.1440   65.4740 C.3     1  END1        0.1474
     19  CAK       52.2200   -6.3060   66.7520 C.3     1  END1        0.0646
     20  CAT       51.9500   -7.2290   67.9410 C.3     1  END1        0.1490
     21  OAN       51.9460   -6.4870   69.1660 O.3     1  END1       -0.3502
     22  CAS       50.9100   -7.0340   69.9920 C.3     1  END1        0.1824
     23  CAI       50.2600   -5.9220   70.8200 C.3     1  END1        0.2144
     24  OAA       51.2380   -5.2830   71.6440 O.3     1  END1       -0.2176
@<TRIPOS>BOND
     1    13    12    1
     2    13    14    2
     3    12    11    1
     4    14    15    1
     5    11    10    1
     6    15    16    1
     7    16    10    1
     8    16    17    1
     9    10     8    1
    10     8     9    1
    11     8     7    1
    12    17    18    1
    13    18     7    1
    14    18    19    1
    15     7     6    1
    16     6     5    1
    17    19    20    1
    18     5    20    1
    19     5     4    1
    20    20    21    1
    21     4     3    2
    22    21    22    1
    23    22    23    1
    24    22     2    1
    25     3     2    1
    26    23    24    1
    27     2     1    1
