@<TRIPOS>MOLECULE
2z95_NDP_A_1.pdb
 48 52 0 0 0
SMALL
GASTEIGER

@<TRIPOS>ATOM
      1  PA        31.8400    4.1260   35.9150 P.3   1001  NDP1001     0.2189
      2  O1A       31.1490    5.3210   36.4840 O.3   1001  NDP1001    -0.4371
      3  O2A       31.5850    3.7820   34.4880 O.2   1001  NDP1001    -0.5170
      4  O5B       31.4720    2.8330   36.7690 O.3   1001  NDP1001    -0.3112
      5  C5B       30.2270    2.6940   37.4410 C.3   1001  NDP1001     0.1813
      6  C4B       29.7230    1.2820   37.2820 C.3   1001  NDP1001     0.1820
      7  O4B       29.1520    0.8470   38.5500 O.3   1001  NDP1001    -0.3136
      8  C3B       28.6000    1.1230   36.2490 C.3   1001  NDP1001     0.2157
      9  O3B       28.9180    0.0220   35.3980 O.3   1001  NDP1001    -0.2175
     10  C2B       27.3470    0.8780   37.0940 C.3   1001  NDP1001     0.2314
     11  O2B       26.2780    0.1540   36.4550 O.3   1001  NDP1001    -0.2630
     12  C1B       27.9280    0.1640   38.3250 C.3   1001  NDP1001     0.3158
     13  N9A       27.1300    0.2680   39.5780 N.pl3 1001  NDP1001    -0.1439
     14  C8A       26.5400    1.3920   40.1350 C.3   1001  NDP1001     0.3377
     15  N7A       25.8960    1.1590   41.2620 N.2   1001  NDP1001    -0.2095
     16  C5A       26.0660   -0.2050   41.4700 C.2   1001  NDP1001     0.2526
     17  C6A       25.6270   -1.0970   42.5020 C.2   1001  NDP1001     0.4393
     18  N6A       24.8980   -0.7110   43.5440 N.pl3 1001  NDP1001     0.2180
     19  N1A       25.9700   -2.4230   42.4160 N.2   1001  NDP1001     0.0021
     20  C2A       26.7130   -2.8400   41.3580 C.3   1001  NDP1001     0.5254
     21  N3A       27.1830   -2.0990   40.3300 N.2   1001  NDP1001    -0.0055
     22  C4A       26.8240   -0.7760   40.4440 C.2   1001  NDP1001     0.3518
     23  O3        33.4630    4.3020   36.1280 O.3   1001  NDP1001    -0.2703
     24  PN        34.8570    3.8980   35.3390 P.3   1001  NDP1001     0.2189
     25  O1N       35.1410    5.1360   34.5120 O.2   1001  NDP1001    -0.5170
     26  O2N       34.4510    2.6520   34.5690 O.3   1001  NDP1001    -0.4371
     27  O5D       35.8080    3.6710   36.5200 O.3   1001  NDP1001    -0.3112
     28  C5D       35.6640    2.5340   37.3860 C.3   1001  NDP1001     0.1813
     29  C4D       35.9930    2.8970   38.8200 C.3   1001  NDP1001     0.1799
     30  O4D       37.2170    3.6910   38.8570 O.3   1001  NDP1001    -0.3327
     31  C3D       34.9200    3.7330   39.5340 C.3   1001  NDP1001     0.2158
     32  O3D       34.6770    3.1770   40.8300 O.3   1001  NDP1001    -0.2175
     33  C2D       35.5050    5.1460   39.5990 C.3   1001  NDP1001     0.2309
     34  O2D       35.0210    5.8530   40.7410 O.3   1001  NDP1001    -0.2158
     35  C1D       37.0090    4.8720   39.6230 C.3   1001  NDP1001     0.2263
     36  N1N       37.9280    5.8830   39.0460 N.pl3 1001  NDP1001    -0.2787
     37  C2N       37.8020    6.3740   37.7190 C.3   1001  NDP1001     0.1244
     38  C3N       38.6360    7.3060   37.1680 C.2   1001  NDP1001     0.0544
     39  C7N       38.4790    7.6950   35.8490 C.2   1001  NDP1001     0.2818
     40  O7N       39.2540    8.4660   35.2650 O.2   1001  NDP1001    -0.2670
     41  N7N       37.4250    7.1820   35.1820 N.am  1001  NDP1001    -0.0839
     42  C4N       39.7850    7.8960   38.0170 C.2   1001  NDP1001     0.0033
     43  C5N       39.8620    7.2910   39.4410 C.2   1001  NDP1001     0.0157
     44  C6N       38.9670    6.3490   39.8860 C.2   1001  NDP1001     0.0633
     45  P2B       24.9650    0.7840   35.9670 P.3   1001  NDP1001     0.5328
     46  O1X       24.0260   -0.4130   36.1120 O.3   1001  NDP1001    -0.1145
     47  O2X       24.6380    1.9600   36.8890 O.3   1001  NDP1001    -0.1145
     48  O3X       25.3030    1.1650   34.5230 O.2   1001  NDP1001    -0.2224
@<TRIPOS>BOND
     1     3     1    2
     2    25    24    2
     3    48    45    2
     4    26    24    1
     5    41    39   am
     6    40    39    2
     7    24    23    1
     8    24    27    1
     9     9     8    1
    10    39    38    1
    11     1    23    1
    12     1     2    1
    13     1     4    1
    14    45    46    1
    15    45    11    1
    16    45    47    1
    17     8    10    1
    18     8     6    1
    19    11    10    1
    20    27    28    1
    21     4     5    1
    22    10    12    1
    23    38    37    1
    24    38    42    2
    25     6     5    1
    26     6     7    1
    27    28    29    1
    28    37    36    1
    29    42    43    1
    30    12     7    1
    31    12    13    1
    32    29    30    1
    33    29    31    1
    34    30    35    1
    35    36    35    1
    36    36    44    1
    37    43    44    2
    38    31    33    1
    39    31    32    1
    40    13    14    1
    41    13    22    1
    42    33    35    1
    43    33    34    1
    44    14    15    1
    45    21    22    2
    46    21    20    1
    47    22    16    1
    48    15    16    2
    49    20    19    1
    50    16    17    1
    51    19    17    2
    52    17    18    1
