@<TRIPOS>MOLECULE
2z95_GDP_D_1.pdb
 28 30 0 0 0
SMALL
GASTEIGER

@<TRIPOS>ATOM
      1  PB         1.8910   -4.7570   74.3390 P.3   1002  GDP1002     0.5373
      2  O1B        3.1360   -4.0540   73.8170 O.2   1002  GDP1002    -0.2221
      3  O2B        0.5580   -4.0690   74.0880 O.3   1002  GDP1002    -0.1143
      4  O3B        1.8560   -6.2540   73.9840 O.3   1002  GDP1002    -0.1143
      5  O3A        2.0700   -4.6860   75.9630 O.3   1002  GDP1002    -0.2261
      6  PA         1.9480   -3.5420   77.1150 P.3   1002  GDP1002     0.2231
      7  O1A        2.0690   -4.2390   78.4230 O.3   1002  GDP1002    -0.4370
      8  O2A        2.9480   -2.4710   76.8280 O.2   1002  GDP1002    -0.5169
      9  O5'        0.4980   -2.8900   77.0050 O.3   1002  GDP1002    -0.3111
     10  C5'       -0.6770   -3.6890   77.1230 C.3   1002  GDP1002     0.1813
     11  C4'       -1.9170   -2.8550   76.8910 C.3   1002  GDP1002     0.1799
     12  O4'       -1.9810   -1.8190   77.9180 O.3   1002  GDP1002    -0.3326
     13  C3'       -1.9630   -2.1200   75.5390 C.3   1002  GDP1002     0.2158
     14  O3'       -3.1990   -2.3910   74.8710 O.3   1002  GDP1002    -0.2175
     15  C2'       -1.7940   -0.6440   75.9190 C.3   1002  GDP1002     0.2310
     16  O2'       -2.4410    0.2540   75.0200 O.3   1002  GDP1002    -0.2158
     17  C1'       -2.3810   -0.6010   77.3240 C.3   1002  GDP1002     0.2293
     18  N9        -1.9180    0.4960   78.2060 N.pl3 1002  GDP1002    -0.2354
     19  C8        -2.7340    1.3080   78.9660 C.3   1002  GDP1002     0.2246
     20  N7        -2.0840    2.2020   79.6630 N.2   1002  GDP1002    -0.2322
     21  C5        -0.7530    1.9840   79.3570 C.2   1002  GDP1002     0.2182
     22  C6         0.4350    2.6520   79.8140 C.1   1002  GDP1002     0.2372
     23  O6         0.5200    3.6000   80.6080 O.2   1002  GDP1002    -0.2069
     24  N1         1.6170    2.1060   79.2460 N.2   1002  GDP1002    -0.2485
     25  C2         1.6490    1.0440   78.3460 C.1   1002  GDP1002     0.2531
     26  N2         2.8590    0.6630   77.9150 N.pl3 1002  GDP1002    -0.0226
     27  N3         0.5440    0.4120   77.9120 N.2   1002  GDP1002    -0.3074
     28  C4        -0.6170    0.9280   78.4530 C.2   1002  GDP1002     0.2300
@<TRIPOS>BOND
     1     2     1    2
     2     4     1    1
     3     3     1    1
     4     1     5    1
     5    14    13    1
     6    16    15    1
     7    13    15    1
     8    13    11    1
     9    15    17    1
    10     5     6    1
    11     8     6    2
    12    11    10    1
    13    11    12    1
    14     9     6    1
    15     9    10    1
    16     6     7    1
    17    17    12    1
    18    17    18    1
    19    27    25    2
    20    27    28    2
    21    26    25    1
    22    18    28    1
    23    18    19    1
    24    25    24    2
    25    28    21    1
    26    19    20    1
    27    24    22    2
    28    21    20    2
    29    21    22    1
    30    22    23    2
