@<TRIPOS>MOLECULE
2z97_7HE_A_1.pdb
 39 46 0 0 0
SMALL
GASTEIGER

@<TRIPOS>ATOM
      1 FE        -19.4150  -12.7580    9.1760 Fe    417  7HE417      0.0000
      2  CHA      -20.2890  -11.0540    6.3150 C.2   417  7HE417      0.0000
      3  CHB      -19.7030   -9.7610   11.0080 C.2   417  7HE417      0.0000
      4  CHC      -18.4870  -14.5500   12.0170 C.2   417  7HE417      0.0000
      5  CHD      -18.5900  -15.5630    7.2040 C.2   417  7HE417      0.0000
      6  NA       -19.8950  -10.7870    8.7410 N.2   417  7HE417      0.0000
      7  C1A      -20.2180  -10.2600    7.5390 C.2   417  7HE417      0.0000
      8  C2A      -20.4850   -8.9000    7.5400 C.2   417  7HE417      0.0000
      9  C3A      -20.3220   -8.5150    8.9470 C.2   417  7HE417      0.0000
     10  C4A      -19.9610   -9.7040    9.5660 C.2   417  7HE417      0.0000
     11  CMA      -20.4660   -7.1390    9.5570 C.3   417  7HE417      0.0000
     12  CAA      -20.8740   -8.0250    6.3690 C.3   417  7HE417      0.0000
     13  NB       -18.9990  -12.2330   11.0580 N.ar  417  7HE417      0.0000
     14  C1B      -19.3970  -10.9940   11.7420 C.ar  417  7HE417      0.0000
     15  C2B      -19.3000  -11.0300   13.1360 C.ar  417  7HE417      0.0000
     16  C3B      -18.9560  -12.4220   13.4650 C.ar  417  7HE417      0.0000
     17  C4B      -18.8800  -13.1580   12.1650 C.ar  417  7HE417      0.0000
     18  CMB      -19.5650   -9.9140   14.1300 C.3   417  7HE417      0.0000
     19  CAB      -18.7620  -13.0620   14.8060 C.2   417  7HE417      0.0000
     20  CBB      -18.9520  -12.4920   15.9920 C.2   417  7HE417      0.0000
     21  NC       -18.6610  -14.6780    9.5420 N.2   417  7HE417      0.0000
     22  C1C      -18.3640  -15.2420   10.7420 C.2   417  7HE417      0.0000
     23  C2C      -17.8930  -16.5360   10.7010 C.2   417  7HE417      0.0000
     24  C3C      -17.8860  -16.8120    9.2680 C.2   417  7HE417      0.0000
     25  C4C      -18.3470  -15.6640    8.6590 C.2   417  7HE417      0.0000
     26  CMC      -17.4740  -17.3990   11.8580 C.3   417  7HE417      0.0000
     27  CAC      -17.4790  -18.0950    8.6310 C.2   417  7HE417      0.0000
     28  CBC      -16.2970  -18.6500    8.8350 C.2   417  7HE417      0.0000
     29  ND       -19.4520  -13.2340    7.1390 N.ar  417  7HE417      0.0000
     30  C1D      -19.1250  -14.3820    6.5080 C.ar  417  7HE417      0.0000
     31  C2D      -19.3170  -14.3930    5.1230 C.ar  417  7HE417      0.0000
     32  C3D      -19.8330  -13.0590    4.8050 C.ar  417  7HE417      0.0000
     33  C4D      -19.8650  -12.4270    6.1360 C.ar  417  7HE417      0.0000
     34  CMD      -19.0460  -15.5440    4.1810 C.3   417  7HE417      0.0000
     35  CAD      -20.1750  -12.4680    3.4590 C.3   417  7HE417      0.0000
     36  CBD      -21.6710  -12.2410    3.2810 C.3   417  7HE417      0.0000
     37  CGD      -21.8330  -11.3930    2.0450 C.2   417  7HE417      0.0000
     38  O1D      -22.7820  -11.6710    1.2740 O.co2 417  7HE417      0.0000
     39  O2D      -21.0190  -10.4580    1.8170 O.co2 417  7HE417      0.0000
@<TRIPOS>BOND
     1    38    37   ar
     2    39    37   ar
     3    37    36    1
     4    36    35    1
     5    35    32    1
     6    34    31    1
     7    32    31   ar
     8    32    33   ar
     9    31    30   ar
    10    33     2    2
    11    33    29   ar
    12     2     7    1
    13    12     8    1
    14    30    29   ar
    15    30     5    2
    16    29     1    1
    17     5    25    1
    18     7     8    1
    19     7     6    2
    20     8     9    2
    21    27    28    2
    22    27    24    1
    23    25    24    1
    24    25    21    2
    25     6     1    1
    26     6    10    1
    27     9    11    1
    28     9    10    1
    29     1    21    1
    30     1    13    1
    31    24    23    2
    32    21    22    1
    33    10     3    2
    34    23    22    1
    35    23    26    1
    36    22     4    2
    37     3    14    1
    38    13    14   ar
    39    13    17   ar
    40    14    15   ar
    41     4    17    1
    42    17    16   ar
    43    15    16   ar
    44    15    18    1
    45    16    19    1
    46    19    20    2
