@<TRIPOS>MOLECULE
2z97_CAM_A_1.pdb
 11 12 0 0 0
SMALL
GASTEIGER

@<TRIPOS>ATOM
      1  C1       -14.3480   -9.7360    7.6480 C.3   422  CAM422      0.0282
      2  C2       -14.3850   -9.7140    6.1370 C.3   422  CAM422      0.1519
      3  O        -13.2750   -9.4700    5.2920 O.3   422  CAM422     -0.2232
      4  C3       -15.7960  -10.0190    5.6890 C.3   422  CAM422      0.0329
      5  C4       -16.4230  -10.3690    7.0450 C.3   422  CAM422      0.0026
      6  C5       -15.7230  -11.6660    7.4640 C.3   422  CAM422      0.0002
      7  C6       -14.3520  -11.2180    7.9850 C.3   422  CAM422      0.0024
      8  C7       -15.7730   -9.3270    7.9510 C.3   422  CAM422      0.0024
      9  C8       -16.0410   -7.9130    7.4530 C.3   422  CAM422      0.0001
     10  C9       -16.1460   -9.4860    9.4260 C.3   422  CAM422      0.0001
     11  C10      -13.2580   -8.8510    8.2510 C.3   422  CAM422      0.0025
@<TRIPOS>BOND
     1     3     2    1
     2     4     2    1
     3     4     5    1
     4     2     1    1
     5     5     6    1
     6     5     8    1
     7     9     8    1
     8     6     7    1
     9     1     8    1
    10     1     7    1
    11     1    11    1
    12     8    10    1
