@<TRIPOS>MOLECULE
2z98_FMN_A_1.pdb
 31 33 0 0 0
SMALL
GASTEIGER

@<TRIPOS>ATOM
      1  N1        25.2510   25.0100   12.0070 N.2   201  FMN201     -0.2890
      2  C2        24.6490   24.0410   12.5790 C.1   201  FMN201      0.3669
      3  O2        23.6640   23.5010   12.2300 O.2   201  FMN201     -0.1744
      4  N3        25.2520   23.4920   13.7810 N.2   201  FMN201     -0.2300
      5  C4        26.3830   24.0130   14.2470 C.1   201  FMN201      0.2513
      6  O4        26.8550   23.5030   15.3850 O.2   201  FMN201     -0.2057
      7  C4A       27.1430   24.9630   13.6280 C.2   201  FMN201      0.2700
      8  N5        28.2470   25.4870   14.0280 N.2   201  FMN201     -0.3878
      9  C5A       28.8760   26.5120   13.4690 C.2   201  FMN201      0.1320
     10  C6        30.0110   27.1270   13.9050 C.2   201  FMN201      0.0250
     11  C7        30.5770   28.2990   13.4780 C.2   201  FMN201     -0.0238
     12  C7M       31.7800   29.0120   14.0680 C.3   201  FMN201      0.0308
     13  C8        29.8540   28.9870   12.3690 C.2   201  FMN201     -0.0280
     14  C8M       30.3760   30.2080   11.8280 C.3   201  FMN201      0.0304
     15  C9        28.7850   28.3670   11.8770 C.2   201  FMN201     -0.0041
     16  C9A       28.1770   27.2720   12.3560 C.3   201  FMN201      0.1497
     17  N10       27.0460   26.6790   11.9330 N.pl3 201  FMN201     -0.2691
     18  C10       26.3960   25.5880   12.3930 C.2   201  FMN201      0.2416
     19  C1'       26.3160   27.4250   10.8020 C.3   201  FMN201      0.1294
     20  C2'       25.4040   28.5320   11.4360 C.3   201  FMN201      0.2044
     21  O2'       24.4790   28.0620   12.3960 O.3   201  FMN201     -0.2185
     22  C3'       24.6560   29.1660   10.2510 C.3   201  FMN201      0.2164
     23  O3'       25.6030   29.7670    9.4000 O.3   201  FMN201     -0.2175
     24  C4'       23.7520   30.2350   10.8970 C.3   201  FMN201      0.2147
     25  O4'       23.0620   30.9240    9.7660 O.3   201  FMN201     -0.2176
     26  C5'       24.4800   31.2380   11.6810 C.3   201  FMN201      0.1892
     27  O5'       23.6330   32.4570   12.0090 O.3   201  FMN201     -0.2674
     28  P         24.3230   33.7600   11.6770 P.3   201  FMN201      0.5327
     29  O1P       23.2400   34.8040   12.1680 O.3   201  FMN201     -0.1145
     30  O2P       25.6650   33.9800   12.3930 O.3   201  FMN201     -0.1145
     31  O3P       24.4720   33.9160   10.1530 O.2   201  FMN201     -0.2224
@<TRIPOS>BOND
     1    23    22    1
     2    25    24    1
     3    31    28    2
     4    22    24    1
     5    22    20    1
     6    19    20    1
     7    19    17    1
     8    24    26    1
     9    20    21    1
    10    28    27    1
    11    28    29    1
    12    28    30    1
    13    26    27    1
    14    14    13    1
    15    15    16    1
    16    15    13    2
    17    17    16    1
    18    17    18    1
    19     1    18    2
    20     1     2    2
    21     3     2    2
    22    16     9    1
    23    13    11    1
    24    18     7    1
    25     2     4    2
    26     9    10    1
    27     9     8    2
    28    11    10    2
    29    11    12    1
    30     7     8    2
    31     7     5    1
    32     4     5    2
    33     5     6    2
