@<TRIPOS>MOLECULE
2z9b_FMN_A_1.pdb
 31 33 0 0 0
SMALL
GASTEIGER

@<TRIPOS>ATOM
      1  N1        20.6770   20.4660   13.7120 N.2   201  FMN201     -0.2887
      2  C2        21.7140   21.0510   13.1100 C.1   201  FMN201      0.3669
      3  O2        22.1220   22.1360   13.4710 O.2   201  FMN201     -0.1744
      4  N3        22.1450   20.4850   11.9140 N.2   201  FMN201     -0.2300
      5  C4        21.8300   19.2130   11.5410 C.1   201  FMN201      0.2513
      6  O4        22.3280   18.8070   10.4460 O.2   201  FMN201     -0.2057
      7  C4A       20.8040   18.5640   12.2150 C.2   201  FMN201      0.2706
      8  N5        20.3450   17.2830   11.8910 N.2   201  FMN201     -0.3841
      9  C5A       19.1640   16.8200   12.3930 C.2   201  FMN201      0.1452
     10  C6        18.5760   15.6810   11.8720 C.2   201  FMN201      0.0252
     11  C7        17.3730   15.1830   12.3560 C.2   201  FMN201     -0.0375
     12  C7M       16.6930   14.0410   11.6500 C.3   201  FMN201      0.0268
     13  C8        16.7190   15.9010   13.3700 C.3   201  FMN201      0.0417
     14  C8M       15.3620   15.4370   13.8500 C.3   201  FMN201      0.0091
     15  C9        17.3340   17.0410   13.8980 C.2   201  FMN201     -0.0049
     16  C9A       18.5440   17.5370   13.4200 C.2   201  FMN201      0.0795
     17  N10       19.1520   18.6850   13.9230 N.pl3 201  FMN201     -0.2545
     18  C10       20.2490   19.2200   13.3300 C.2   201  FMN201      0.2449
     19  C1'       18.4430   19.5280   14.9680 C.3   201  FMN201      0.1336
     20  C2'       17.2800   20.3060   14.3510 C.3   201  FMN201      0.2048
     21  O2'       17.7740   21.2470   13.4470 O.3   201  FMN201     -0.2185
     22  C3'       16.5740   21.0590   15.4710 C.3   201  FMN201      0.2165
     23  O3'       15.9670   20.1050   16.3050 O.3   201  FMN201     -0.2175
     24  C4'       15.4840   22.0340   14.9590 C.3   201  FMN201      0.2147
     25  O4'       14.7930   22.5230   16.1030 O.3   201  FMN201     -0.2176
     26  C5'       14.5830   21.3510   13.9770 C.3   201  FMN201      0.1892
     27  O5'       13.3900   22.0900   13.7180 O.3   201  FMN201     -0.2674
     28  P         11.9930   21.4680   14.1650 P.3   201  FMN201      0.5327
     29  O1P       10.9630   22.4710   13.5880 O.3   201  FMN201     -0.1145
     30  O2P       11.6950   20.1560   13.4640 O.2   201  FMN201     -0.2224
     31  O3P       11.9400   21.4300   15.6960 O.3   201  FMN201     -0.1145
@<TRIPOS>BOND
     1     6     5    2
     2     5     4    2
     3     5     7    1
     4    12    11    1
     5    10    11    2
     6    10     9    1
     7     8     7    2
     8     8     9    2
     9     4     2    2
    10     7    18    1
    11    11    13    1
    12     9    16    1
    13     2     3    2
    14     2     1    2
    15    18     1    2
    16    18    17    1
    17    13    14    1
    18    13    15    1
    19    16    15    2
    20    16    17    1
    21    21    20    1
    22    30    28    2
    23    29    28    1
    24    27    26    1
    25    27    28    1
    26    17    19    1
    27    26    24    1
    28    28    31    1
    29    20    19    1
    30    20    22    1
    31    24    22    1
    32    24    25    1
    33    22    23    1
