@<TRIPOS>MOLECULE
2z9c_DTC_A_1.pdb
 25 28 0 0 0
SMALL
GASTEIGER

@<TRIPOS>ATOM
      1  O5        73.9690    6.8110   -9.9740 O.2   202  DTC202     -0.4211
      2  C10       73.0620    7.8310  -10.1760 C.ar  202  DTC202      0.1517
      3  C9        71.7070    7.5710  -10.3030 C.ar  202  DTC202      0.0735
      4  C8        71.2580    6.1670  -10.2280 C.ar  202  DTC202      0.2011
      5  O17       69.9520    5.8190  -10.3590 O.3   202  DTC202     -0.2866
      6  C7        72.2720    5.1330  -10.0210 C.ar  202  DTC202      0.0973
      7  C15       71.8720    3.6980   -9.9120 C.3   202  DTC202      0.0724
      8  C6        73.5850    5.4930   -9.8810 C.ar  202  DTC202      0.3451
      9  O16       74.4320    4.5880   -9.7040 O.2   202  DTC202     -0.2447
     10  C1        70.7920    8.6000  -10.5030 C.ar  202  DTC202      0.0062
     11  C2        71.2470    9.9200  -10.5560 C.ar  202  DTC202      0.0003
     12  C3        72.6120   10.1940  -10.4280 C.ar  202  DTC202      0.0031
     13  C4        73.5170    9.1450  -10.2360 C.ar  202  DTC202      0.0377
     14  C5        68.8880    2.4030  -13.7170 C.ar  202  DTC202      0.0062
     15  C20       70.1170    2.3040  -13.0550 C.ar  202  DTC202      0.0735
     16  C19       71.1270    1.4830  -13.5500 C.ar  202  DTC202      0.1517
     17  C18       70.9120    0.7600  -14.7270 C.ar  202  DTC202      0.0377
     18  C17       69.6820    0.8540  -15.3870 C.ar  202  DTC202      0.0031
     19  C16       68.6670    1.6730  -14.8900 C.ar  202  DTC202      0.0003
     20  O21       72.3400    1.3990  -12.8840 O.2   202  DTC202     -0.4211
     21  C12       72.5780    2.1220  -11.7210 C.ar  202  DTC202      0.3451
     22  O32       73.6910    2.0400  -11.1280 O.2   202  DTC202     -0.2447
     23  C13       71.6070    2.9600  -11.1980 C.ar  202  DTC202      0.0973
     24  C14       70.3820    3.0710  -11.8020 C.ar  202  DTC202      0.2011
     25  O38       69.4420    3.9000  -11.2610 O.3   202  DTC202     -0.2866
@<TRIPOS>BOND
     1    18    19   ar
     2    18    17   ar
     3    19    14   ar
     4    17    16   ar
     5    14    15   ar
     6    16    15   ar
     7    16    20   ar
     8    15    24   ar
     9    20    21   ar
    10    24    25    1
    11    24    23   ar
    12    21    23   ar
    13    21    22    2
    14    23     7    1
    15    11    10   ar
    16    11    12   ar
    17    10     3   ar
    18    12    13   ar
    19     5     4    1
    20     3     4   ar
    21     3     2   ar
    22    13     2   ar
    23     4     6   ar
    24     2     1   ar
    25     6     7    1
    26     6     8   ar
    27     1     8   ar
    28     8     9    2
