@<TRIPOS>MOLECULE
2z9c_FMN_A_1.pdb
 31 33 0 0 0
SMALL
GASTEIGER

@<TRIPOS>ATOM
      1  N1        71.1350    6.7560   -6.4610 N.2   201  FMN201     -0.2887
      2  C2        72.4820    6.4120   -6.4980 C.1   201  FMN201      0.3669
      3  O2        72.8420    5.2450   -6.3260 O.2   201  FMN201     -0.1744
      4  N3        73.4280    7.3830   -6.7550 N.2   201  FMN201     -0.2300
      5  C4        73.0480    8.6980   -6.9460 C.1   201  FMN201      0.2513
      6  O4        73.9140    9.5760   -6.8540 O.2   201  FMN201     -0.2057
      7  C4A       71.6900    9.0480   -6.8990 C.2   201  FMN201      0.2703
      8  N5        71.2930   10.3530   -7.1000 N.2   201  FMN201     -0.3882
      9  C5A       69.9510   10.6910   -7.0700 C.2   201  FMN201      0.1277
     10  C6        69.5850   12.0270   -7.2600 C.3   201  FMN201      0.0820
     11  C7        68.2500   12.4200   -7.2080 C.2   201  FMN201     -0.0408
     12  C7M       67.9130   13.9060   -7.2830 C.3   201  FMN201      0.0265
     13  C8        67.2630   11.4580   -6.9720 C.2   201  FMN201     -0.0280
     14  C8M       65.8970   11.9060   -6.5200 C.3   201  FMN201      0.0304
     15  C9        67.6220   10.1210   -6.7690 C.2   201  FMN201      0.0123
     16  C9A       68.9720    9.7210   -6.8030 C.2   201  FMN201      0.0793
     17  N10       69.3740    8.4000   -6.6060 N.pl3 201  FMN201     -0.2545
     18  C10       70.7270    8.0660   -6.6600 C.2   201  FMN201      0.2449
     19  C1'       68.4270    7.3530   -6.1080 C.3   201  FMN201      0.1336
     20  C2'       68.2440    7.5050   -4.6030 C.3   201  FMN201      0.2048
     21  O2'       69.4830    7.4030   -3.9090 O.3   201  FMN201     -0.2185
     22  C3'       67.2460    6.4440   -4.1260 C.3   201  FMN201      0.2165
     23  O3'       66.0170    6.7060   -4.7620 O.3   201  FMN201     -0.2175
     24  C4'       67.0900    6.4010   -2.5960 C.3   201  FMN201      0.2147
     25  O4'       66.0220    5.5640   -2.2020 O.3   201  FMN201     -0.2176
     26  C5'       66.8400    7.7860   -2.0370 C.3   201  FMN201      0.1892
     27  O5'       66.3780    7.7180   -0.7060 O.3   201  FMN201     -0.2674
     28  P         64.8940    8.2160   -0.3790 P.3   201  FMN201      0.5327
     29  O1P       64.7240    8.0370    1.1080 O.3   201  FMN201     -0.1145
     30  O2P       64.7200    9.6540   -0.8370 O.3   201  FMN201     -0.1145
     31  O3P       63.8840    7.3520   -1.0950 O.2   201  FMN201     -0.2224
@<TRIPOS>BOND
     1    12    11    1
     2    10    11    1
     3    10     9    1
     4    11    13    2
     5     8     9    2
     6     8     7    2
     7     9    16    1
     8    13    15    1
     9    13    14    1
    10     5     7    1
    11     5     6    2
    12     5     4    2
    13     7    18    1
    14    16    15    2
    15    16    17    1
    16     4     2    2
    17    18    17    1
    18    18     1    2
    19    17    19    1
    20     2     1    2
    21     2     3    2
    22    19    20    1
    23    23    22    1
    24    20    22    1
    25    20    21    1
    26    22    24    1
    27    24    25    1
    28    24    26    1
    29    26    27    1
    30    31    28    2
    31    30    28    1
    32    27    28    1
    33    28    29    1
