@<TRIPOS>MOLECULE
2z9d_FMN_A_1.pdb
 31 33 0 0 0
SMALL
GASTEIGER

@<TRIPOS>ATOM
      1  N1         8.3630   81.9870   28.7510 N.2   401  FMN401     -0.2890
      2  C2         9.1280   81.4540   29.7680 C.1   401  FMN401      0.3669
      3  O2        10.2730   81.8570   29.9500 O.2   401  FMN401     -0.1744
      4  N3         8.5970   80.4890   30.6040 N.2   401  FMN401     -0.2300
      5  C4         7.2890   80.0620   30.4570 C.1   401  FMN401      0.2513
      6  O4         6.9470   79.0350   31.0480 O.2   401  FMN401     -0.2057
      7  C4A        6.5160   80.5730   29.4160 C.2   401  FMN401      0.2700
      8  N5         5.1940   80.1820   29.2370 N.2   401  FMN401     -0.3878
      9  C5A        4.4570   80.7130   28.1620 C.2   401  FMN401      0.1320
     10  C6         3.1630   80.2670   27.9140 C.2   401  FMN401      0.0250
     11  C7         2.3920   80.7480   26.8490 C.2   401  FMN401     -0.0238
     12  C7M        1.0740   80.1190   26.5150 C.3   401  FMN401      0.0308
     13  C8         2.9490   81.6890   25.9980 C.2   401  FMN401     -0.0280
     14  C8M        2.3050   81.9660   24.6820 C.3   401  FMN401      0.0304
     15  C9         4.2420   82.1240   26.2310 C.2   401  FMN401     -0.0041
     16  C9A        5.0100   81.6590   27.3040 C.3   401  FMN401      0.1497
     17  N10        6.3280   82.1050   27.5330 N.pl3 401  FMN401     -0.2691
     18  C10        7.0740   81.5430   28.5600 C.2   401  FMN401      0.2416
     19  C1'        7.0380   83.0420   26.6110 C.3   401  FMN401      0.1294
     20  C2'        7.4910   82.2930   25.3770 C.3   401  FMN401      0.2044
     21  O2'        8.3940   81.2770   25.7840 O.3   401  FMN401     -0.2185
     22  C3'        8.1090   83.2610   24.3430 C.3   401  FMN401      0.2164
     23  O3'        7.0830   84.1410   23.8700 O.3   401  FMN401     -0.2175
     24  C4'        8.7880   82.4950   23.2110 C.3   401  FMN401      0.2147
     25  O4'        9.3190   83.3410   22.2050 O.3   401  FMN401     -0.2176
     26  C5'        7.7790   81.5650   22.5620 C.3   401  FMN401      0.1892
     27  O5'        8.2970   81.0310   21.3710 O.3   401  FMN401     -0.2674
     28  P          7.4760   81.3250   20.0220 P.3   401  FMN401      0.5327
     29  O1P        8.2510   80.6750   18.8660 O.2   401  FMN401     -0.2224
     30  O2P        6.0690   80.7450   20.0610 O.3   401  FMN401     -0.1145
     31  O3P        7.4650   82.8070   19.7540 O.3   401  FMN401     -0.1145
@<TRIPOS>BOND
     1    29    28    2
     2    31    28    1
     3    28    30    1
     4    28    27    1
     5    27    26    1
     6    25    24    1
     7    26    24    1
     8    24    22    1
     9    23    22    1
    10    22    20    1
    11    14    13    1
    12    20    21    1
    13    20    19    1
    14    13    15    2
    15    13    11    1
    16    15    16    1
    17    12    11    1
    18    19    17    1
    19    11    10    2
    20    16    17    1
    21    16     9    1
    22    17    18    1
    23    10     9    1
    24     9     8    2
    25    18     1    2
    26    18     7    1
    27     1     2    2
    28     8     7    2
    29     7     5    1
    30     2     3    2
    31     2     4    2
    32     5     4    2
    33     5     6    2
