@<TRIPOS>MOLECULE
2z9v_PXM_A_1.pdb
 12 12 0 0 0
SMALL
GASTEIGER

@<TRIPOS>ATOM
      1  N1        47.0680   23.9250   24.6960 N.ar  1501  PXM1501    -0.2452
      2  C2        47.8980   23.5620   23.7220 C.ar  1501  PXM1501     0.0978
      3  C2A       48.3200   22.0870   23.6740 C.3   1501  PXM1501     0.0555
      4  C3        48.3370   24.4860   22.7770 C.ar  1501  PXM1501     0.2063
      5  O3        49.1660   24.1110   21.7780 O.3   1501  PXM1501    -0.2856
      6  C4        47.9150   25.8190   22.8610 C.ar  1501  PXM1501     0.0370
      7  C5        47.0430   26.1400   23.9160 C.ar  1501  PXM1501     0.0302
      8  C5A       46.4730   27.5280   24.1780 C.3   1501  PXM1501     0.2100
      9  O5        45.6850   27.8990   23.0610 O.3   1501  PXM1501    -0.2151
     10  C6        46.6450   25.1640   24.8230 C.ar  1501  PXM1501     0.0966
     11  C4A       48.3920   26.8600   21.8420 C.3   1501  PXM1501     0.1386
     12  N4        49.8560   26.7950   21.7440 N.3   1501  PXM1501    -0.1261
@<TRIPOS>BOND
     1    12    11    1
     2     5     4    1
     3    11     6    1
     4     4     6   ar
     5     4     2   ar
     6     6     7   ar
     7     9     8    1
     8     3     2    1
     9     2     1   ar
    10     7     8    1
    11     7    10   ar
    12     1    10   ar
