@<TRIPOS>MOLECULE
2z9w_PXL_A_1.pdb
 11 11 0 0 0
SMALL
GASTEIGER

@<TRIPOS>ATOM
      1  OP4       45.6200   27.8390   21.7270 O.3   1197  PXL1197    -0.2151
      2  C5A       46.4140   27.5630   22.8700 C.3   1197  PXL1197     0.2099
      3  C5        46.9070   26.1020   22.9080 C.ar  1197  PXL1197     0.0288
      4  C6        46.5870   25.3420   24.0270 C.ar  1197  PXL1197     0.0966
      5  N1        46.9990   24.0850   24.1260 N.ar  1197  PXL1197    -0.2452
      6  C2        47.7550   23.4920   23.1920 C.ar  1197  PXL1197     0.0978
      7  C3        48.1020   24.1950   22.0410 C.ar  1197  PXL1197     0.2049
      8  C4        47.6780   25.5280   21.9050 C.ar  1197  PXL1197     0.0183
      9  C4A       48.0380   26.3430   20.6810 C.3   1197  PXL1197     0.0342
     10  O3        48.8700   23.6200   21.0820 O.3   1197  PXL1197    -0.2857
     11  C2A       48.1780   22.0370   23.3880 C.3   1197  PXL1197     0.0555
@<TRIPOS>BOND
     1     9     8    1
     2    10     7    1
     3     1     2    1
     4     8     7   ar
     5     8     3   ar
     6     7     6   ar
     7     2     3    1
     8     3     4   ar
     9     6    11    1
    10     6     5   ar
    11     4     5   ar
