@<TRIPOS>MOLECULE
2z9x_PXL_A_1.pdb
 11 11 0 0 0
SMALL
GASTEIGER

@<TRIPOS>ATOM
      1  OP4       46.3130   28.0130   21.9420 O.3   1503  PXL1503    -0.2151
      2  C5A       46.8320   27.7530   23.2530 C.3   1503  PXL1503     0.2099
      3  C5        47.3080   26.2830   23.2580 C.ar  1503  PXL1503     0.0288
      4  C6        46.7060   25.4230   24.1760 C.ar  1503  PXL1503     0.0966
      5  N1        47.0420   24.1400   24.2640 N.ar  1503  PXL1503    -0.2452
      6  C2        47.9770   23.6110   23.4920 C.ar  1503  PXL1503     0.0978
      7  C3        48.6000   24.4240   22.5340 C.ar  1503  PXL1503     0.2049
      8  C4        48.3000   25.7800   22.4100 C.ar  1503  PXL1503     0.0183
      9  C4A       49.0640   26.6070   21.3700 C.3   1503  PXL1503     0.0342
     10  O3        49.5350   23.9360   21.7200 O.3   1503  PXL1503    -0.2857
     11  C2A       48.3060   22.1110   23.6400 C.3   1503  PXL1503     0.0555
@<TRIPOS>BOND
     1     9     8    1
     2    10     7    1
     3     1     2    1
     4     8     7   ar
     5     8     3   ar
     6     7     6   ar
     7     2     3    1
     8     3     4   ar
     9     6    11    1
    10     6     5   ar
    11     4     5   ar
