@<TRIPOS>MOLECULE
2za0_MGI_A_1.pdb
 22 23 0 0 0
SMALL
GASTEIGER

@<TRIPOS>ATOM
      1  O2        47.1770   28.2680   58.5000 O.2   300  MGI300     -0.2448
      2  C1        46.8420   29.4440   58.5450 C.2   300  MGI300      0.3442
      3  O1        47.8880   30.4530   58.5820 O.3   300  MGI300     -0.4413
      4  C9        49.2840   30.1420   58.7540 C.3   300  MGI300      0.2560
      5  C2        45.3720   29.8120   58.5920 C.ar  300  MGI300      0.1107
      6  C7        44.4190   28.7610   58.7010 C.ar  300  MGI300      0.2046
      7  O3        44.8100   27.4610   58.7590 O.3   300  MGI300     -0.2863
      8  C6        43.0680   29.0460   58.7550 C.ar  300  MGI300      0.0797
      9  C3        44.8870   31.1850   58.5320 C.ar  300  MGI300     -0.0095
     10  C8        45.7660   32.4140   58.4040 C.3   300  MGI300      0.0314
     11  C4        43.5170   31.4340   58.5920 C.ar  300  MGI300      0.0337
     12  C5        42.5980   30.3930   58.7040 C.ar  300  MGI300      0.1483
     13  O4        41.2820   30.7380   58.7630 O.3   300  MGI300     -0.4501
     14  C10       40.2470   29.8870   59.1270 C.ar  300  MGI300      0.1869
     15  C15       40.2080   29.2260   60.4030 C.ar  300  MGI300      0.0368
     16  C11       39.2200   29.6720   58.1950 C.ar  300  MGI300      0.2683
     17  O5        39.2590   30.3000   57.0020 O.3   300  MGI300     -0.2798
     18  C12       38.1580   28.8120   58.4930 C.ar  300  MGI300      0.2371
     19  O6        37.1560   28.5990   57.5650 O.3   300  MGI300     -0.2830
     20  C13       38.1150   28.1500   59.7600 C.ar  300  MGI300      0.0414
     21  C14       39.1340   28.3590   60.7080 C.ar  300  MGI300     -0.0154
     22  C16       39.0680   27.6600   62.0280 C.3   300  MGI300      0.0312
@<TRIPOS>BOND
     1    17    16    1
     2    19    18    1
     3    16    18   ar
     4    16    14   ar
     5    10     9    1
     6    18    20   ar
     7     1     2    2
     8     9     5   ar
     9     9    11   ar
    10     2     3    1
    11     2     5    1
    12     3     4    1
    13     5     6   ar
    14    11    12   ar
    15     6     8   ar
    16     6     7    1
    17    12     8   ar
    18    12    13    1
    19    13    14    1
    20    14    15   ar
    21    20    21   ar
    22    15    21   ar
    23    21    22    1
