@<TRIPOS>MOLECULE
2za3_U5P_A_1.pdb
 21 22 0 0 0
SMALL
GASTEIGER

@<TRIPOS>ATOM
      1  N1       -38.9590  -21.8900   -6.6310 N.am  500  U5P500     -0.1766
      2  C2       -39.7930  -22.0870   -5.5310 C.1   500  U5P500      0.2845
      3  N3       -41.1460  -22.0200   -5.6900 N.2   500  U5P500     -0.2452
      4  C4       -41.7050  -21.7590   -6.9150 C.1   500  U5P500      0.2182
      5  C5       -40.8640  -21.5540   -8.0530 C.2   500  U5P500      0.1242
      6  C6       -39.5100  -21.6240   -7.8860 C.2   500  U5P500      0.0929
      7  O2       -39.3460  -22.3240   -4.4220 O.2   500  U5P500     -0.1918
      8  O4       -42.9100  -21.7010   -7.0370 O.2   500  U5P500     -0.2085
      9  C1'      -37.4880  -21.9510   -6.5360 C.3   500  U5P500      0.2401
     10  C2'      -36.8830  -20.5800   -6.1990 C.3   500  U5P500      0.2319
     11  O2'      -36.5120  -19.9260   -7.3940 O.3   500  U5P500     -0.2157
     12  C3'      -35.6930  -20.9050   -5.3120 C.3   500  U5P500      0.2158
     13  C4'      -35.6920  -22.4210   -5.1210 C.3   500  U5P500      0.1801
     14  O3'      -34.4660  -20.4970   -5.9430 O.3   500  U5P500     -0.2175
     15  O4'      -37.0160  -22.8630   -5.5140 O.3   500  U5P500     -0.3320
     16  C5'      -35.4500  -22.7040   -3.6430 C.3   500  U5P500      0.1859
     17  O5'      -35.4160  -24.1020   -3.3720 O.3   500  U5P500     -0.2675
     18  P        -35.1420  -24.2650   -1.7830 P.3   500  U5P500      0.5327
     19  O1P      -36.2410  -23.6430   -1.0140 O.3   500  U5P500     -0.1145
     20  O2P      -35.0780  -25.8230   -1.4330 O.2   500  U5P500     -0.2224
     21  O3P      -33.7440  -23.5750   -1.4000 O.3   500  U5P500     -0.1145
@<TRIPOS>BOND
     1     5     6    2
     2     5     4    1
     3     6     1    1
     4    11    10    1
     5     8     4    2
     6     4     3    2
     7     1     9    1
     8     1     2   am
     9     9    10    1
    10     9    15    1
    11    10    12    1
    12    14    12    1
    13     3     2    2
    14     2     7    2
    15    15    13    1
    16    12    13    1
    17    13    16    1
    18    16    17    1
    19    17    18    1
    20    18    20    2
    21    18    21    1
    22    18    19    1
