@<TRIPOS>MOLECULE
2za5_2FF_A_1.pdb
 31 35 0 0 0
SMALL
GASTEIGER

@<TRIPOS>ATOM
      1  C1        22.2370   77.6270   83.0030 C.ar    4  2FF4       -0.0040
      2  C2        22.7300   78.2010   84.1830 C.ar    4  2FF4        0.0145
      3  C3        21.8060   78.7030   85.2150 C.ar    4  2FF4        0.1346
      4  C4        20.4280   78.6140   85.0280 C.ar    4  2FF4        0.0363
      5  C5        19.9180   78.0380   83.8350 C.ar    4  2FF4        0.0003
      6  C6        20.8250   77.5280   82.8200 C.ar    4  2FF4       -0.0033
      7  O13       22.5840   79.2510   86.3210 O.3     4  2FF4       -0.4754
      8  C8        23.9340   79.4370   85.8820 C.3     4  2FF4        0.2094
      9  C7        24.1170   78.4980   84.7080 C.3     4  2FF4        0.0654
     10  C10       24.6090   77.0690   85.0950 C.3     4  2FF4        0.0293
     11  C11       26.1060   77.1010   85.4520 C.3     4  2FF4        0.0943
     12  N22       26.8230   77.9270   84.4930 N.am    4  2FF4       -0.2736
     13  C13       26.3670   79.2790   84.1490 C.3     4  2FF4        0.0943
     14  C14       24.9610   79.1300   83.5750 C.3     4  2FF4        0.0293
     15  C15       27.7220   77.3350   83.5290 C.2     4  2FF4        0.2838
     16  C32       28.2330   75.9210   83.6330 C.ar    4  2FF4        0.1995
     17  O35       28.4020   75.1860   82.4590 O.2     4  2FF4       -0.4407
     18  C18       28.9400   73.9340   82.8240 C.ar    4  2FF4        0.1873
     19  C19       29.1030   73.8900   84.2250 C.ar    4  2FF4        0.0495
     20  C20       28.6720   75.1530   84.7430 C.ar    4  2FF4        0.0460
     21  C21       29.2030   72.8610   81.7930 C.1     4  2FF4       -0.0225
     22  C22       29.4180   72.1130   80.9190 C.1     4  2FF4       -0.0568
     23  C46       29.7370   71.0530   79.8830 C.ar    4  2FF4        0.0421
     24  C24       29.8850   71.4350   78.5380 C.ar    4  2FF4        0.0082
     25  C25       30.1610   70.4660   77.5540 C.ar    4  2FF4        0.0006
     26  C26       30.2710   69.1080   77.9470 C.ar    4  2FF4        0.0000
     27  C27       30.1010   68.7190   79.2980 C.ar    4  2FF4        0.0006
     28  C28       29.8250   69.6910   80.2790 C.ar    4  2FF4        0.0082
     29  O61       28.0710   77.9710   82.5980 O.2     4  2FF4       -0.2666
     30  C30       20.2450   76.9110   81.5320 C.3     4  2FF4        0.1356
     31  N64       20.4350   77.9100   80.4930 N.3     4  2FF4       -0.1262
@<TRIPOS>BOND
     1    25    26   ar
     2    25    24   ar
     3    26    27   ar
     4    24    23   ar
     5    27    28   ar
     6    23    28   ar
     7    23    22    1
     8    31    30    1
     9    22    21    3
    10    30     6    1
    11    21    18    1
    12    17    18   ar
    13    17    16   ar
    14    29    15    2
    15     6     1   ar
    16     6     5   ar
    17    18    19   ar
    18     1     2   ar
    19    15    16    1
    20    15    12   am
    21    14    13    1
    22    14     9    1
    23    16    20   ar
    24     5     4   ar
    25    13    12    1
    26     2     9    1
    27     2     3   ar
    28    19    20   ar
    29    12    11    1
    30     9    10    1
    31     9     8    1
    32     4     3   ar
    33    10    11    1
    34     3     7    1
    35     8     7    1
