@<TRIPOS>MOLECULE
2zaa_MAW_A_1.pdb
 11 11 0 0 0
SMALL
GASTEIGER

@<TRIPOS>ATOM
      1  C1        -5.3430    8.3940   -5.5530 C.3   404  MAW404      0.1840
      2  C2        -6.4320    9.0960   -6.3500 C.3   404  MAW404      0.2420
      3  O2        -7.0740   10.0570   -5.5040 O.3   404  MAW404     -0.2120
      4  C3        -5.7620    9.8620   -7.4840 C.2   404  MAW404      0.2044
      5  O3        -6.5210   10.1880   -8.5600 O.2   404  MAW404     -0.2888
      6  C4        -4.4170   10.2540   -7.3920 C.2   404  MAW404      0.0545
      7  C5        -3.6290    9.9040   -6.2770 C.3   404  MAW404      0.2433
      8  O5        -4.4280    9.4370   -5.1560 O.3   404  MAW404     -0.3379
      9  C6        -2.5810   10.9150   -5.7530 C.2   404  MAW404      0.3957
     10  O6A       -2.5120   11.1400   -4.5190 O.co2 404  MAW404     -0.2426
     11  O6B       -1.8270   11.4400   -6.5920 O.co2 404  MAW404     -0.2426
@<TRIPOS>BOND
     1     5     4    1
     2     4     6    2
     3     4     2    1
     4     6     7    1
     5    11     9   ar
     6     2     1    1
     7     2     3    1
     8     7     9    1
     9     7     8    1
    10     9    10   ar
    11     1     8    1
