@<TRIPOS>MOLECULE
2zaa_LGU_A_1.pdb
 13 13 0 0 0
SMALL
GASTEIGER

@<TRIPOS>ATOM
      1  C1        -9.5740   -1.6600    3.1370 C.3   401  LGU401      0.3028
      2  C2        -9.8620   -0.1570    2.9220 C.3   401  LGU401      0.2435
      3  O2       -11.0770    0.1820    3.5940 O.3   401  LGU401     -0.2148
      4  C3        -8.7020    0.7340    3.3890 C.3   401  LGU401      0.2204
      5  O3        -8.7000    0.8240    4.8220 O.3   401  LGU401     -0.2174
      6  C4        -7.3480    0.1830    2.8800 C.3   401  LGU401      0.2229
      7  O4        -7.2990    0.1310    1.4390 O.3   401  LGU401     -0.2171
      8  C5        -7.1860   -1.2510    3.3560 C.3   401  LGU401      0.2530
      9  O5        -8.2090   -2.0600    2.7670 O.3   401  LGU401     -0.3149
     10  C6        -5.8380   -1.8120    2.8980 C.2   401  LGU401      0.3941
     11  O6A       -5.8380   -2.8790    2.2400 O.co2 401  LGU401     -0.2429
     12  O6B       -4.8190   -1.1640    3.2040 O.co2 401  LGU401     -0.2429
     13  O1        -9.9140   -2.1440    4.4310 O.3   401  LGU401     -0.1869
@<TRIPOS>BOND
     1     7     6    1
     2    11    10   ar
     3     9     1    1
     4     9     8    1
     5     6     8    1
     6     6     4    1
     7    10    12   ar
     8    10     8    1
     9     2     1    1
    10     2     4    1
    11     2     3    1
    12     1    13    1
    13     4     5    1
