@<TRIPOS>MOLECULE
2zaa_BEM_A_1.pdb
 12 12 0 0 0
SMALL
GASTEIGER

@<TRIPOS>ATOM
      1  C1        -6.6340    1.2660    0.9230 C.3   402  BEM402      0.1783
      2  C2        -6.3480    1.0630   -0.5550 C.3   402  BEM402      0.2141
      3  O2        -7.5550    0.6500   -1.1890 O.3   402  BEM402     -0.2176
      4  C3        -5.8020    2.3770   -1.1460 C.3   402  BEM402      0.2178
      5  O3        -5.6580    2.2660   -2.5590 O.3   402  BEM402     -0.2175
      6  C4        -6.6640    3.6140   -0.7520 C.3   402  BEM402      0.2227
      7  O4        -5.9180    4.8430   -0.8700 O.3   402  BEM402     -0.2171
      8  C5        -7.0240    3.5900    0.7480 C.3   402  BEM402      0.2512
      9  O5        -7.5930    2.3420    1.0000 O.3   402  BEM402     -0.3403
     10  C6        -8.0820    4.5560    1.2960 C.2   402  BEM402      0.3940
     11  O6A       -8.8530    5.1470    0.5110 O.co2 402  BEM402     -0.2429
     12  O6B       -8.1130    4.6920    2.5430 O.co2 402  BEM402     -0.2429
@<TRIPOS>BOND
     1     5     4    1
     2     3     2    1
     3     4     6    1
     4     4     2    1
     5     7     6    1
     6     6     8    1
     7     2     1    1
     8    11    10   ar
     9     8     9    1
    10     8    10    1
    11     1     9    1
    12    10    12   ar
