@<TRIPOS>MOLECULE
2zab_LGU_A_1.pdb
 13 13 0 0 0
SMALL
GASTEIGER

@<TRIPOS>ATOM
      1  C1         5.8090   -3.3330   19.7940 C.3   401  LGU401      0.3028
      2  C2         6.9930   -2.4980   19.2930 C.3   401  LGU401      0.2435
      3  O2         7.8190   -2.0790   20.3970 O.3   401  LGU401     -0.2148
      4  C3         7.7990   -3.3200   18.2910 C.3   401  LGU401      0.2204
      5  O3         8.3920   -4.4460   18.9520 O.3   401  LGU401     -0.2174
      6  C4         6.8860   -3.8250   17.1530 C.3   401  LGU401      0.2229
      7  O4         6.4260   -2.7100   16.3480 O.3   401  LGU401     -0.2171
      8  C5         5.6930   -4.5910   17.7210 C.3   401  LGU401      0.2530
      9  O5         4.9900   -3.7390   18.6460 O.3   401  LGU401     -0.3149
     10  C6         4.7210   -5.0260   16.6170 C.2   401  LGU401      0.3941
     11  O6A        5.1420   -5.8070   15.7400 O.co2 401  LGU401     -0.2429
     12  O6B        3.5640   -4.5670   16.6690 O.co2 401  LGU401     -0.2429
     13  O1         6.2940   -4.4340   20.5740 O.3   401  LGU401     -0.1869
@<TRIPOS>BOND
     1    11    10   ar
     2     7     6    1
     3    10    12   ar
     4    10     8    1
     5     6     8    1
     6     6     4    1
     7     8     9    1
     8     4     5    1
     9     4     2    1
    10     9     1    1
    11     2     1    1
    12     2     3    1
    13     1    13    1
