@<TRIPOS>MOLECULE
2zab_BEM_A_1.pdb
 11 11 0 0 0
SMALL
GASTEIGER

@<TRIPOS>ATOM
      1  C1        10.3010    0.0500   12.4830 C.3   501  BEM501      0.1781
      2  C2        11.4200   -0.3990   11.6090 C.3   501  BEM501      0.2116
      3  O2        10.9220   -1.4740   10.8390 O.3   501  BEM501     -0.2177
      4  C3        11.6970    0.8420   10.7410 C.3   501  BEM501      0.1877
      5  O3        12.6690    0.4990    9.7440 O.3   501  BEM501     -0.2202
      6  C4        10.3720    1.4420   10.1510 C.3   501  BEM501      0.0769
      7  C5         9.1430    1.3540   11.1510 C.3   501  BEM501      0.2204
      8  O5         9.1000   -0.0410   11.6430 O.3   501  BEM501     -0.3422
      9  C6         7.9650    1.6270   10.2100 C.2   501  BEM501      0.3914
     10  O6A        6.8400    1.5010   10.7090 O.co2 501  BEM501     -0.2430
     11  O6B        8.1600    1.9340    9.0000 O.co2 501  BEM501     -0.2430
@<TRIPOS>BOND
     1    11     9   ar
     2     5     4    1
     3     6     4    1
     4     6     7    1
     5     9    10   ar
     6     9     7    1
     7     4     2    1
     8     3     2    1
     9     7     8    1
    10     2     1    1
    11     8     1    1
