@<TRIPOS>MOLECULE
2zac_LGU_A_1.pdb
 13 13 0 0 0
SMALL
GASTEIGER

@<TRIPOS>ATOM
      1  C1         5.8770   -3.6040   20.2910 C.3   401  LGU401      0.3028
      2  C2         6.9380   -2.6160   19.7580 C.3   401  LGU401      0.2435
      3  O2         7.7970   -2.1870   20.8220 O.3   401  LGU401     -0.2148
      4  C3         7.7600   -3.2380   18.6200 C.3   401  LGU401      0.2204
      5  O3         8.5390   -4.3450   19.1100 O.3   401  LGU401     -0.2174
      6  C4         6.8420   -3.7210   17.4750 C.3   401  LGU401      0.2229
      7  O4         6.2360   -2.6120   16.7410 O.3   401  LGU401     -0.2171
      8  C5         5.7620   -4.6700   18.0460 C.3   401  LGU401      0.2530
      9  O5         5.0420   -4.1230   19.1870 O.3   401  LGU401     -0.3149
     10  C6         4.7780   -5.0640   16.9420 C.2   401  LGU401      0.3941
     11  O6A        3.6060   -4.6250   17.0000 O.co2 401  LGU401     -0.2429
     12  O6B        5.2080   -5.8260   16.0530 O.co2 401  LGU401     -0.2429
     13  O1         6.4760   -4.6510   21.0690 O.3   401  LGU401     -0.1869
@<TRIPOS>BOND
     1    12    10   ar
     2     7     6    1
     3    10    11   ar
     4    10     8    1
     5     6     8    1
     6     6     4    1
     7     8     9    1
     8     4     5    1
     9     4     2    1
    10     9     1    1
    11     2     1    1
    12     2     3    1
    13     1    13    1
