@<TRIPOS>MOLECULE
2zac_BEM_A_1.pdb
 12 12 0 0 0
SMALL
GASTEIGER

@<TRIPOS>ATOM
      1  C1         7.0360   -2.2560   15.6050 C.3   402  BEM402      0.1783
      2  C2         6.3960   -1.1290   14.7810 C.3   402  BEM402      0.2141
      3  O2         6.3090    0.0770   15.5530 O.3   402  BEM402     -0.2176
      4  C3         7.2520   -0.8410   13.5500 C.3   402  BEM402      0.2178
      5  O3         6.7180    0.3090   12.8830 O.3   402  BEM402     -0.2175
      6  C4         8.7240   -0.5930   13.9520 C.3   402  BEM402      0.2227
      7  O4         9.5910   -0.6980   12.8320 O.3   402  BEM402     -0.2171
      8  C5         9.2080   -1.7200   14.8720 C.3   402  BEM402      0.2512
      9  O5         8.3590   -1.8260   16.0050 O.3   402  BEM402     -0.3403
     10  C6        10.6150   -1.5260   15.4360 C.2   402  BEM402      0.3940
     11  O6A       11.0700   -0.3660   15.5440 O.co2 402  BEM402     -0.2429
     12  O6B       11.2150   -2.5610   15.7740 O.co2 402  BEM402     -0.2429
@<TRIPOS>BOND
     1     7     6    1
     2     5     4    1
     3     4     6    1
     4     4     2    1
     5     6     8    1
     6     2     3    1
     7     2     1    1
     8     8    10    1
     9     8     9    1
    10    10    11   ar
    11    10    12   ar
    12     1     9    1
