@<TRIPOS>MOLECULE
2zan_ATP_A_1.pdb
 31 33 0 0 0
SMALL
GASTEIGER

@<TRIPOS>ATOM
      1  PG        54.8420   15.6490   10.0570 P.3   446  ATP446      0.5373
      2  O1G       55.1210   16.5790   11.1830 O.3   446  ATP446     -0.1143
      3  O2G       54.4170   14.2150   10.6110 O.3   446  ATP446     -0.1143
      4  O3G       56.1430   15.5190    9.1280 O.2   446  ATP446     -0.2221
      5  PB        53.9040   17.6230    8.5480 P.3   446  ATP446      0.2277
      6  O1B       54.0000   18.6290    9.6290 O.3   446  ATP446     -0.4368
      7  O2B       55.1960   17.5910    7.5830 O.2   446  ATP446     -0.5168
      8  O3B       53.6220   16.1600    9.2060 O.3   446  ATP446     -0.2258
      9  PA        52.5320   19.1040    6.7820 P.3   446  ATP446      0.2189
     10  O1A       53.6190   19.0550    5.7690 O.2   446  ATP446     -0.5170
     11  O2A       52.5630   20.4510    7.6590 O.3   446  ATP446     -0.4371
     12  O3A       52.5890   17.8330    7.7010 O.3   446  ATP446     -0.2700
     13  O5'       51.1180   18.8450    6.1410 O.3   446  ATP446     -0.3112
     14  C5'       50.7840   19.8060    5.1990 C.3   446  ATP446      0.1813
     15  C4'       49.4060   19.3980    4.7310 C.3   446  ATP446      0.1821
     16  O4'       48.4490   19.3960    5.8300 O.3   446  ATP446     -0.3135
     17  C3'       48.9070   20.3500    3.6700 C.3   446  ATP446      0.2184
     18  O3'       48.4930   19.6280    2.5260 O.3   446  ATP446     -0.2174
     19  C2'       47.7640   21.1150    4.3090 C.3   446  ATP446      0.2570
     20  O2'       46.5720   20.8850    3.5660 O.3   446  ATP446     -0.2130
     21  C1'       47.6380   20.6030    5.7680 C.3   446  ATP446      0.3186
     22  N9        48.1250   21.6530    6.7330 N.pl3 446  ATP446     -0.1439
     23  C8        48.8510   21.4350    7.8800 C.3   446  ATP446      0.3377
     24  N7        49.1160   22.5540    8.4820 N.2   446  ATP446     -0.2095
     25  C5        48.5780   23.5850    7.7790 C.2   446  ATP446      0.2526
     26  C6        48.5400   25.0020    7.9280 C.2   446  ATP446      0.4393
     27  N6        49.1510   25.6090    9.0000 N.pl3 446  ATP446      0.2180
     28  N1        47.8980   25.7400    7.0140 N.2   446  ATP446      0.0021
     29  C2        47.3020   25.1790    5.9720 C.3   446  ATP446      0.5254
     30  N3        47.3150   23.8560    5.7870 N.2   446  ATP446     -0.0055
     31  C4        47.9300   23.0280    6.6500 C.2   446  ATP446      0.3518
@<TRIPOS>BOND
     1    18    17    1
     2    20    19    1
     3    17    19    1
     4    17    15    1
     5    19    21    1
     6    15    14    1
     7    15    16    1
     8    14    13    1
     9    21    16    1
    10    21    22    1
    11    10     9    2
    12    30    29    1
    13    30    31    2
    14    29    28    1
    15    13     9    1
    16    31    22    1
    17    31    25    1
    18    22    23    1
    19     9    11    1
    20     9    12    1
    21    28    26    2
    22     7     5    2
    23    12     5    1
    24    25    26    1
    25    25    24    2
    26    23    24    1
    27    26    27    1
    28     5     8    1
    29     5     6    1
    30     4     1    2
    31     8     1    1
    32     1     3    1
    33     1     2    1
