@<TRIPOS>MOLECULE
2zao_ADP_A_1.pdb
 27 29 0 0 0
SMALL
GASTEIGER

@<TRIPOS>ATOM
      1  PB        21.2970   17.7070   -3.8270 P.3   445  ADP445      0.5373
      2  O1B       20.4510   17.5200   -2.6140 O.3   445  ADP445     -0.1143
      3  O2B       22.1740   16.5100   -4.4030 O.2   445  ADP445     -0.2221
      4  O3B       21.6690   19.2240   -4.2830 O.3   445  ADP445     -0.1143
      5  PA        22.2830   19.1660   -1.7460 P.3   445  ADP445      0.2231
      6  O1A       21.8800   18.8600   -0.3550 O.3   445  ADP445     -0.4370
      7  O2A       22.8800   20.5720   -2.2050 O.2   445  ADP445     -0.5169
      8  O3A       22.5670   17.9080   -2.7760 O.3   445  ADP445     -0.2261
      9  O5'       23.7810   18.7790   -1.1870 O.3   445  ADP445     -0.3111
     10  C5'       24.1550   19.6740   -0.1160 C.3   445  ADP445      0.1813
     11  C4'       25.5360   19.3410    0.4380 C.3   445  ADP445      0.1821
     12  O4'       26.5820   19.3800   -0.5640 O.3   445  ADP445     -0.3135
     13  C3'       25.8850   20.3410    1.5460 C.3   445  ADP445      0.2184
     14  O3'       26.2250   19.6790    2.7540 O.3   445  ADP445     -0.2174
     15  C2'       27.0440   21.1540    1.0170 C.3   445  ADP445      0.2570
     16  O2'       28.1420   21.0200    1.9020 O.3   445  ADP445     -0.2130
     17  C1'       27.3630   20.5980   -0.3890 C.3   445  ADP445      0.3186
     18  N9        27.0150   21.5720   -1.4350 N.pl3 445  ADP445     -0.1439
     19  C8        26.3620   21.2970   -2.6160 C.3   445  ADP445      0.3377
     20  N7        26.2090   22.3730   -3.3260 N.2   445  ADP445     -0.2095
     21  C5        26.7570   23.4010   -2.6620 C.2   445  ADP445      0.2526
     22  C6        26.8980   24.7760   -2.9220 C.2   445  ADP445      0.4393
     23  N6        26.4110   25.2890   -4.0860 N.pl3 445  ADP445      0.2180
     24  N1        27.5250   25.5570   -2.0160 N.2   445  ADP445      0.0021
     25  C2        28.0090   25.0530   -0.8690 C.3   445  ADP445      0.5254
     26  N3        27.8890   23.7560   -0.5840 N.2   445  ADP445     -0.0055
     27  C4        27.2850   22.9070   -1.4400 C.2   445  ADP445      0.3518
@<TRIPOS>BOND
     1     3     1    2
     2     4     1    1
     3    23    22    1
     4     1     8    1
     5     1     2    1
     6    20    21    2
     7    20    19    1
     8    22    21    1
     9    22    24    2
    10     8     5    1
    11    21    27    1
    12    19    18    1
    13     7     5    2
    14    24    25    1
    15     5     9    1
    16     5     6    1
    17    27    18    1
    18    27    26    2
    19    18    17    1
    20     9    10    1
    21    25    26    1
    22    12    17    1
    23    12    11    1
    24    17    15    1
    25    10    11    1
    26    11    13    1
    27    15    13    1
    28    15    16    1
    29    13    14    1
