@<TRIPOS>MOLECULE
2zas_1OH_A_1.pdb
 16 17 0 0 0
SMALL
GASTEIGER

@<TRIPOS>ATOM
      1  O2        16.5670   23.4480   42.3290 O.3   460  1OH460     -0.2866
      2  C13       16.2750   24.7520   42.0490 C.ar  460  1OH460      0.1957
      3  C14       15.1420   25.3580   42.5920 C.ar  460  1OH460      0.0417
      4  C15       14.8560   26.6920   42.2850 C.ar  460  1OH460     -0.0007
      5  C12       17.1220   25.4780   41.2100 C.ar  460  1OH460      0.0417
      6  C11       16.8410   26.8040   40.9150 C.ar  460  1OH460     -0.0007
      7  C4        15.7020   27.4270   41.4470 C.ar  460  1OH460     -0.0188
      8  C2        15.4160   28.8740   41.1150 C.3   460  1OH460      0.0377
      9  C5        16.4640   29.7570   41.7830 C.3   460  1OH460      0.0088
     10  C3        14.0620   29.3260   41.6500 C.3   460  1OH460      0.0088
     11  C1        15.4480   29.0210   39.6100 C.ar  460  1OH460     -0.0190
     12  C6        16.6270   29.3760   38.9420 C.ar  460  1OH460     -0.0040
     13  C7        16.6470   29.4930   37.5520 C.ar  460  1OH460     -0.0003
     14  C8        15.4890   29.2540   36.8190 C.ar  460  1OH460     -0.0000
     15  C9        14.3140   28.8950   37.4770 C.ar  460  1OH460     -0.0003
     16  C10       14.2960   28.7700   38.8640 C.ar  460  1OH460     -0.0040
@<TRIPOS>BOND
     1    14    15   ar
     2    14    13   ar
     3    15    16   ar
     4    13    12   ar
     5    16    11   ar
     6    12    11   ar
     7    11     8    1
     8     6     5   ar
     9     6     7   ar
    10     8     7    1
    11     8    10    1
    12     8     9    1
    13     5     2   ar
    14     7     4   ar
    15     2     1    1
    16     2     3   ar
    17     4     3   ar
