@<TRIPOS>MOLECULE
2zat_NAP_A_1.pdb
 48 52 0 0 0
SMALL
GASTEIGER

@<TRIPOS>ATOM
      1  PA        15.1360   42.9480   29.2190 P.3   1261  NAP1261     0.2189
      2  O1A       14.0660   42.2400   28.4820 O.2   1261  NAP1261    -0.5170
      3  O2A       14.6150   44.0550   30.1340 O.3   1261  NAP1261    -0.4371
      4  O5B       16.1240   43.5460   28.1040 O.3   1261  NAP1261    -0.3112
      5  C5B       16.7480   42.7140   27.1480 C.3   1261  NAP1261     0.1813
      6  C4B       17.8320   43.5610   26.5120 C.3   1261  NAP1261     0.1820
      7  O4B       18.7310   42.7470   25.7840 O.3   1261  NAP1261    -0.3136
      8  C3B       17.2780   44.5570   25.5100 C.3   1261  NAP1261     0.2157
      9  O3B       18.1020   45.7070   25.6310 O.3   1261  NAP1261    -0.2175
     10  C2B       17.4680   43.8710   24.1690 C.3   1261  NAP1261     0.2314
     11  O2B       17.5030   44.8270   23.1270 O.3   1261  NAP1261    -0.2630
     12  C1B       18.7960   43.1760   24.4170 C.3   1261  NAP1261     0.3158
     13  N9A       19.1750   41.9880   23.6450 N.pl3 1261  NAP1261    -0.1439
     14  C8A       18.4930   40.8150   23.4980 C.3   1261  NAP1261     0.3377
     15  N7A       19.2370   39.9420   22.7800 N.2   1261  NAP1261    -0.2095
     16  C5A       20.4100   40.5620   22.4590 C.2   1261  NAP1261     0.2526
     17  C6A       21.5440   40.1760   21.7500 C.2   1261  NAP1261     0.4393
     18  N6A       21.7030   38.9650   21.2160 N.pl3 1261  NAP1261     0.2180
     19  N1A       22.5960   41.0500   21.6210 N.2   1261  NAP1261     0.0021
     20  C2A       22.5140   42.3060   22.2020 C.3   1261  NAP1261     0.5254
     21  N3A       21.4020   42.7020   22.9100 N.2   1261  NAP1261    -0.0055
     22  C4A       20.3740   41.8390   23.0190 C.2   1261  NAP1261     0.3518
     23  O3        16.1160   41.8450   29.9150 O.3   1261  NAP1261    -0.2703
     24  PN        16.6340   41.6620   31.4430 P.3   1261  NAP1261     0.2189
     25  O1N       15.6590   40.8610   32.2430 O.3   1261  NAP1261    -0.4371
     26  O2N       17.0630   42.9440   32.0450 O.2   1261  NAP1261    -0.5170
     27  O5D       17.9370   40.7510   31.1440 O.3   1261  NAP1261    -0.3112
     28  C5D       19.2700   41.2130   31.3410 C.3   1261  NAP1261     0.1813
     29  C4D       20.1420   40.1420   31.9810 C.3   1261  NAP1261     0.1799
     30  O4D       19.6110   39.8940   33.2610 O.3   1261  NAP1261    -0.3327
     31  C3D       20.1930   38.8130   31.2090 C.3   1261  NAP1261     0.2158
     32  O3D       21.4830   38.1870   31.2450 O.3   1261  NAP1261    -0.2175
     33  C2D       19.2320   37.9560   31.9920 C.3   1261  NAP1261     0.2309
     34  O2D       19.5350   36.5940   31.7900 O.3   1261  NAP1261    -0.2158
     35  C1D       19.5030   38.4900   33.4010 C.3   1261  NAP1261     0.2263
     36  N1N       18.4990   38.1220   34.4180 N.pl3 1261  NAP1261    -0.2787
     37  C2N       17.2340   38.6360   34.4300 C.3   1261  NAP1261     0.1244
     38  C3N       16.3590   38.2170   35.4430 C.2   1261  NAP1261     0.0544
     39  C7N       14.9710   38.7470   35.5450 C.2   1261  NAP1261     0.2818
     40  O7N       14.1430   38.2340   36.5790 O.2   1261  NAP1261    -0.2670
     41  N7N       14.5760   39.6740   34.6660 N.am  1261  NAP1261    -0.0839
     42  C4N       16.7610   37.3090   36.4100 C.2   1261  NAP1261     0.0033
     43  C5N       18.0550   36.8220   36.3850 C.2   1261  NAP1261     0.0157
     44  C6N       18.9150   37.2420   35.3840 C.2   1261  NAP1261     0.0633
     45  P2B       17.2660   44.4010   21.5700 P.3   1261  NAP1261     0.5328
     46  O1X       17.3240   45.7000   20.8110 O.2   1261  NAP1261    -0.2224
     47  O2X       15.8710   43.7150   21.4350 O.3   1261  NAP1261    -0.1145
     48  O3X       18.3870   43.4870   21.1750 O.3   1261  NAP1261    -0.1145
@<TRIPOS>BOND
     1    46    45    2
     2    48    45    1
     3    18    17    1
     4    47    45    1
     5    45    11    1
     6    19    17    2
     7    19    20    1
     8    17    16    1
     9    20    21    1
    10    16    15    2
    11    16    22    1
    12    15    14    1
    13    21    22    2
    14    22    13    1
    15    11    10    1
    16    14    13    1
    17    13    12    1
    18    10    12    1
    19    10     8    1
    20    12     7    1
    21     8     9    1
    22     8     6    1
    23     7     6    1
    24     6     5    1
    25     5     4    1
    26     4     1    1
    27     2     1    2
    28     1    23    1
    29     1     3    1
    30    23    24    1
    31    27    28    1
    32    27    24    1
    33    31    32    1
    34    31    29    1
    35    31    33    1
    36    28    29    1
    37    24    26    2
    38    24    25    1
    39    34    33    1
    40    29    30    1
    41    33    35    1
    42    30    35    1
    43    35    36    1
    44    36    37    1
    45    36    44    1
    46    37    38    1
    47    41    39   am
    48    44    43    2
    49    38    39    1
    50    38    42    2
    51    39    40    2
    52    43    42    1
