@<TRIPOS>MOLECULE
2zaw_CAM_A_1.pdb
 11 12 0 0 0
SMALL
GASTEIGER

@<TRIPOS>ATOM
      1  C1       -14.5740   18.7670   21.2180 C.3   422  CAM422      0.0282
      2  C2       -14.8120   17.4330   21.8620 C.3   422  CAM422      0.1519
      3  O        -13.8220   16.5380   22.1530 O.3   422  CAM422     -0.2232
      4  C3       -16.2790   17.2500   22.1410 C.3   422  CAM422      0.0329
      5  C4       -16.8010   18.6040   21.6340 C.3   422  CAM422      0.0026
      6  C5       -16.2950   19.6580   22.6350 C.3   422  CAM422      0.0002
      7  C6       -14.7780   19.7440   22.3820 C.3   422  CAM422      0.0024
      8  C7       -15.8860   18.8520   20.4350 C.3   422  CAM422      0.0024
      9  C8       -16.0280   17.7880   19.3480 C.3   422  CAM422      0.0001
     10  C9       -16.1040   20.2500   19.8590 C.3   422  CAM422      0.0001
     11  C10      -13.2440   18.9110   20.4840 C.3   422  CAM422      0.0025
@<TRIPOS>BOND
     1     9     8    1
     2    10     8    1
     3     8     1    1
     4     8     5    1
     5    11     1    1
     6     1     2    1
     7     1     7    1
     8     5     4    1
     9     5     6    1
    10     2     4    1
    11     2     3    1
    12     7     6    1
