@<TRIPOS>MOLECULE
2zaw_6HE_A_1.pdb
 39 46 0 0 0
SMALL
GASTEIGER

@<TRIPOS>ATOM
      1 FE        -19.4690   21.8440   23.2310 Fe    417  6HE417      0.0000
      2  CHA      -20.3690   18.5250   23.2880 C.2   417  6HE417      0.0000
      3  CHB      -19.7030   21.8180   19.8050 C.2   417  6HE417      0.0000
      4  CHC      -18.4460   25.1280   23.1320 C.2   417  6HE417      0.0000
      5  CHD      -18.3330   21.6210   26.4870 C.2   417  6HE417      0.0000
      6  NA       -19.9100   20.4320   21.8110 N.ar  417  6HE417      0.0000
      7  C1A      -20.2760   19.1140   22.0410 C.ar  417  6HE417      0.0000
      8  C2A      -20.5620   18.4530   20.7780 C.ar  417  6HE417      0.0000
      9  C3A      -20.3890   19.3810   19.8150 C.ar  417  6HE417      0.0000
     10  C4A      -19.9790   20.6300   20.4480 C.ar  417  6HE417      0.0000
     11  CMA      -20.5530   19.1950   18.2990 C.3   417  6HE417      0.0000
     12  CAA      -21.0070   16.9780   20.5960 C.3   417  6HE417      0.0000
     13  CBA      -19.8110   16.1100   20.1850 C.3   417  6HE417      0.0000
     14  CGA      -20.2130   14.6830   19.8670 C.2   417  6HE417      0.0000
     15  O1A      -21.4270   14.3850   19.7100 O.co2 417  6HE417      0.0000
     16  O2A      -19.2880   13.8320   19.7630 O.co2 417  6HE417      0.0000
     17  NB       -19.0570   23.1850   21.7210 N.2   417  6HE417      0.0000
     18  C1B      -19.3740   23.0150   20.3960 C.2   417  6HE417      0.0000
     19  C2B      -19.3060   24.3010   19.7200 C.2   417  6HE417      0.0000
     20  C3B      -18.9360   25.2200   20.6440 C.2   417  6HE417      0.0000
     21  C4B      -18.7910   24.5340   21.9250 C.2   417  6HE417      0.0000
     22  CMB      -19.5860   24.5260   18.2150 C.3   417  6HE417      0.0000
     23  CAB      -18.7200   26.7360   20.4920 C.2   417  6HE417      0.0000
     24  CBB      -19.0340   27.4450   19.3950 C.2   417  6HE417      0.0000
     25  NC       -18.5300   23.1020   24.5410 N.ar  417  6HE417      0.0000
     26  C1C      -18.2590   24.4460   24.3220 C.ar  417  6HE417      0.0000
     27  C2C      -17.7030   25.0060   25.5300 C.ar  417  6HE417      0.0000
     28  C3C      -17.6560   24.0410   26.4550 C.ar  417  6HE417      0.0000
     29  C4C      -18.1760   22.8280   25.8530 C.ar  417  6HE417      0.0000
     30  CMC      -17.2840   26.4750   25.6810 C.3   417  6HE417      0.0000
     31  CAC      -17.1520   24.1330   27.9130 C.2   417  6HE417      0.0000
     32  CBC      -16.1150   23.3940   28.3020 C.2   417  6HE417      0.0000
     33  ND       -19.3030   20.3040   24.6390 N.2   417  6HE417      0.0000
     34  C1D      -18.9970   20.5320   25.9730 C.2   417  6HE417      0.0000
     35  C2D      -19.4680   19.4150   26.7560 C.2   417  6HE417      0.0000
     36  C3D      -20.0950   18.4830   25.7680 C.2   417  6HE417      0.0000
     37  C4D      -19.9510   19.0930   24.4670 C.2   417  6HE417      0.0000
     38  CMD      -19.3630   19.1950   28.2740 C.3   417  6HE417      0.0000
     39  CAD      -20.7600   17.1380   26.0610 C.3   417  6HE417      0.0000
@<TRIPOS>BOND
     1    22    19    1
     2    11     9    1
     3    24    23    2
     4    15    14   ar
     5    19    18    1
     6    19    20    2
     7    16    14   ar
     8     3    18    1
     9     3    10    2
    10     9    10   ar
    11     9     8   ar
    12    14    13    1
    13    13    12    1
    14    18    17    2
    15    10     6   ar
    16    23    20    1
    17    12     8    1
    18    20    21    1
    19     8     7   ar
    20    17    21    1
    21    17     1    1
    22     6     7   ar
    23     6     1    1
    24    21     4    2
    25     7     2    2
    26     4    26    1
    27     1    25    1
    28     1    33    1
    29     2    37    1
    30    26    25   ar
    31    26    27   ar
    32    37    33    2
    33    37    36    1
    34    25    29   ar
    35    33    34    1
    36    27    30    1
    37    27    28   ar
    38    36    39    1
    39    36    35    2
    40    29    28   ar
    41    29     5    1
    42    34     5    2
    43    34    35    1
    44    28    31    1
    45    35    38    1
    46    31    32    2
