@<TRIPOS>MOLECULE
2zax_HEM_A_1.pdb
 43 50 0 0 0
SMALL
GASTEIGER

@<TRIPOS>ATOM
      1 FE        -19.5100   21.7800   23.0960 Fe    417  HEM417      0.0000
      2  CHA      -20.2080   18.3910   23.0600 C.2   417  HEM417      0.0000
      3  CHB      -19.7300   21.8270   19.6520 C.2   417  HEM417      0.0000
      4  CHC      -18.5070   25.0620   23.0640 C.2   417  HEM417      0.0000
      5  CHD      -18.3490   21.4870   26.3460 C.2   417  HEM417      0.0000
      6  NA       -19.8680   20.3880   21.6430 N.ar  417  HEM417      0.0000
      7  C1A      -20.1800   19.0570   21.8550 C.ar  417  HEM417      0.0000
      8  C2A      -20.4840   18.4340   20.5740 C.ar  417  HEM417      0.0000
      9  C3A      -20.3500   19.3860   19.6300 C.ar  417  HEM417      0.0000
     10  C4A      -19.9680   20.6260   20.2890 C.ar  417  HEM417      0.0000
     11  CMA      -20.5680   19.2470   18.1100 C.3   417  HEM417      0.0000
     12  CAA      -20.9090   16.9630   20.3650 C.3   417  HEM417      0.0000
     13  CBA      -19.7000   16.0980   19.9700 C.3   417  HEM417      0.0000
     14  CGA      -20.1240   14.6760   19.6690 C.2   417  HEM417      0.0000
     15  O1A      -21.3420   14.3790   19.5790 O.co2 417  HEM417      0.0000
     16  O2A      -19.2130   13.8240   19.5440 O.co2 417  HEM417      0.0000
     17  NB       -19.1080   23.1410   21.6220 N.2   417  HEM417      0.0000
     18  C1B      -19.4090   23.0120   20.2780 C.2   417  HEM417      0.0000
     19  C2B      -19.3370   24.3180   19.6400 C.2   417  HEM417      0.0000
     20  C3B      -18.9770   25.2070   20.5920 C.2   417  HEM417      0.0000
     21  C4B      -18.8410   24.4790   21.8520 C.2   417  HEM417      0.0000
     22  CMB      -19.6040   24.5480   18.1300 C.3   417  HEM417      0.0000
     23  CAB      -18.7540   26.7300   20.4980 C.2   417  HEM417      0.0000
     24  CBB      -19.0280   27.4390   19.3970 C.2   417  HEM417      0.0000
     25  NC       -18.5480   22.9980   24.4260 N.ar  417  HEM417      0.0000
     26  C1C      -18.2950   24.3550   24.2360 C.ar  417  HEM417      0.0000
     27  C2C      -17.7360   24.8940   25.4540 C.ar  417  HEM417      0.0000
     28  C3C      -17.6820   23.9120   26.3690 C.ar  417  HEM417      0.0000
     29  C4C      -18.1930   22.7020   25.7340 C.ar  417  HEM417      0.0000
     30  CMC      -17.3450   26.3760   25.6290 C.3   417  HEM417      0.0000
     31  CAC      -17.1730   23.9680   27.8190 C.2   417  HEM417      0.0000
     32  CBC      -16.4660   24.9750   28.3470 C.2   417  HEM417      0.0000
     33  ND       -19.3030   20.2130   24.4600 N.2   417  HEM417      0.0000
     34  C1D      -18.8830   20.3740   25.7710 C.2   417  HEM417      0.0000
     35  C2D      -19.0450   19.1220   26.4620 C.2   417  HEM417      0.0000
     36  C3D      -19.6230   18.1640   25.4670 C.2   417  HEM417      0.0000
     37  C4D      -19.7440   18.9200   24.2380 C.2   417  HEM417      0.0000
     38  CMD      -18.7040   18.8130   27.9390 C.3   417  HEM417      0.0000
     39  CAD      -19.9190   16.6830   25.7050 C.3   417  HEM417      0.0000
     40  CBD      -21.3890   16.2960   25.7430 C.3   417  HEM417      0.0000
     41  CGD      -21.4660   14.7880   25.7570 C.2   417  HEM417      0.0000
     42  O1D      -22.4450   14.2640   26.3430 O.co2 417  HEM417      0.0000
     43  O2D      -20.5870   14.1000   25.1630 O.co2 417  HEM417      0.0000
@<TRIPOS>BOND
     1    11     9    1
     2    22    19    1
     3    24    23    2
     4    16    14   ar
     5    15    14   ar
     6     9    10   ar
     7     9     8   ar
     8    19    18    1
     9    19    20    2
    10     3    18    1
    11     3    10    2
    12    14    13    1
    13    13    12    1
    14    18    17    2
    15    10     6   ar
    16    12     8    1
    17    23    20    1
    18     8     7   ar
    19    20    21    1
    20    17    21    1
    21    17     1    1
    22     6     7   ar
    23     6     1    1
    24    21     4    2
    25     7     2    2
    26     2    37    1
    27     4    26    1
    28     1    25    1
    29     1    33    1
    30    26    25   ar
    31    26    27   ar
    32    37    33    2
    33    37    36    1
    34    25    29   ar
    35    33    34    1
    36    43    41   ar
    37    27    30    1
    38    27    28   ar
    39    36    39    1
    40    36    35    2
    41    39    40    1
    42    29     5    1
    43    29    28   ar
    44    40    41    1
    45    41    42   ar
    46    34     5    2
    47    34    35    1
    48    28    31    1
    49    35    38    1
    50    31    32    2
