@<TRIPOS>MOLECULE
2zax_CAM_A_1.pdb
 11 12 0 0 0
SMALL
GASTEIGER

@<TRIPOS>ATOM
      1  C1       -14.5530   18.6120   21.2220 C.3   422  CAM422      0.0282
      2  C2       -14.7830   17.2390   21.7870 C.3   422  CAM422      0.1519
      3  O        -13.8110   16.3270   22.0670 O.3   422  CAM422     -0.2232
      4  C3       -16.2450   17.0130   22.0430 C.3   422  CAM422      0.0329
      5  C4       -16.7760   18.3850   21.6130 C.3   422  CAM422      0.0026
      6  C5       -16.2920   19.3500   22.7170 C.3   422  CAM422      0.0002
      7  C6       -14.7830   19.4980   22.4450 C.3   422  CAM422      0.0024
      8  C7       -15.8590   18.7550   20.4480 C.3   422  CAM422      0.0024
      9  C8       -16.0340   17.7870   19.2800 C.3   422  CAM422      0.0001
     10  C9       -16.0440   20.1920   19.9730 C.3   422  CAM422      0.0001
     11  C10      -13.2210   18.7910   20.5110 C.3   422  CAM422      0.0025
@<TRIPOS>BOND
     1     9     8    1
     2    10     8    1
     3     8     1    1
     4     8     5    1
     5    11     1    1
     6     1     2    1
     7     1     7    1
     8     5     4    1
     9     5     6    1
    10     2     4    1
    11     2     3    1
    12     7     6    1
