@<TRIPOS>MOLECULE
2zaz_GK1_A_1.pdb
 26 29 0 0 0
SMALL
GASTEIGER

@<TRIPOS>ATOM
      1  O2        49.3680   37.8820   27.0200 O.2   362  GK1362     -0.2797
      2  C20       50.1020   36.8910   27.0670 C.2   362  GK1362      0.2724
      3  C19       49.5180   35.5620   27.3840 C.2   362  GK1362      0.1991
      4  S         50.2330   33.9970   26.9910 S.3   362  GK1362     -0.0715
      5  C18       48.8620   33.1110   27.7030 C.3   362  GK1362      0.1234
      6  N3        48.3400   35.4040   28.0110 N.2   362  GK1362     -0.3957
      7  C17       47.9570   34.0830   28.1830 C.2   362  GK1362      0.1210
      8  C13       46.7750   33.7320   28.8360 C.ar  362  GK1362      0.0278
      9  C12       46.2280   34.6450   29.7290 C.ar  362  GK1362      0.0214
     10  C14       46.1720   32.4940   28.6220 C.ar  362  GK1362      0.0024
     11  C15       44.9950   32.1990   29.3200 C.ar  362  GK1362      0.0029
     12  C16       44.4430   33.1180   30.2250 C.ar  362  GK1362      0.0329
     13  C11       45.0610   34.3530   30.4300 C.ar  362  GK1362      0.0826
     14  N2        44.5430   35.2660   31.2940 N.ar  362  GK1362     -0.2438
     15  C10       43.4200   34.9990   31.9880 C.ar  362  GK1362      0.1002
     16  C9        42.7700   33.7810   31.8200 C.ar  362  GK1362      0.0372
     17  C8        43.2770   32.8240   30.9390 C.ar  362  GK1362      0.0734
     18  N1        42.6560   31.6210   30.7410 N.pl3 362  GK1362     -0.2126
     19  C7        41.5420   31.2130   31.4230 C.ar  362  GK1362      0.0697
     20  C2        40.2650   31.5900   30.9830 C.ar  362  GK1362     -0.0064
     21  C1        40.0780   32.4540   29.7580 C.3   362  GK1362      0.0324
     22  C6        41.6840   30.4070   32.5770 C.ar  362  GK1362      0.0582
     23  C5        40.5430   29.9810   33.2800 C.ar  362  GK1362      0.1970
     24  O1        40.6600   29.2120   34.4090 O.3   362  GK1362     -0.2865
     25  C4        39.2700   30.3630   32.8240 C.ar  362  GK1362      0.0418
     26  C3        39.1400   31.1510   31.6800 C.ar  362  GK1362      0.0003
@<TRIPOS>BOND
     1     4     3    1
     2     4     5    1
     3     1     2    2
     4     2     3    1
     5     3     6    2
     6     5     7    1
     7     6     7    2
     8     7     8    1
     9    10     8   ar
    10    10    11   ar
    11     8     9   ar
    12    11    12   ar
    13     9    13   ar
    14    21    20    1
    15    12    13   ar
    16    12    17   ar
    17    13    14   ar
    18    18    17    1
    19    18    19    1
    20    17    16   ar
    21    20    19   ar
    22    20    26   ar
    23    14    15   ar
    24    19    22   ar
    25    26    25   ar
    26    16    15   ar
    27    22    23   ar
    28    25    23   ar
    29    23    24    1
