@<TRIPOS>MOLECULE
2zb0_GK3_A_1.pdb
 30 33 0 0 0
SMALL
GASTEIGER

@<TRIPOS>ATOM
      1  N5        48.8280   37.7680   26.1990 N.3   361  GK3361     -0.1262
      2  C5        48.8270   36.5420   26.7180 C.3   361  GK3361      0.1357
      3  C18       48.8050   35.1770   27.3020 C.ar  361  GK3361     -0.0019
      4  C2        49.9450   34.3550   27.2360 C.ar  361  GK3361     -0.0027
      5  C29       49.9010   33.0740   27.7910 C.ar  361  GK3361      0.0011
      6  C19       48.7190   32.6180   28.4020 C.ar  361  GK3361      0.0166
      7  C22       47.6260   34.7170   27.9190 C.ar  361  GK3361      0.0138
      8  C15       47.5690   33.4340   28.4860 C.ar  361  GK3361      0.0734
      9  N3        46.4430   32.9380   29.0880 N.am  361  GK3361     -0.1755
     10  C3        45.5340   33.6050   29.8330 C.2   361  GK3361      0.2690
     11  O1        45.5840   34.9200   30.0670 O.2   361  GK3361     -0.2680
     12  C25       44.3250   32.8600   30.3680 C.ar  361  GK3361      0.0554
     13  C9        44.0670   31.5650   29.9120 C.ar  361  GK3361      0.0046
     14  C10       43.4430   33.4670   31.2770 C.ar  361  GK3361      0.0046
     15  C16       42.3180   32.7820   31.7420 C.ar  361  GK3361      0.0001
     16  C13       42.0780   31.4700   31.2990 C.ar  361  GK3361     -0.0003
     17  C27       42.9480   30.8750   30.3710 C.ar  361  GK3361      0.0001
     18  C28       40.9290   30.7640   31.6750 C.ar  361  GK3361     -0.0038
     19  C14       40.9170   29.8050   32.6880 C.ar  361  GK3361      0.0044
     20  C17       39.7100   29.1600   32.9570 C.ar  361  GK3361      0.0551
     21  C12       39.5280   28.1850   34.0660 C.ar  361  GK3361      0.2496
     22  O2        38.7310   27.2210   34.1440 O.2   361  GK3361     -0.4195
     23  C7        38.9620   26.7500   35.2680 C.ar  361  GK3361      0.2270
     24  C21       38.2060   25.5580   35.7720 C.3   361  GK3361      0.0967
     25  N4        39.9080   27.3760   35.9760 N.ar  361  GK3361     -0.1114
     26  N7        40.2930   28.3390   35.1660 N.ar  361  GK3361     -0.1072
     27  C20       38.5450   29.4450   32.2370 C.ar  361  GK3361      0.0044
     28  C26       38.5510   30.3790   31.2280 C.ar  361  GK3361     -0.0041
     29  C23       39.7410   31.0350   30.9400 C.ar  361  GK3361     -0.0218
     30  C1        39.6660   32.0470   29.8220 C.3   361  GK3361      0.0310
@<TRIPOS>BOND
     1     1     2    1
     2     2     3    1
     3     4     3   ar
     4     4     5   ar
     5     3     7   ar
     6     5     6   ar
     7     7     8   ar
     8     6     8   ar
     9     8     9    1
    10     9    10   am
    11    30    29    1
    12    10    11    2
    13    10    12    1
    14    13    12   ar
    15    13    17   ar
    16    12    14   ar
    17    17    16   ar
    18    29    28   ar
    19    29    18   ar
    20    28    27   ar
    21    14    15   ar
    22    16    18    1
    23    16    15   ar
    24    18    19   ar
    25    27    20   ar
    26    19    20   ar
    27    20    21    1
    28    21    22   ar
    29    21    26   ar
    30    22    23   ar
    31    26    25   ar
    32    23    24    1
    33    23    25   ar
