@<TRIPOS>MOLECULE
2zb1_GK4_A_1.pdb
 26 29 0 0 0
SMALL
GASTEIGER

@<TRIPOS>ATOM
      1  O2        45.7200   34.8960   32.5820 O.2   361  GK4361     -0.2684
      2  C17       45.7430   33.7180   32.1950 C.2   361  GK4361      0.2648
      3  N3        46.9130   33.0920   31.9880 N.am  361  GK4361     -0.2017
      4  C18       48.1540   33.8290   32.1750 C.3   361  GK4361      0.1154
      5  C19       49.2800   33.1550   31.4260 C.3   361  GK4361      0.0217
      6  C21       49.2780   33.6720   29.9930 C.3   361  GK4361      0.0018
      7  C20       50.2910   34.2050   31.0040 C.3   361  GK4361      0.0018
      8  C14       44.4420   32.9440   32.0480 C.ar  361  GK4361      0.0550
      9  C13       44.4170   31.5670   31.7720 C.ar  361  GK4361      0.0046
     10  C12       43.2070   30.8760   31.6830 C.ar  361  GK4361      0.0001
     11  C15       43.2340   33.6040   32.2620 C.ar  361  GK4361      0.0046
     12  C16       42.0360   32.9150   32.1840 C.ar  361  GK4361      0.0001
     13  C11       42.0000   31.5660   31.8690 C.ar  361  GK4361     -0.0003
     14  C9        40.7560   30.9350   31.8330 C.ar  361  GK4361     -0.0038
     15  C7        39.7590   31.1380   30.8780 C.ar  361  GK4361     -0.0218
     16  C8        39.9510   32.0670   29.7180 C.3   361  GK4361      0.0310
     17  C6        38.5430   30.4580   30.9870 C.ar  361  GK4361     -0.0041
     18  C5        38.3010   29.5920   32.0460 C.ar  361  GK4361      0.0044
     19  C10       40.4930   30.0690   32.8940 C.ar  361  GK4361      0.0044
     20  C4        39.2910   29.3860   33.0070 C.ar  361  GK4361      0.0551
     21  C3        39.1150   28.5320   34.1010 C.ar  361  GK4361      0.2496
     22  N2        40.0380   28.3150   35.0720 N.ar  361  GK4361     -0.1072
     23  N1        39.4920   27.4050   35.9820 N.ar  361  GK4361     -0.1114
     24  O1        38.0990   27.8400   34.3740 O.2   361  GK4361     -0.4195
     25  C2        38.2920   27.1830   35.4370 C.ar  361  GK4361      0.2270
     26  C1        37.1470   26.3110   35.8800 C.3   361  GK4361      0.0967
@<TRIPOS>BOND
     1    16    15    1
     2     6     7    1
     3     6     5    1
     4    15    17   ar
     5    15    14   ar
     6    17    18   ar
     7     7     5    1
     8     5     4    1
     9    10     9   ar
    10    10    13   ar
    11     9     8   ar
    12    14    13    1
    13    14    19   ar
    14    13    12   ar
    15     3     4    1
    16     3     2   am
    17    18    20   ar
    18     8     2    1
    19     8    11   ar
    20    12    11   ar
    21     2     1    2
    22    19    20   ar
    23    20    21    1
    24    21    24   ar
    25    21    22   ar
    26    24    25   ar
    27    22    23   ar
    28    25    26    1
    29    25    23   ar
