@<TRIPOS>MOLECULE
2zb2_PLP_A_1.pdb
 15 15 0 0 0
SMALL
GASTEIGER

@<TRIPOS>ATOM
      1  N1         8.9130   19.1790   21.1780 N.ar  849  PLP849     -0.2452
      2  C2         7.7640   18.7760   20.5940 C.ar  849  PLP849      0.0978
      3  C2A        7.7710   18.5850   19.0970 C.3   849  PLP849      0.0555
      4  C3         6.5760   18.5690   21.3580 C.ar  849  PLP849      0.2049
      5  O3         5.3980   18.1530   20.7550 O.3   849  PLP849     -0.2857
      6  C4         6.6600   18.7480   22.8100 C.ar  849  PLP849      0.0182
      7  C4A        5.4030   18.5390   23.6440 C.3   849  PLP849      0.0342
      8  C5         7.9170   19.2020   23.3760 C.ar  849  PLP849      0.0261
      9  C6         9.0250   19.3780   22.5000 C.ar  849  PLP849      0.0965
     10  C5A        8.0880   19.4370   24.8850 C.3   849  PLP849      0.1815
     11  O4P        8.1400   18.1940   25.5970 O.3   849  PLP849     -0.2653
     12  P          9.3840   17.8120   26.5440 P.3   849  PLP849      0.5329
     13  O1P       10.7070   18.1960   25.8970 O.2   849  PLP849     -0.2224
     14  O2P        9.4030   16.3260   26.8190 O.3   849  PLP849     -0.1145
     15  O3P        9.3170   18.5350   27.8710 O.3   849  PLP849     -0.1145
@<TRIPOS>BOND
     1     3     2    1
     2     2     1   ar
     3     2     4   ar
     4     5     4    1
     5     1     9   ar
     6     4     6   ar
     7     9     8   ar
     8     6     8   ar
     9     6     7    1
    10     8    10    1
    11    10    11    1
    12    11    12    1
    13    13    12    2
    14    12    14    1
    15    12    15    1
