@<TRIPOS>MOLECULE
2zb2_A46_A_1.pdb
 23 25 0 0 0
SMALL
GASTEIGER

@<TRIPOS>ATOM
      1  C4        -3.6770   37.4860    0.0400 C.ar  850  A46850      0.0737
      2  N1        -4.2750   36.9430    1.1580 N.am  850  A46850     -0.1735
      3  C6        -3.7500   36.2310    2.2370 C.2   850  A46850      0.2948
      4  C7        -4.6010   35.7470    3.3410 C.2   850  A46850      0.1683
      5  O1        -2.5440   35.9970    2.3000 O.2   850  A46850     -0.2655
      6  N2        -4.0520   35.1240    4.3630 N.2   850  A46850     -0.4016
      7  C8        -6.0080   35.8330    3.5370 C.3   850  A46850      0.0924
      8  C11       -4.9790   34.7650    5.2680 C.2   850  A46850      0.1271
      9  C12       -6.2410   35.1990    4.7650 C.2   850  A46850      0.0118
     10  C13       -4.9120   34.0990    6.4850 C.2   850  A46850      0.0287
     11  C14       -7.3920   34.9530    5.5340 C.2   850  A46850     -0.0072
     12  C15       -6.0830   33.8530    7.2610 C.2   850  A46850     -0.0033
     13  C16       -7.3390   34.2750    6.7790 C.3   850  A46850      0.1236
     14 CL1        -8.7050   33.9260    7.7770 Cl    850  A46850     -0.1054
     15  C2        -4.1550   38.6260   -0.5930 C.ar  850  A46850      0.0164
     16  C1        -3.4590   39.1790   -1.7090 C.ar  850  A46850     -0.0004
     17  C5        -2.2800   38.6230   -2.2090 C.ar  850  A46850      0.0104
     18  C9        -1.8090   37.4860   -1.5740 C.ar  850  A46850     -0.0004
     19  C10       -2.4900   36.9350   -0.4720 C.ar  850  A46850      0.0164
     20  C3        -1.4720   39.2120   -3.3040 C.3   850  A46850      0.2070
     21  C17       -0.4290   40.2660   -2.8330 C.3   850  A46850      0.2193
     22  O2        -2.3000   39.6910   -4.3310 O.3   850  A46850     -0.2155
     23  O3        -0.9590   41.1790   -1.8350 O.3   850  A46850     -0.2172
@<TRIPOS>BOND
     1    22    20    1
     2    20    21    1
     3    20    17    1
     4    21    23    1
     5    17    16   ar
     6    17    18   ar
     7    16    15   ar
     8    18    19   ar
     9    15     1   ar
    10    19     1   ar
    11     1     2    1
    12     2     3   am
    13     3     5    2
    14     3     4    1
    15     4     7    1
    16     4     6    2
    17     7     9    1
    18     6     8    2
    19     9     8    1
    20     9    11    2
    21     8    10    1
    22    11    13    1
    23    10    12    2
    24    13    12    1
    25    13    14    1
