@<TRIPOS>MOLECULE
2zb2_GLC_A_1.pdb
 12 12 0 0 0
SMALL
GASTEIGER

@<TRIPOS>ATOM
      1  C1        11.3070   24.3270   28.3680 C.3   847  GLC847      0.3024
      2  C2        11.7660   23.6950   29.6790 C.3   847  GLC847      0.2434
      3  C3        10.6480   22.7510   30.1630 C.3   847  GLC847      0.2199
      4  C4         9.3450   23.5540   30.3050 C.3   847  GLC847      0.2144
      5  C5         9.0310   24.3110   29.0110 C.3   847  GLC847      0.1836
      6  C6         7.8200   25.2130   29.1340 C.3   847  GLC847      0.2142
      7  O1        11.0030   23.3060   27.4320 O.3   847  GLC847     -0.1869
      8  O2        12.9800   22.9910   29.4790 O.3   847  GLC847     -0.2148
      9  O3        11.0000   22.1860   31.4200 O.3   847  GLC847     -0.2174
     10  O4         8.2760   22.6810   30.6140 O.3   847  GLC847     -0.2176
     11  O5        10.1590   25.1320   28.6330 O.3   847  GLC847     -0.3236
     12  O6         7.9360   26.0810   30.2500 O.3   847  GLC847     -0.2176
@<TRIPOS>BOND
     1     7     1    1
     2     1    11    1
     3     1     2    1
     4    11     5    1
     5     5     6    1
     6     5     4    1
     7     6    12    1
     8     8     2    1
     9     2     3    1
    10     3     4    1
    11     3     9    1
    12     4    10    1
