@<TRIPOS>MOLECULE
2zb3_NDP_A_1.pdb
 48 52 0 0 0
SMALL
GASTEIGER

@<TRIPOS>ATOM
      1  PA        19.0930   -1.9950  -71.8080 P.3   900  NDP900      0.2189
      2  O1A       20.0400   -2.8490  -70.9530 O.3   900  NDP900     -0.4371
      3  O2A       18.4530   -0.8280  -71.1750 O.2   900  NDP900     -0.5170
      4  O5B       18.0790   -3.0070  -72.4680 O.3   900  NDP900     -0.3112
      5  C5B       16.8360   -2.5870  -73.1300 C.3   900  NDP900      0.1813
      6  C4B       15.7010   -2.2630  -72.1720 C.3   900  NDP900      0.1820
      7  O4B       14.8070   -1.2350  -72.7960 O.3   900  NDP900     -0.3136
      8  C3B       14.7720   -3.4390  -71.8750 C.3   900  NDP900      0.2157
      9  O3B       15.3230   -4.2780  -70.8610 O.3   900  NDP900     -0.2175
     10  C2B       13.4980   -2.7420  -71.4180 C.3   900  NDP900      0.2314
     11  O2B       13.3810   -2.6030  -69.9990 O.3   900  NDP900     -0.2630
     12  C1B       13.5280   -1.3620  -72.1290 C.3   900  NDP900      0.3158
     13  N9A       12.4810   -1.1740  -73.1440 N.pl3 900  NDP900     -0.1439
     14  C8A       12.2580   -1.8710  -74.2780 C.3   900  NDP900      0.3377
     15  N7A       11.1970   -1.4430  -74.9950 N.2   900  NDP900     -0.2095
     16  C5A       10.7330   -0.4120  -74.2570 C.2   900  NDP900      0.2526
     17  C6A        9.6470    0.4490  -74.4510 C.2   900  NDP900      0.4393
     18  N6A        8.8170    0.3740  -75.5100 N.pl3 900  NDP900      0.2180
     19  N1A        9.4690    1.3880  -73.4870 N.2   900  NDP900      0.0021
     20  C2A       10.2480    1.5200  -72.4240 C.3   900  NDP900      0.5254
     21  N3A       11.3090    0.7520  -72.1440 N.2   900  NDP900     -0.0055
     22  C4A       11.5080   -0.2230  -73.1140 C.2   900  NDP900      0.3518
     23  O3        19.9750   -1.4740  -72.9800 O.3   900  NDP900     -0.2703
     24  PN        21.2290   -0.5400  -73.0190 P.3   900  NDP900      0.2189
     25  O1N       21.6590   -0.1710  -71.6450 O.3   900  NDP900     -0.4371
     26  O2N       22.1730   -1.2380  -73.9130 O.2   900  NDP900     -0.5170
     27  O5D       20.7190    0.7920  -73.8200 O.3   900  NDP900     -0.3112
     28  C5D       19.6630    1.6630  -73.3100 C.3   900  NDP900      0.1813
     29  C4D       19.5240    2.8680  -74.2070 C.3   900  NDP900      0.1799
     30  O4D       20.8340    3.5300  -74.2880 O.3   900  NDP900     -0.3327
     31  C3D       19.1240    2.5560  -75.6570 C.3   900  NDP900      0.2158
     32  O3D       18.1010    3.3640  -76.1640 O.3   900  NDP900     -0.2175
     33  C2D       20.4520    2.6530  -76.3870 C.3   900  NDP900      0.2309
     34  O2D       20.1830    2.9660  -77.7520 O.3   900  NDP900     -0.2158
     35  C1D       21.1120    3.7770  -75.6300 C.3   900  NDP900      0.2263
     36  N1N       22.5780    3.8180  -75.7800 N.pl3 900  NDP900     -0.2787
     37  C2N       23.1360    4.9860  -76.2020 C.3   900  NDP900      0.1244
     38  C3N       24.4810    5.1360  -76.3750 C.2   900  NDP900      0.0544
     39  C7N       25.0560    6.4520  -76.8090 C.2   900  NDP900      0.2818
     40  O7N       26.2400    6.5340  -77.0960 O.2   900  NDP900     -0.2670
     41  N7N       24.1760    7.5020  -76.7750 N.am  900  NDP900     -0.0839
     42  C4N       25.3500    4.0350  -76.1160 C.2   900  NDP900      0.0033
     43  C5N       24.7630    2.8040  -75.6750 C.2   900  NDP900      0.0157
     44  C6N       23.3990    2.6900  -75.5010 C.2   900  NDP900      0.0633
     45  P2B       11.9220   -2.4850  -69.2490 P.3   900  NDP900      0.5328
     46  O1X       12.1340   -1.4390  -68.1900 O.3   900  NDP900     -0.1145
     47  O2X       10.9640   -2.1430  -70.3770 O.2   900  NDP900     -0.2224
     48  O3X       11.5900   -3.8560  -68.6940 O.3   900  NDP900     -0.1145
@<TRIPOS>BOND
     1    34    33    1
     2    40    39    2
     3    39    41   am
     4    39    38    1
     5    33    31    1
     6    33    35    1
     7    38    37    1
     8    38    42    2
     9    37    36    1
    10    32    31    1
    11    42    43    1
    12    36    35    1
    13    36    44    1
    14    43    44    2
    15    31    29    1
    16    35    30    1
    17    18    17    1
    18    15    14    1
    19    15    16    2
    20    17    16    1
    21    17    19    2
    22    30    29    1
    23    14    13    1
    24    16    22    1
    25    29    28    1
    26    26    24    2
    27    27    28    1
    28    27    24    1
    29    19    20    1
    30    13    22    1
    31    13    12    1
    32     5     4    1
    33     5     6    1
    34    22    21    2
    35    24    23    1
    36    24    25    1
    37    23     1    1
    38     7     6    1
    39     7    12    1
    40     4     1    1
    41    20    21    1
    42     6     8    1
    43    12    10    1
    44     8    10    1
    45     8     9    1
    46     1     3    2
    47     1     2    1
    48    10    11    1
    49    47    45    2
    50    11    45    1
    51    45    48    1
    52    45    46    1
