@<TRIPOS>MOLECULE
2zb4_NAP_A_1.pdb
 48 52 0 0 0
SMALL
GASTEIGER

@<TRIPOS>ATOM
      1  PA        11.3620   31.3500   61.6760 P.3   500  NAP500      0.2189
      2  O1A       11.9530   30.0750   61.2460 O.2   500  NAP500     -0.5170
      3  O2A       11.3520   31.7480   63.0910 O.3   500  NAP500     -0.4371
      4  O5B        9.9230   31.1780   61.0560 O.3   500  NAP500     -0.3112
      5  C5B        9.0060   32.2590   61.3800 C.3   500  NAP500      0.1813
      6  C4B        8.2050   31.7390   62.7420 C.3   500  NAP500      0.1820
      7  O4B        7.4960   32.9200   63.2850 O.3   500  NAP500     -0.3136
      8  C3B        7.0220   30.6690   62.4920 C.3   500  NAP500      0.2157
      9  O3B        7.4330   29.4160   62.4140 O.3   500  NAP500     -0.2175
     10  C2B        6.0530   31.0620   63.7290 C.3   500  NAP500      0.2314
     11  O2B        6.3100   30.1650   64.7700 O.3   500  NAP500     -0.2630
     12  C1B        6.4660   32.5270   64.1140 C.3   500  NAP500      0.3158
     13  N9A        5.3500   33.4680   63.9180 N.pl3 500  NAP500     -0.1439
     14  C8A        4.7370   33.7680   62.7500 C.3   500  NAP500      0.3377
     15  N7A        3.7220   34.6840   62.8530 N.2   500  NAP500     -0.2095
     16  C5A        3.7440   34.9150   64.1400 C.2   500  NAP500      0.2526
     17  C6A        2.9310   35.8160   65.0470 C.2   500  NAP500      0.4393
     18  N6A        1.9000   36.6080   64.4560 N.pl3 500  NAP500      0.2180
     19  N1A        3.2330   35.7950   66.3590 N.2   500  NAP500      0.0021
     20  C2A        4.1160   35.1530   67.0240 C.3   500  NAP500      0.5254
     21  N3A        4.9530   34.2810   66.2040 N.2   500  NAP500     -0.0055
     22  C4A        4.7550   34.2000   64.9600 C.2   500  NAP500      0.3518
     23  O3        11.9850   32.5080   60.6960 O.3   500  NAP500     -0.2703
     24  PN        13.5290   33.0870   60.9300 P.3   500  NAP500      0.2189
     25  O1N       14.0480   32.4000   62.0390 O.3   500  NAP500     -0.4371
     26  O2N       14.0100   33.0720   59.6300 O.2   500  NAP500     -0.5170
     27  O5D       13.2450   34.6920   61.2840 O.3   500  NAP500     -0.3112
     28  C5D       12.8060   34.8340   62.6860 C.3   500  NAP500      0.1813
     29  C4D       12.6560   36.3680   62.8160 C.3   500  NAP500      0.1799
     30  O4D       14.1980   36.8940   62.6560 O.3   500  NAP500     -0.3327
     31  C3D       11.9240   37.1750   61.7950 C.3   500  NAP500      0.2158
     32  O3D       11.3020   38.2670   62.6020 O.3   500  NAP500     -0.2175
     33  C2D       13.0240   37.7380   60.7460 C.3   500  NAP500      0.2309
     34  O2D       12.5220   38.8730   60.1310 O.3   500  NAP500     -0.2158
     35  C1D       14.1720   37.9390   61.7000 C.3   500  NAP500      0.2263
     36  N1N       15.4960   37.9610   61.0290 N.pl3 500  NAP500     -0.2787
     37  C2N       16.2850   39.1910   61.2680 C.3   500  NAP500      0.1244
     38  C3N       17.4950   39.2770   60.6860 C.2   500  NAP500      0.0544
     39  C7N       18.3570   40.4780   60.8860 C.2   500  NAP500      0.2818
     40  O7N       19.3530   40.6790   60.2110 O.2   500  NAP500     -0.2670
     41  N7N       17.9490   41.1990   61.9340 N.am  500  NAP500     -0.0839
     42  C4N       17.9710   38.2410   59.8860 C.2   500  NAP500      0.0033
     43  C5N       17.1780   37.0280   59.6630 C.2   500  NAP500      0.0157
     44  C6N       15.9110   36.9010   60.2520 C.2   500  NAP500      0.0633
     45  P2B        5.2780   29.9980   66.0280 P.3   500  NAP500      0.5328
     46  O1X        6.1130   29.9770   67.2310 O.3   500  NAP500     -0.1145
     47  O2X        4.2800   31.1660   65.8980 O.3   500  NAP500     -0.1145
     48  O3X        4.6310   28.6780   65.8030 O.2   500  NAP500     -0.2224
@<TRIPOS>BOND
     1    26    24    2
     2    43    42    1
     3    43    44    2
     4    42    38    2
     5    34    33    1
     6    40    39    2
     7    44    36    1
     8    38    39    1
     9    38    37    1
    10    23    24    1
    11    23     1    1
    12    33    35    1
    13    33    31    1
    14    39    41   am
    15    24    27    1
    16    24    25    1
    17    36    37    1
    18    36    35    1
    19     4     5    1
    20     4     1    1
    21     2     1    2
    22    27    28    1
    23     5     6    1
    24     1     3    1
    25    35    30    1
    26    31    32    1
    27    31    29    1
    28     9     8    1
    29     8     6    1
    30     8    10    1
    31    30    29    1
    32    28    29    1
    33     6     7    1
    34    14    15    1
    35    14    13    1
    36    15    16    2
    37     7    12    1
    38    10    12    1
    39    10    11    1
    40    13    12    1
    41    13    22    1
    42    16    22    1
    43    16    17    1
    44    18    17    1
    45    11    45    1
    46    22    21    2
    47    17    19    2
    48    48    45    2
    49    47    45    1
    50    45    46    1
    51    21    20    1
    52    19    20    1
