@<TRIPOS>MOLECULE
2zb4_5OP_A_1.pdb
 21 21 0 0 0
SMALL
GASTEIGER

@<TRIPOS>ATOM
      1  C5        14.5540   41.6270   59.1760 C.3   600  5OP600      0.0772
      2  C6        15.0260   40.4570   58.3650 C.2   600  5OP600      0.1733
      3  C7        16.0680   40.6720   57.5460 C.2   600  5OP600      0.0330
      4  C8        16.6450   39.7550   56.7300 C.2   600  5OP600     -0.0206
      5  C9        17.9480   40.0860   56.2030 C.3   600  5OP600      0.0598
      6  C10       18.9850   39.2410   55.9580 C.3   600  5OP600      0.1636
      7  O1        19.5010   38.6010   56.8730 O.3   600  5OP600     -0.2223
      8  C11       20.0420   39.8750   55.4500 C.3   600  5OP600      0.0976
      9  C12       19.5200   41.1050   54.6530 C.2   600  5OP600      0.1532
     10  O2        19.8180   41.6270   53.5790 O.2   600  5OP600     -0.2960
     11  C13       17.8950   40.9630   54.8100 C.3   600  5OP600      0.0642
     12  C14       17.5190   40.1890   53.4730 C.3   600  5OP600      0.0077
     13  C15       18.1800   39.0670   52.6340 C.3   600  5OP600      0.0004
     14  C16       19.3830   38.9650   51.7600 C.3   600  5OP600      0.0000
     15  C17       19.6840   39.7070   50.5660 C.3   600  5OP600      0.0006
     16  C18       20.6390   40.9460   50.7370 C.3   600  5OP600      0.0118
     17  C19       22.1010   40.6360   50.4020 C.3   600  5OP600      0.1141
     18  C20       23.1500   41.7470   50.5070 C.2   600  5OP600      0.3649
     19  O3        24.3450   41.4990   50.8630 O.co2 600  5OP600     -0.2457
     20  O4        14.4970   39.3720   58.4600 O.2   600  5OP600     -0.2913
     21  O5        22.6740   42.8710   50.1790 O.co2 600  5OP600     -0.2457
@<TRIPOS>BOND
     1    21    18   ar
     2    17    18    1
     3    17    16    1
     4    18    19   ar
     5    15    16    1
     6    15    14    1
     7    14    13    1
     8    13    12    1
     9    12    11    1
    10    10     9    2
    11     9    11    1
    12     9     8    1
    13    11     5    1
    14     8     6    1
    15     6     5    1
    16     6     7    1
    17     5     4    1
    18     4     3    2
    19     3     2    1
    20     2    20    2
    21     2     1    1
