@<TRIPOS>MOLECULE
2zb7_NDP_A_1.pdb
 48 52 0 0 0
SMALL
GASTEIGER

@<TRIPOS>ATOM
      1  PA        11.3850   31.1810   61.8390 P.3   900  NDP900      0.2189
      2  O1A       11.9860   29.9190   61.4590 O.2   900  NDP900     -0.5170
      3  O2A       11.3570   31.6680   63.2220 O.3   900  NDP900     -0.4371
      4  O5B        9.9150   31.0950   61.2160 O.3   900  NDP900     -0.3112
      5  C5B        8.8970   32.0520   61.6000 C.3   900  NDP900      0.1813
      6  C4B        8.2140   31.6130   62.9060 C.3   900  NDP900      0.1820
      7  O4B        7.6070   32.8260   63.4790 O.3   900  NDP900     -0.3136
      8  C3B        7.0500   30.6950   62.6950 C.3   900  NDP900      0.2157
      9  O3B        7.4780   29.3160   62.5930 O.3   900  NDP900     -0.2175
     10  C2B        6.1900   30.9590   63.9290 C.3   900  NDP900      0.2314
     11  O2B        6.3890   30.0360   64.9990 O.3   900  NDP900     -0.2630
     12  C1B        6.5390   32.3890   64.3600 C.3   900  NDP900      0.3158
     13  N9A        5.4000   33.3240   64.2230 N.pl3 900  NDP900     -0.1439
     14  C8A        4.7280   33.6060   63.0780 C.3   900  NDP900      0.3377
     15  N7A        3.7530   34.4640   63.2300 N.2   900  NDP900     -0.2095
     16  C5A        3.7810   34.7610   64.5460 C.2   900  NDP900      0.2526
     17  C6A        2.9610   35.6320   65.3050 C.2   900  NDP900      0.4393
     18  N6A        1.9660   36.3330   64.7500 N.pl3 900  NDP900      0.2180
     19  N1A        3.2530   35.7280   66.6530 N.2   900  NDP900      0.0021
     20  C2A        4.2790   35.0280   67.2230 C.3   900  NDP900      0.5254
     21  N3A        5.1220   34.1530   66.5490 N.2   900  NDP900     -0.0055
     22  C4A        4.8080   34.0680   65.1970 C.2   900  NDP900      0.3518
     23  O3        12.0500   32.3490   60.9180 O.3   900  NDP900     -0.2703
     24  PN        13.5230   33.0350   61.0780 P.3   900  NDP900      0.2189
     25  O1N       14.1740   32.3280   62.2140 O.3   900  NDP900     -0.4371
     26  O2N       14.1580   33.0800   59.7470 O.2   900  NDP900     -0.5170
     27  O5D       13.2280   34.5420   61.5150 O.3   900  NDP900     -0.3112
     28  C5D       12.7350   34.8340   62.8480 C.3   900  NDP900      0.1813
     29  C4D       12.7610   36.2920   63.0280 C.3   900  NDP900      0.1799
     30  O4D       14.1110   36.7370   62.8420 O.3   900  NDP900     -0.3327
     31  C3D       11.9160   37.1560   62.0320 C.3   900  NDP900      0.2158
     32  O3D       11.3210   38.2180   62.7080 O.3   900  NDP900     -0.2175
     33  C2D       12.9530   37.5920   61.0200 C.3   900  NDP900      0.2309
     34  O2D       12.5000   38.8030   60.4530 O.3   900  NDP900     -0.2158
     35  C1D       14.1280   37.7980   61.9000 C.3   900  NDP900      0.2263
     36  N1N       15.4470   37.8730   61.1950 N.pl3 900  NDP900     -0.2787
     37  C2N       16.1610   39.0320   61.3440 C.3   900  NDP900      0.1244
     38  C3N       17.3700   39.2250   60.7440 C.2   900  NDP900      0.0544
     39  C7N       18.1470   40.4870   60.9370 C.2   900  NDP900      0.2818
     40  O7N       19.0740   40.7350   60.1750 O.2   900  NDP900     -0.2670
     41  N7N       17.8040   41.2060   62.0300 N.am  900  NDP900     -0.0839
     42  C4N       17.9240   38.2030   59.9340 C.2   900  NDP900      0.0033
     43  C5N       17.2060   36.9990   59.7660 C.2   900  NDP900      0.0157
     44  C6N       15.9890   36.8110   60.3760 C.2   900  NDP900      0.0633
     45  P2B        5.3820   29.8350   66.2580 P.3   900  NDP900      0.5328
     46  O1X        6.2020   29.8780   67.5210 O.3   900  NDP900     -0.1145
     47  O2X        4.4050   31.0140   66.1860 O.3   900  NDP900     -0.1145
     48  O3X        4.6910   28.5270   66.0700 O.2   900  NDP900     -0.2224
@<TRIPOS>BOND
     1    26    24    2
     2    43    42    1
     3    43    44    2
     4    42    38    2
     5    40    39    2
     6    44    36    1
     7    34    33    1
     8    38    39    1
     9    38    37    1
    10    23    24    1
    11    23     1    1
    12    39    41   am
    13    33    35    1
    14    33    31    1
    15    24    27    1
    16    24    25    1
    17    36    37    1
    18    36    35    1
    19     4     5    1
    20     4     1    1
    21     2     1    2
    22    27    28    1
    23     5     6    1
    24     1     3    1
    25    35    30    1
    26    31    32    1
    27    31    29    1
    28     9     8    1
    29     8     6    1
    30     8    10    1
    31    30    29    1
    32    28    29    1
    33     6     7    1
    34    14    15    1
    35    14    13    1
    36    15    16    2
    37     7    12    1
    38    10    12    1
    39    10    11    1
    40    13    12    1
    41    13    22    1
    42    16    22    1
    43    16    17    1
    44    18    17    1
    45    11    45    1
    46    22    21    2
    47    17    19    2
    48    48    45    2
    49    47    45    1
    50    45    46    1
    51    21    20    1
    52    19    20    1
