@<TRIPOS>MOLECULE
2zb8_NAP_A_1.pdb
 48 52 0 0 0
SMALL
GASTEIGER

@<TRIPOS>ATOM
      1  PA       -33.4630   43.9610   53.3030 P.3   700  NAP700      0.2189
      2  O1A      -32.1770   44.2910   52.8100 O.2   700  NAP700     -0.5170
      3  O2A      -34.1840   44.7790   54.2090 O.3   700  NAP700     -0.4371
      4  O5B      -33.3360   42.4390   53.6970 O.3   700  NAP700     -0.3112
      5  C5B      -34.3460   41.7780   54.4800 C.3   700  NAP700      0.1813
      6  C4B      -34.2010   42.0520   56.0170 C.3   700  NAP700      0.1820
      7  O4B      -35.4870   41.8360   56.6130 O.3   700  NAP700     -0.3136
      8  C3B      -33.2810   41.1120   56.6570 C.3   700  NAP700      0.2157
      9  O3B      -31.9140   41.4270   56.5090 O.3   700  NAP700     -0.2175
     10  C2B      -33.7760   41.0010   58.0360 C.3   700  NAP700      0.2314
     11  O2B      -33.0060   41.8320   58.9220 O.3   700  NAP700     -0.2630
     12  C1B      -35.2360   41.4770   57.9760 C.3   700  NAP700      0.3158
     13  N9A      -36.1610   40.4550   58.2990 N.pl3 700  NAP700     -0.1439
     14  C8A      -36.3270   39.1460   57.6640 C.3   700  NAP700      0.3377
     15  N7A      -37.3000   38.4710   58.2560 N.2   700  NAP700     -0.2095
     16  C5A      -37.7840   39.2220   59.1960 C.2   700  NAP700      0.2526
     17  C6A      -38.8720   39.0550   60.1990 C.2   700  NAP700      0.4393
     18  N6A      -39.6440   37.9430   60.3130 N.pl3 700  NAP700      0.2180
     19  N1A      -39.1080   40.1110   61.0710 N.2   700  NAP700      0.0021
     20  C2A      -38.3970   41.3220   61.0780 C.3   700  NAP700      0.5254
     21  N3A      -37.3730   41.5660   60.1930 N.2   700  NAP700     -0.0055
     22  C4A      -37.0830   40.5040   59.2620 C.2   700  NAP700      0.3518
     23  O3       -34.3970   43.7800   51.9060 O.3   700  NAP700     -0.2703
     24  PN       -34.8750   44.9800   51.0430 P.3   700  NAP700      0.2189
     25  O1N      -34.4070   46.1860   51.5880 O.3   700  NAP700     -0.4371
     26  O2N      -34.5170   44.6150   49.7150 O.2   700  NAP700     -0.5170
     27  O5D      -36.4290   44.9870   51.2250 O.3   700  NAP700     -0.3112
     28  C5D      -37.0380   45.3550   52.4540 C.3   700  NAP700      0.1813
     29  C4D      -38.5780   45.3270   52.3300 C.3   700  NAP700      0.1799
     30  O4D      -39.0350   46.2960   51.3480 O.3   700  NAP700     -0.3327
     31  C3D      -39.2940   44.0340   51.8680 C.3   700  NAP700      0.2158
     32  O3D      -40.4310   43.9640   52.6970 O.3   700  NAP700     -0.2175
     33  C2D      -39.6030   44.2760   50.3960 C.3   700  NAP700      0.2309
     34  O2D      -40.6780   43.4260   50.0530 O.3   700  NAP700     -0.2158
     35  C1D      -39.9180   45.7030   50.4020 C.3   700  NAP700      0.2263
     36  N1N      -39.6960   46.3730   49.1160 N.pl3 700  NAP700     -0.2787
     37  C2N      -40.8650   47.0370   48.6930 C.3   700  NAP700      0.1244
     38  C3N      -40.8590   47.7550   47.4800 C.2   700  NAP700      0.0544
     39  C7N      -42.0910   48.5110   46.9870 C.2   700  NAP700      0.2818
     40  O7N      -42.1140   48.8070   45.8170 O.2   700  NAP700     -0.2670
     41  N7N      -43.0440   48.8220   47.9110 N.am  700  NAP700     -0.0839
     42  C4N      -39.5760   47.7600   46.7160 C.2   700  NAP700      0.0033
     43  C5N      -38.3460   47.0810   47.1340 C.2   700  NAP700      0.0157
     44  C6N      -38.4020   46.3650   48.3670 C.2   700  NAP700      0.0633
     45  P2B      -33.1780   41.9600   60.5710 P.3   700  NAP700      0.5328
     46  O1X      -33.4330   43.4160   60.9650 O.3   700  NAP700     -0.1145
     47  O2X      -34.3160   41.0570   60.9570 O.3   700  NAP700     -0.1145
     48  O3X      -31.7570   41.3940   60.9220 O.2   700  NAP700     -0.2224
@<TRIPOS>BOND
     1    40    39    2
     2    42    43    1
     3    42    38    2
     4    39    38    1
     5    39    41   am
     6    43    44    2
     7    38    37    1
     8    44    36    1
     9    37    36    1
    10    36    35    1
    11    26    24    2
    12    34    33    1
    13    33    35    1
    14    33    31    1
    15    35    30    1
    16    24    27    1
    17    24    25    1
    18    24    23    1
    19    27    28    1
    20    30    29    1
    21    31    29    1
    22    31    32    1
    23    23     1    1
    24    29    28    1
    25     2     1    2
    26     1     4    1
    27     1     3    1
    28     4     5    1
    29     5     6    1
    30     6     7    1
    31     6     8    1
    32     9     8    1
    33     7    12    1
    34     8    10    1
    35    14    15    1
    36    14    13    1
    37    12    10    1
    38    12    13    1
    39    10    11    1
    40    15    16    2
    41    13    22    1
    42    11    45    1
    43    16    22    1
    44    16    17    1
    45    22    21    2
    46    21    20    1
    47    17    18    1
    48    17    19    2
    49    45    48    2
    50    45    47    1
    51    45    46    1
    52    19    20    1
