@<TRIPOS>MOLECULE
2zb8_IMN_A_1.pdb
 25 27 0 0 0
SMALL
GASTEIGER

@<TRIPOS>ATOM
      1  C        -42.0040   43.1290   42.8960 C.ar  800  IMN800      0.0664
      2  C1       -42.6200   43.4180   44.2070 C.ar  800  IMN800      0.0169
      3  C2       -43.5480   42.5070   44.8500 C.ar  800  IMN800      0.0381
      4  C3       -43.9500   41.3110   44.3340 C.ar  800  IMN800      0.1388
      5  C4       -43.3810   40.8790   42.9490 C.ar  800  IMN800      0.0384
      6  C5       -42.4220   41.7830   42.2470 C.ar  800  IMN800      0.0207
      7  C6       -45.4690   39.5110   45.0710 C.3   800  IMN800      0.2525
      8  C7       -42.1640   44.6630   44.6880 C.ar  800  IMN800      0.0027
      9  C8       -41.2910   45.2060   43.7770 C.ar  800  IMN800      0.0411
     10  C9       -40.2240   44.6800   41.4780 C.2   800  IMN800      0.2644
     11  C10      -40.0650   43.8650   40.3070 C.ar  800  IMN800      0.0565
     12  C11      -41.2270   43.6800   39.3680 C.ar  800  IMN800      0.0056
     13  C12      -41.0510   42.8610   38.2100 C.ar  800  IMN800      0.0115
     14  C13      -39.7330   42.2440   38.0020 C.ar  800  IMN800      0.0577
     15  C14      -38.5790   42.4100   38.8940 C.ar  800  IMN800      0.0115
     16  C15      -38.7250   43.2170   40.0540 C.ar  800  IMN800      0.0056
     17  C16      -40.6080   46.5170   43.9210 C.3   800  IMN800      0.0501
     18  C17      -42.6810   45.0860   45.9690 C.3   800  IMN800      0.1415
     19  C18      -42.0910   44.3630   47.1940 C.2   800  IMN800      0.3693
     20  N        -41.1200   44.3320   42.6240 N.ar  800  IMN800     -0.2785
     21  O        -44.8600   40.7490   45.2980 O.3   800  IMN800     -0.4714
     22  O1       -39.5460   45.7340   41.4390 O.2   800  IMN800     -0.2666
     23  O2       -40.9450   43.9180   47.3230 O.co2 800  IMN800     -0.2453
     24  O3       -43.0210   44.2460   48.1930 O.co2 800  IMN800     -0.2453
     25 CL        -39.5670   41.5990   37.1130 Cl    800  IMN800     -0.0822
@<TRIPOS>BOND
     1    25    14    1
     2    14    13   ar
     3    14    15   ar
     4    13    12   ar
     5    15    16   ar
     6    12    11   ar
     7    16    11   ar
     8    11    10    1
     9    22    10    2
    10    10    20   am
    11     6     1   ar
    12     6     5   ar
    13    20     1   ar
    14    20     9   ar
    15     1     2   ar
    16     5     4   ar
    17     9    17    1
    18     9     8   ar
    19     2     8   ar
    20     2     3   ar
    21     4     3   ar
    22     4    21    1
    23     8    18    1
    24     7    21    1
    25    18    19    1
    26    19    23   ar
    27    19    24   ar
