@<TRIPOS>MOLECULE
2zba_COA_A_1.pdb
 48 50 0 0 0
SMALL
GASTEIGER

@<TRIPOS>ATOM
      1  N1A       89.4990    5.3340   16.0050 N.2   462  COA462      0.0021
      2  C2A       89.2150    5.8040   14.7330 C.3   462  COA462      0.5254
      3  N3A       88.9450    7.1530   14.5480 N.2   462  COA462     -0.0055
      4  C4A       88.9620    8.0190   15.6020 C.2   462  COA462      0.3518
      5  C5A       89.2410    7.5530   16.8860 C.2   462  COA462      0.2526
      6  C6A       89.5120    6.1930   17.0870 C.2   462  COA462      0.4393
      7  N6A       89.6780    5.7080   18.3210 N.pl3 462  COA462      0.2180
      8  N7A       89.1850    8.6110   17.7280 N.2   462  COA462     -0.2095
      9  C8A       88.8770    9.7190   17.0110 C.3   462  COA462      0.3377
     10  N9A       88.7410    9.3710   15.6920 N.pl3 462  COA462     -0.1439
     11  C1B       88.5200   10.2890   14.5510 C.3   462  COA462      0.3185
     12  C2B       87.1000   10.8450   14.5370 C.3   462  COA462      0.2543
     13  O2B       86.2200    9.9750   13.8570 O.3   462  COA462     -0.2131
     14  C3B       87.3050   12.1870   13.8580 C.3   462  COA462      0.1928
     15  O3B       87.6200   11.9150   12.5180 O.3   462  COA462     -0.2673
     16  P3B       86.9820   12.6400   11.2270 P.3   462  COA462      0.5327
     17  O7A       86.9740   14.1310   11.4960 O.3   462  COA462     -0.1145
     18  O8A       85.5580   12.2020   11.0200 O.3   462  COA462     -0.1145
     19  O9A       87.9050   12.2760   10.1080 O.2   462  COA462     -0.2224
     20  C4B       88.6310   12.6270   14.4430 C.3   462  COA462      0.1795
     21  O4B       89.3720   11.4310   14.6170 O.3   462  COA462     -0.3136
     22  C5B       88.5690   13.3700   15.7680 C.3   462  COA462      0.1812
     23  O5B       89.9180   13.4860   16.2070 O.3   462  COA462     -0.3112
     24  P1A       90.4450   14.8140   16.9530 P.3   462  COA462      0.2189
     25  O1A       89.6520   15.0820   18.1930 O.3   462  COA462     -0.4371
     26  O2A       91.9380   14.7910   17.1790 O.2   462  COA462     -0.5170
     27  O3A       90.0630   16.0690   15.9870 O.3   462  COA462     -0.2703
     28  P2A       90.7580   16.4690   14.5860 P.3   462  COA462      0.2188
     29  O4A       89.6370   16.7690   13.6150 O.2   462  COA462     -0.5170
     30  O5A       91.7750   15.4860   14.0610 O.3   462  COA462     -0.4371
     31  O6A       91.5640   17.8220   14.8870 O.3   462  COA462     -0.3138
     32  CBP       93.3200   19.1280   15.8910 C.3   462  COA462      0.0645
     33  CCP       92.9120   17.7670   15.3310 C.3   462  COA462      0.1519
     34  CDP       93.6330   20.0190   14.6890 C.3   462  COA462      0.0056
     35  CEP       94.5600   18.9400   16.7810 C.3   462  COA462      0.0056
     36  CAP       92.1410   19.6970   16.6850 C.3   462  COA462      0.2312
     37  OAP       91.8280   18.8480   17.7800 O.3   462  COA462     -0.2131
     38  C9P       92.3320   21.1040   17.2030 C.2   462  COA462      0.2719
     39  O9P       93.0090   21.3020   18.4090 O.2   462  COA462     -0.2706
     40  N8P       91.8010   22.1240   16.5260 N.am  462  COA462     -0.2028
     41  C7P       91.9690   23.5000   16.9840 C.3   462  COA462      0.1248
     42  C6P       93.2970   24.1150   16.5400 C.3   462  COA462      0.1102
     43  C5P       93.3850   25.5520   17.0280 C.2   462  COA462      0.2432
     44  O5P       93.5880   25.8150   18.2390 O.2   462  COA462     -0.2733
     45  N4P       93.2420   26.5100   16.1200 N.am  462  COA462     -0.2044
     46  C3P       92.6460   27.7840   16.5140 C.3   462  COA462      0.1276
     47  C2P       93.5920   28.9650   16.3180 C.3   462  COA462      0.0920
     48  S1P       93.3550   30.3340   17.4930 S.3   462  COA462     -0.0802
@<TRIPOS>BOND
     1    19    16    2
     2    18    16    1
     3    16    17    1
     4    16    15    1
     5    15    14    1
     6    29    28    2
     7    13    12    1
     8    14    20    1
     9    14    12    1
    10    30    28    1
    11    20    21    1
    12    20    22    1
    13    12    11    1
    14     3     2    1
    15     3     4    2
    16    11    21    1
    17    11    10    1
    18    28    31    1
    19    28    27    1
    20    34    32    1
    21     2     1    1
    22    31    33    1
    23    33    32    1
    24     4    10    1
    25     4     5    1
    26    10     9    1
    27    22    23    1
    28    32    36    1
    29    32    35    1
    30    27    24    1
    31     1     6    2
    32    45    46    1
    33    45    43   am
    34    23    24    1
    35    47    46    1
    36    47    48    1
    37    40    41    1
    38    40    38   am
    39    42    41    1
    40    42    43    1
    41    36    38    1
    42    36    37    1
    43     5     6    1
    44     5     8    2
    45    24    26    2
    46    24    25    1
    47     9     8    1
    48    43    44    2
    49     6     7    1
    50    38    39    2
