@<TRIPOS>MOLECULE
2zba_ZBA_A_1.pdb
 30 33 0 0 0
SMALL
GASTEIGER

@<TRIPOS>ATOM
      1  O18      102.9240   33.9370   12.4350 O.2   463  ZBA463     -0.2501
      2  C44      102.6930   34.7750   13.2710 C.2   463  ZBA463      0.3172
      3  C45      103.6920   35.5550   14.0460 C.3   463  ZBA463      0.1096
      4  C46      103.3560   36.9740   14.2820 C.3   463  ZBA463      0.0111
      5  C48      103.1990   37.9450   13.2250 C.3   463  ZBA463      0.0006
      6  C47      103.1620   37.5710   15.6300 C.3   463  ZBA463      0.0006
      7  O17      101.4280   35.0720   13.5690 O.3   463  ZBA463     -0.4480
      8  C31      100.3200   34.2290   13.1270 C.3   463  ZBA463      0.1872
      9  C30      100.3430   32.8850   13.8370 C.3   463  ZBA463      0.0544
     10  C32       99.0860   35.0560   13.3030 C.2   463  ZBA463     -0.0065
     11  C39       99.0770   36.3390   12.5300 C.3   463  ZBA463      0.0297
     12  C33       98.0950   34.6450   14.0640 C.2   463  ZBA463     -0.0021
     13  C34       98.0740   33.3280   14.7590 C.3   463  ZBA463      0.1404
     14  O10       97.3900   32.3620   13.8750 O.3   463  ZBA463     -0.3491
     15  C29       99.4790   32.7290   15.1380 C.3   463  ZBA463      0.0778
     16  C38      100.0860   33.5710   16.2820 C.3   463  ZBA463      0.2112
     17  O12      101.5290   33.4530   16.2690 O.3   463  ZBA463     -0.4484
     18  C40      102.1660   33.7460   17.4010 C.2   463  ZBA463      0.3176
     19  C41      103.6470   33.6660   17.2290 C.3   463  ZBA463      0.1212
     20  O13      101.6600   34.0260   18.3960 O.2   463  ZBA463     -0.2501
     21  C28       99.3190   31.1900   15.5920 C.3   463  ZBA463      0.0642
     22  C37      100.6720   30.6100   16.0890 C.3   463  ZBA463      0.0053
     23  C35       98.7120   30.4240   14.4020 C.3   463  ZBA463      0.1497
     24  C25       97.3520   30.9850   14.2990 C.3   463  ZBA463      0.1754
     25  C36       99.4010   29.7050   13.3610 C.3   463  ZBA463      0.1717
     26  O11       98.7150   28.9940   14.4040 O.3   463  ZBA463     -0.3509
     27  C27       98.1150   31.0060   16.6230 C.3   463  ZBA463      0.1871
     28  C26       96.9280   30.6990   15.7240 C.3   463  ZBA463      0.2114
     29  O16       95.7530   31.3990   16.0440 O.3   463  ZBA463     -0.2177
     30  O14       98.2460   29.9400   17.6130 O.3   463  ZBA463     -0.2202
@<TRIPOS>BOND
     1     1     2    2
     2    11    10    1
     3     8    10    1
     4     8     7    1
     5     8     9    1
     6     5     4    1
     7     2     7    1
     8     2     3    1
     9    10    12    2
    10    25    23    1
    11    25    26    1
    12     9    15    1
    13    14    24    1
    14    14    13    1
    15     3     4    1
    16    12    13    1
    17     4     6    1
    18    24    23    1
    19    24    28    1
    20    23    26    1
    21    23    21    1
    22    13    15    1
    23    15    21    1
    24    15    16    1
    25    21    22    1
    26    21    27    1
    27    28    29    1
    28    28    27    1
    29    17    16    1
    30    17    18    1
    31    27    30    1
    32    19    18    1
    33    18    20    2
