@<TRIPOS>MOLECULE
2zbd_ADP_A_1.pdb
 27 29 0 0 0
SMALL
GASTEIGER

@<TRIPOS>ATOM
      1  PB        72.9340   30.2710   58.7910 P.3   1002  ADP1002     0.5373
      2  O1B       74.1000   29.3150   58.9250 O.3   1002  ADP1002    -0.1143
      3  O2B       72.9350   31.3400   59.8580 O.3   1002  ADP1002    -0.1143
      4  O3B       72.6790   30.7050   57.3750 O.2   1002  ADP1002    -0.2221
      5  PA        71.4330   27.9750   59.6820 P.3   1002  ADP1002     0.2231
      6  O1A       72.4140   27.1230   58.9200 O.2   1002  ADP1002    -0.5169
      7  O2A       69.9600   27.6340   59.6980 O.3   1002  ADP1002    -0.4370
      8  O3A       71.5510   29.5030   59.1480 O.3   1002  ADP1002    -0.2261
      9  O5'       71.9070   28.0830   61.2080 O.3   1002  ADP1002    -0.3111
     10  C5'       71.0900   28.7650   62.1600 C.3   1002  ADP1002     0.1813
     11  C4'       71.9220   29.3910   63.2760 C.3   1002  ADP1002     0.1821
     12  O4'       72.4620   28.3640   64.0990 O.3   1002  ADP1002    -0.3135
     13  C3'       73.1260   30.2060   62.8140 C.3   1002  ADP1002     0.2184
     14  O3'       72.7950   31.5760   62.6000 O.3   1002  ADP1002    -0.2174
     15  C2'       74.1020   30.0820   63.9530 C.3   1002  ADP1002     0.2570
     16  O2'       73.8510   31.1170   64.9040 O.3   1002  ADP1002    -0.2130
     17  C1'       73.7550   28.7330   64.5750 C.3   1002  ADP1002     0.3186
     18  N9        74.6960   27.6770   64.1400 N.pl3 1002  ADP1002    -0.1439
     19  C8        75.1460   27.4750   62.8820 C.3   1002  ADP1002     0.3377
     20  N7        75.9900   26.4150   62.8300 N.2   1002  ADP1002    -0.2095
     21  C5        76.0730   25.9180   64.0820 C.2   1002  ADP1002     0.2526
     22  C6        76.7790   24.7980   64.7330 C.2   1002  ADP1002     0.4393
     23  N6        77.5820   23.9910   64.0080 N.pl3 1002  ADP1002     0.2180
     24  N1        76.5980   24.6180   66.0590 N.2   1002  ADP1002     0.0021
     25  C2        75.7960   25.4190   66.7900 C.3   1002  ADP1002     0.5254
     26  N3        75.1250   26.4560   66.2590 N.2   1002  ADP1002    -0.0055
     27  C4        75.2220   26.7520   64.9410 C.2   1002  ADP1002     0.3518
@<TRIPOS>BOND
     1     4     1    2
     2     1     2    1
     3     1     8    1
     4     1     3    1
     5     6     5    2
     6     8     5    1
     7     5     7    1
     8     5     9    1
     9     9    10    1
    10    10    11    1
    11    14    13    1
    12    13    11    1
    13    13    15    1
    14    20    19    1
    15    20    21    2
    16    19    18    1
    17    11    12    1
    18    15    17    1
    19    15    16    1
    20    23    22    1
    21    21    22    1
    22    21    27    1
    23    12    17    1
    24    18    17    1
    25    18    27    1
    26    22    24    2
    27    27    26    2
    28    24    25    1
    29    26    25    1
