@<TRIPOS>MOLECULE
2zbf_TG1_A_1.pdb
 46 48 0 0 0
SMALL
GASTEIGER

@<TRIPOS>ATOM
      1  C34       35.1690   88.4470   11.7440 C.3   1003  TG11003     0.0474
      2  C11       35.5930   88.1240   10.2700 C.3   1003  TG11003     0.2470
      3  C7        34.9280   89.0310    9.1620 C.3   1003  TG11003     0.2380
      4  C8        35.5310   90.4960    9.0300 C.3   1003  TG11003     0.2067
      5  C9        34.7870   91.4470    8.0690 C.3   1003  TG11003     0.0869
      6  C10       34.6820   91.1030    6.5210 C.3   1003  TG11003     0.1465
      7  C1        33.8630   89.7120    6.2420 C.3   1003  TG11003     0.1022
      8  C2        33.3400   89.5280    4.7590 C.3   1003  TG11003     0.2195
      9  O1        31.9030   89.2990    4.7550 O.3   1003  TG11003    -0.4477
     10  C13       30.9760   90.0200    4.0060 C.2   1003  TG11003     0.3170
     11  O2        31.2030   91.0580    3.3960 O.2   1003  TG11003    -0.2501
     12  C14       29.5840   89.3300    4.0880 C.3   1003  TG11003     0.1096
     13  C15       29.3400   87.9170    3.5010 C.3   1003  TG11003     0.0116
     14  C16       29.3240   87.7350    1.9610 C.3   1003  TG11003     0.0006
     15  C17       28.6610   86.4030    1.5170 C.3   1003  TG11003     0.0000
     16  C18       28.2840   86.3910    0.0150 C.3   1003  TG11003     0.0000
     17  C19       27.6290   85.0900   -0.5350 C.3   1003  TG11003     0.0000
     18  C20       27.1830   85.1760   -1.9970 C.3   1003  TG11003     0.0000
     19  C3        33.9620   88.2320    4.2300 C.3   1003  TG11003     0.2271
     20  O3        34.9240   88.6800    3.2860 O.3   1003  TG11003    -0.4414
     21  C21       34.7280   88.2980    2.0180 C.2   1003  TG11003     0.3372
     22  O4        33.8160   87.4210    1.5450 O.2   1003  TG11003    -0.2453
     23  C22       35.4670   89.2250    1.0400 C.2   1003  TG11003     0.0495
     24  C23       34.4840   89.8600    0.0710 C.3   1003  TG11003     0.0375
     25  C24       36.7670   89.5350    0.9550 C.2   1003  TG11003    -0.0236
     26  C25       37.9460   89.0670    1.8050 C.3   1003  TG11003     0.0306
     27  C4        34.6390   87.5840    5.4470 C.2   1003  TG11003    -0.0052
     28  C26       35.3070   86.2350    5.3010 C.3   1003  TG11003     0.0296
     29  C5        34.5620   88.3610    6.5520 C.2   1003  TG11003     0.0000
     30  C6        35.1670   88.0800    7.9400 C.3   1003  TG11003     0.2211
     31  O5        34.7840   86.8100    8.4960 O.3   1003  TG11003    -0.4435
     32  C12       35.1950   86.7500    9.7850 C.2   1003  TG11003     0.3477
     33  O12       35.2370   85.7280   10.4710 O.2   1003  TG11003    -0.2473
     34  C31       36.0580   91.0960    5.7540 C.3   1003  TG11003     0.0443
     35  O9        33.9580   92.2170    5.8090 O.3   1003  TG11003    -0.4552
     36  C32       33.9040   93.5660    5.9230 C.2   1003  TG11003     0.3173
     37  O10       34.5470   94.2410    6.7110 O.2   1003  TG11003    -0.2501
     38  C33       32.9160   94.1680    4.9720 C.3   1003  TG11003     0.1212
     39  O7        36.9810   90.4170    8.7180 O.3   1003  TG11003    -0.4493
     40  C27       37.9340   90.6840    9.6770 C.2   1003  TG11003     0.3169
     41  O8        37.6980   91.0790   10.8110 O.2   1003  TG11003    -0.2501
     42  C28       39.3210   90.3110    9.1590 C.3   1003  TG11003     0.1096
     43  C29       40.0830   89.3190   10.0660 C.3   1003  TG11003     0.0116
     44  C30       41.6000   89.4620    9.9120 C.3   1003  TG11003     0.0006
     45  O6        33.4710   89.0960    9.4000 O.3   1003  TG11003    -0.2147
     46  O11       37.0130   87.9990   10.2520 O.3   1003  TG11003    -0.2114
@<TRIPOS>BOND
     1    18    17    1
     2    17    16    1
     3    16    15    1
     4    24    23    1
     5    25    23    2
     6    25    26    1
     7    23    21    1
     8    15    14    1
     9    22    21    2
    10    14    13    1
    11    21    20    1
    12    20    19    1
    13    11    10    2
    14    13    12    1
    15    10    12    1
    16    10     9    1
    17    19     8    1
    18    19    27    1
    19     9     8    1
    20     8     7    1
    21    38    36    1
    22    28    27    1
    23    27    29    2
    24    34     6    1
    25    35    36    1
    26    35     6    1
    27    36    37    2
    28     7     6    1
    29     7    29    1
    30     6     5    1
    31    29    30    1
    32    30    31    1
    33    30     3    1
    34     5     4    1
    35    31    32    1
    36    39     4    1
    37    39    40    1
    38     4     3    1
    39    42    40    1
    40    42    43    1
    41     3    45    1
    42     3     2    1
    43    40    41    2
    44    32     2    1
    45    32    33    2
    46    44    43    1
    47    46     2    1
    48     2     1    1
