@<TRIPOS>MOLECULE
2zbg_TG1_A_1.pdb
 46 48 0 0 0
SMALL
GASTEIGER

@<TRIPOS>ATOM
      1  C34       -3.6420   61.0100   85.1260 C.3   1003  TG11003     0.0474
      2  C11       -2.7610   61.1120   83.8270 C.3   1003  TG11003     0.2470
      3  C7        -3.5040   61.7190   82.5670 C.3   1003  TG11003     0.2380
      4  C8        -3.5570   63.3440   82.5140 C.3   1003  TG11003     0.2067
      5  C9        -4.2890   64.0270   81.3300 C.3   1003  TG11003     0.0869
      6  C10       -3.8940   63.6770   79.8280 C.3   1003  TG11003     0.1465
      7  C1        -4.1570   62.0550   79.4160 C.3   1003  TG11003     0.1022
      8  C2        -4.2970   61.7330   77.8760 C.3   1003  TG11003     0.2195
      9  O1        -5.5090   60.9560   77.6400 O.3   1003  TG11003    -0.4477
     10  C13       -6.5440   61.3960   76.8150 C.2   1003  TG11003     0.3170
     11  O2        -6.6700   62.5250   76.3560 O.2   1003  TG11003    -0.2501
     12  C14       -7.5260   60.2530   76.5300 C.3   1003  TG11003     0.1096
     13  C15       -7.3440   59.5600   75.1730 C.3   1003  TG11003     0.0116
     14  C16       -7.5800   60.3970   73.8960 C.3   1003  TG11003     0.0006
     15  C17       -6.4690   60.1910   72.8510 C.3   1003  TG11003     0.0000
     16  C18       -7.0210   60.0210   71.4240 C.3   1003  TG11003     0.0000
     17  C19       -5.9610   59.6500   70.3640 C.3   1003  TG11003     0.0000
     18  C20       -5.7180   60.7550   69.3360 C.3   1003  TG11003     0.0000
     19  C3        -3.1150   60.7880   77.5040 C.3   1003  TG11003     0.2271
     20  O3        -2.2030   61.6740   76.7220 O.3   1003  TG11003    -0.4414
     21  C21       -1.7500   61.2630   75.5190 C.2   1003  TG11003     0.3372
     22  O4        -1.8130   60.0540   74.9600 O.2   1003  TG11003    -0.2453
     23  C22       -1.4410   62.4950   74.6160 C.2   1003  TG11003     0.0495
     24  C23       -2.7070   62.9110   73.8980 C.3   1003  TG11003     0.0375
     25  C24       -0.3410   63.2140   74.3720 C.2   1003  TG11003    -0.0236
     26  C25        1.0670   63.0820   74.9230 C.3   1003  TG11003     0.0306
     27  C4        -2.5000   60.3980   78.8660 C.2   1003  TG11003    -0.0052
     28  C26       -1.3550   59.3950   78.9070 C.3   1003  TG11003     0.0296
     29  C5        -3.0710   61.0560   79.9030 C.2   1003  TG11003     0.0000
     30  C6        -2.6730   60.9980   81.4220 C.3   1003  TG11003     0.2211
     31  O5        -2.5450   59.6670   81.9570 O.3   1003  TG11003    -0.4435
     32  C12       -2.3070   59.7530   83.2870 C.2   1003  TG11003     0.3477
     33  O12       -1.7890   58.8670   83.9700 O.2   1003  TG11003    -0.2473
     34  C31       -2.4680   64.1720   79.4530 C.3   1003  TG11003     0.0443
     35  O9        -4.5770   64.7070   78.9800 O.3   1003  TG11003    -0.4552
     36  C32       -5.8610   65.0400   78.7150 C.2   1003  TG11003     0.3173
     37  O10       -6.8480   64.3850   79.0080 O.2   1003  TG11003    -0.2501
     38  C33       -5.9300   66.3080   77.9810 C.3   1003  TG11003     0.1212
     39  O7        -2.2030   63.8990   82.6180 O.3   1003  TG11003    -0.4493
     40  C27       -1.8070   64.6600   83.6990 C.2   1003  TG11003     0.3169
     41  O8        -2.4810   64.9380   84.6830 O.2   1003  TG11003    -0.2501
     42  C28       -0.3730   65.1230   83.4670 C.3   1003  TG11003     0.1096
     43  C29        0.7160   64.2690   84.1380 C.3   1003  TG11003     0.0116
     44  C30        2.0730   64.8740   83.7940 C.3   1003  TG11003     0.0006
     45  O6        -4.8850   61.1800   82.5250 O.3   1003  TG11003    -0.2147
     46  O11       -1.4980   61.6800   84.2170 O.3   1003  TG11003    -0.2114
@<TRIPOS>BOND
     1    18    17    1
     2    17    16    1
     3    16    15    1
     4    15    14    1
     5    14    13    1
     6    24    23    1
     7    25    23    2
     8    25    26    1
     9    23    21    1
    10    22    21    2
    11    13    12    1
    12    21    20    1
    13    11    10    2
    14    12    10    1
    15    20    19    1
    16    10     9    1
    17    19     8    1
    18    19    27    1
    19     9     8    1
    20     8     7    1
    21    38    36    1
    22    36    35    1
    23    36    37    2
    24    27    28    1
    25    27    29    2
    26    35     6    1
    27     7     6    1
    28     7    29    1
    29    34     6    1
    30     6     5    1
    31    29    30    1
    32     5     4    1
    33    30    31    1
    34    30     3    1
    35    31    32    1
    36     4     3    1
    37     4    39    1
    38    45     3    1
    39     3     2    1
    40    39    40    1
    41    32     2    1
    42    32    33    2
    43    42    40    1
    44    42    43    1
    45    40    41    2
    46    44    43    1
    47     2    46    1
    48     2     1    1
