@<TRIPOS>MOLECULE
2zbh_BVL_A_1.pdb
 25 26 0 0 0
SMALL
GASTEIGER

@<TRIPOS>ATOM
      1  C2        21.1320    4.4020    9.2670 C.ar  134  BVL134      0.0033
      2  C4        23.0260    5.8160    9.7050 C.ar  134  BVL134      0.1957
      3  C5        22.5070    6.1320   10.9510 C.ar  134  BVL134      0.0420
      4  C6        21.2890    5.5740   11.3490 C.ar  134  BVL134      0.0033
      5  O24       16.6240    4.5770   13.5410 O.2   134  BVL134     -0.2865
      6  C9        16.9770    4.5300   12.3630 C.2   134  BVL134      0.1987
      7  C8        18.5500    4.7490   12.3740 C.2   134  BVL134      0.0421
      8  C7        19.2010    4.6620   11.2070 C.2   134  BVL134      0.0033
      9  C1        20.5870    4.7040   10.5140 C.ar  134  BVL134      0.0003
     10  C3        22.3460    4.9500    8.8610 C.ar  134  BVL134      0.0420
     11  O25       24.2160    6.3660    9.2960 O.3   134  BVL134     -0.2866
     12  C10       15.7480    4.4390   11.3770 C.ar  134  BVL134      0.0777
     13  C11       15.8280    4.5030    9.9210 C.ar  134  BVL134      0.2017
     14  O23       16.9230    4.6280    9.1690 O.3   134  BVL134     -0.2864
     15  C12       14.6320    4.4670    9.2400 C.ar  134  BVL134      0.0787
     16  C13       13.3230    4.4030    9.7640 C.ar  134  BVL134      0.1382
     17  O21       12.4830    4.3340    8.6690 O.3   134  BVL134     -0.4716
     18  C22       11.1880    4.1460    8.0880 C.3   134  BVL134      0.2525
     19  C14       13.0170    4.2300   11.1780 C.ar  134  BVL134      0.0164
     20  C15       14.2990    4.2540   11.9390 C.ar  134  BVL134      0.0054
     21  C16       11.4530    4.1170   11.2620 C.3   134  BVL134      0.0547
     22  C17       10.9630    3.6660   12.5480 C.2   134  BVL134     -0.0298
     23  C18        9.7040    3.5110   13.0260 C.2   134  BVL134     -0.0475
     24  C20        8.3150    3.8390   12.5180 C.3   134  BVL134      0.0260
     25  C19        9.9480    2.8800   14.3330 C.3   134  BVL134      0.0260
@<TRIPOS>BOND
     1    18    17    1
     2    17    16    1
     3    10     1   ar
     4    10     2   ar
     5    14    13    1
     6    15    16   ar
     7    15    13   ar
     8     1     9   ar
     9    11     2    1
    10     2     3   ar
    11    16    19   ar
    12    13    12   ar
    13     9     8    1
    14     9     4   ar
    15     3     4   ar
    16    19    21    1
    17    19    20   ar
    18     8     7    2
    19    21    22    1
    20    12    20   ar
    21    12     6    1
    22     6     7    1
    23     6     5    2
    24    24    23    1
    25    22    23    2
    26    23    25    1
