@<TRIPOS>MOLECULE
2zbk_RDC_B_1.pdb
 25 27 0 0 0
SMALL
GASTEIGER

@<TRIPOS>ATOM
      1  C1       -61.9170   83.8600  -11.6370 C.2   531  RDC531      0.3440
      2  C2       -61.3450   82.5000  -11.8850 C.ar  531  RDC531      0.1119
      3  C3       -61.8130   81.3490  -11.0760 C.ar  531  RDC531      0.2048
      4  C4       -61.3060   80.0740  -11.2810 C.ar  531  RDC531      0.0851
      5  C5       -60.3400   79.8190  -12.2390 C.ar  531  RDC531      0.2090
      6  C6       -59.8030   80.9020  -13.1020 C.ar  531  RDC531      0.0933
      7  C7       -60.3100   82.2880  -12.9200 C.ar  531  RDC531      0.0086
      8  C8       -59.8450   83.4590  -13.7550 C.3   531  RDC531      0.0966
      9  C9       -58.3580   83.4740  -13.9770 C.2   531  RDC531      0.1775
     10  C10      -57.4850   84.2580  -13.0900 C.2   531  RDC531      0.0378
     11  C11      -57.8260   84.6240  -11.8520 C.2   531  RDC531      0.0027
     12  C12      -56.8440   85.4060  -11.0920 C.2   531  RDC531     -0.0020
     13  C13      -57.1310   86.1380  -10.0120 C.2   531  RDC531      0.0053
     14  C14      -58.5220   86.2300   -9.4320 C.3   531  RDC531      0.1643
     15  C15      -59.4510   87.0280  -10.3380 C.3   531  RDC531      0.1504
     16  C16      -60.9090   86.7220  -10.0080 C.3   531  RDC531      0.0760
     17  C17      -61.7000   86.1940  -11.1990 C.3   531  RDC531      0.1718
     18  C18      -61.8330   87.2710  -12.2670 C.3   531  RDC531      0.0474
     19  O1       -61.0700   85.0360  -11.7510 O.3   531  RDC531     -0.4491
     20  O2       -63.0940   83.9980  -11.3290 O.2   531  RDC531     -0.2448
     21  O3       -62.7560   81.5510  -10.1190 O.3   531  RDC531     -0.2862
     22  O4       -59.8880   78.5440  -12.3830 O.3   531  RDC531     -0.2856
     23 CL1       -58.7560   80.5650  -14.1280 Cl    531  RDC531     -0.0792
     24  O5       -57.8600   82.8610  -14.9040 O.2   531  RDC531     -0.2910
     25  O6       -58.8320   87.5970   -9.1870 O.3   531  RDC531     -0.3489
@<TRIPOS>BOND
     1    24     9    2
     2    23     6    1
     3     9     8    1
     4     9    10    1
     5     8     7    1
     6     6     7   ar
     7     6     5   ar
     8    10    11    2
     9     7     2   ar
    10    22     5    1
    11    18    17    1
    12     5     4   ar
    13     2     1    1
    14     2     3   ar
    15    11    12    1
    16    19     1    1
    17    19    17    1
    18     1    20    2
    19     4     3   ar
    20    17    16    1
    21    12    13    2
    22     3    21    1
    23    15    16    1
    24    15    14    1
    25    15    25    1
    26    13    14    1
    27    14    25    1
