@<TRIPOS>MOLECULE
2zbl_BMA_A_1.pdb
 12 12 0 0 0
SMALL
GASTEIGER

@<TRIPOS>ATOM
      1  C1       -21.2870  -24.1260   21.9430 C.3   501  BMA501      0.3024
      2  C2       -21.3620  -25.3880   22.7980 C.3   501  BMA501      0.2434
      3  C3       -22.8370  -25.7660   23.0170 C.3   501  BMA501      0.2199
      4  C4       -23.6170  -24.5980   23.6170 C.3   501  BMA501      0.2144
      5  C5       -23.3640  -23.3280   22.7820 C.3   501  BMA501      0.1836
      6  C6       -24.0470  -22.1030   23.3780 C.3   501  BMA501      0.2142
      7  O1       -19.9550  -23.7230   21.7220 O.3   501  BMA501     -0.1869
      8  O2       -20.7360  -25.1590   24.0480 O.3   501  BMA501     -0.2148
      9  O3       -22.9630  -26.9040   23.8480 O.3   501  BMA501     -0.2174
     10  O4       -24.9900  -24.9260   23.6280 O.3   501  BMA501     -0.2176
     11  O5       -21.9680  -23.0950   22.6320 O.3   501  BMA501     -0.3236
     12  O6       -23.7510  -20.9620   22.5930 O.3   501  BMA501     -0.2176
@<TRIPOS>BOND
     1     7     1    1
     2     1    11    1
     3     1     2    1
     4    12     6    1
     5    11     5    1
     6     5     6    1
     7     5     4    1
     8     2     3    1
     9     2     8    1
    10     3     4    1
    11     3     9    1
    12     4    10    1
