@<TRIPOS>MOLECULE
2zbo_HEM_A_1.pdb
 43 50 0 0 0
SMALL
GASTEIGER

@<TRIPOS>ATOM
      1 FE         55.8950   -2.1650   30.8820 Fe    111  HEM111      0.0000
      2  CHA       59.0020   -2.6280   29.5700 C.2   111  HEM111      0.0000
      3  CHB       57.0440    0.4900   32.6640 C.2   111  HEM111      0.0000
      4  CHC       52.6750   -1.4080   31.7660 C.2   111  HEM111      0.0000
      5  CHD       54.8230   -5.0950   29.4770 C.2   111  HEM111      0.0000
      6  NA        57.6940   -1.2490   31.0680 N.2   111  HEM111      0.0000
      7  C1A       58.8780   -1.6250   30.4930 C.2   111  HEM111      0.0000
      8  C2A       59.9470   -0.7520   30.9560 C.2   111  HEM111      0.0000
      9  C3A       59.3700    0.1140   31.8110 C.2   111  HEM111      0.0000
     10  C4A       57.9590   -0.1770   31.8940 C.2   111  HEM111      0.0000
     11  CMA       60.0280    1.2630   32.6130 C.3   111  HEM111      0.0000
     12  CAA       61.4320   -0.8750   30.5250 C.3   111  HEM111      0.0000
     13  CBA       62.0770   -2.0390   31.2970 C.3   111  HEM111      0.0000
     14  CGA       63.4690   -2.3760   30.8440 C.2   111  HEM111      0.0000
     15  O1A       63.8480   -2.0590   29.6850 O.co2 111  HEM111      0.0000
     16  O2A       64.2240   -3.0110   31.6290 O.co2 111  HEM111      0.0000
     17  NB        55.0160   -0.7180   31.9770 N.ar  111  HEM111      0.0000
     18  C1B       55.6790    0.2740   32.6750 C.ar  111  HEM111      0.0000
     19  C2B       54.6970    1.0360   33.4200 C.ar  111  HEM111      0.0000
     20  C3B       53.4800    0.5330   33.1780 C.ar  111  HEM111      0.0000
     21  C4B       53.6620   -0.5860   32.2750 C.ar  111  HEM111      0.0000
     22  CMB       55.0400    2.2460   34.3250 C.3   111  HEM111      0.0000
     23  CAB       52.1250    1.0560   33.7560 C.3   111  HEM111      0.0000
     24  CBB       51.6920    2.2270   33.1800 C.3   111  HEM111      0.0000
     25  NC        54.0840   -3.0680   30.6040 N.2   111  HEM111      0.0000
     26  C1C       52.9000   -2.6320   31.1660 C.2   111  HEM111      0.0000
     27  C2C       51.9250   -3.7050   31.0590 C.2   111  HEM111      0.0000
     28  C3C       52.5100   -4.7480   30.4440 C.2   111  HEM111      0.0000
     29  C4C       53.8700   -4.3490   30.1230 C.2   111  HEM111      0.0000
     30  CMC       50.4850   -3.6220   31.6090 C.3   111  HEM111      0.0000
     31  CAC       51.8620   -6.1450   30.1750 C.2   111  HEM111      0.0000
     32  CBC       50.8140   -6.2540   29.3190 C.2   111  HEM111      0.0000
     33  ND        56.7620   -3.6210   29.7370 N.ar  111  HEM111      0.0000
     34  C1D       56.0950   -4.7050   29.1620 C.ar  111  HEM111      0.0000
     35  C2D       56.9590   -5.3330   28.1760 C.ar  111  HEM111      0.0000
     36  C3D       58.2500   -4.5560   28.2110 C.ar  111  HEM111      0.0000
     37  C4D       58.0420   -3.5340   29.2080 C.ar  111  HEM111      0.0000
     38  CMD       56.6530   -6.5490   27.2770 C.3   111  HEM111      0.0000
     39  CAD       59.4840   -4.8130   27.3370 C.3   111  HEM111      0.0000
     40  CBD       59.2840   -4.0740   25.9990 C.3   111  HEM111      0.0000
     41  CGD       60.4890   -4.3380   25.1160 C.2   111  HEM111      0.0000
     42  O1D       61.5470   -3.6730   25.2880 O.co2 111  HEM111      0.0000
     43  O2D       60.4120   -5.2400   24.2510 O.co2 111  HEM111      0.0000
@<TRIPOS>BOND
     1    43    41   ar
     2    41    42   ar
     3    41    40    1
     4    40    39    1
     5    38    35    1
     6    39    36    1
     7    35    36   ar
     8    35    34   ar
     9    36    37   ar
    10    34     5    2
    11    34    33   ar
    12    37     2    2
    13    37    33   ar
    14    32    31    2
    15     5    29    1
    16     2     7    1
    17    15    14   ar
    18    33     1    1
    19    29    28    1
    20    29    25    2
    21    31    28    1
    22    28    27    2
    23     7     8    1
    24     7     6    2
    25    12     8    1
    26    12    13    1
    27    25     1    1
    28    25    26    1
    29    14    13    1
    30    14    16   ar
    31     1     6    1
    32     1    17    1
    33     8     9    2
    34    27    26    1
    35    27    30    1
    36     6    10    1
    37    26     4    2
    38     4    21    1
    39     9    10    1
    40     9    11    1
    41    10     3    2
    42    17    21   ar
    43    17    18   ar
    44    21    20   ar
    45     3    18    1
    46    18    19   ar
    47    20    19   ar
    48    20    23    1
    49    24    23    1
    50    19    22    1
