@<TRIPOS>MOLECULE
2zbp_SAM_A_1.pdb
 27 29 0 0 0
SMALL
GASTEIGER

@<TRIPOS>ATOM
      1  N         29.5650   45.8400   15.3480 N.3   300  SAM300     -0.1208
      2  CA        29.0750   44.4250   15.4110 C.3   300  SAM300      0.1952
      3  C         29.0190   43.7980   14.0310 C.2   300  SAM300      0.3819
      4  O         29.3420   44.4660   13.0400 O.co2 300  SAM300     -0.2441
      5  OXT       28.6160   42.5930   14.0210 O.co2 300  SAM300     -0.2441
      6  CB        27.6570   44.3200   15.9840 C.3   300  SAM300      0.0414
      7  CG        27.0290   45.6230   16.2650 C.3   300  SAM300      0.0503
      8  SD        25.3170   45.6120   16.8860 S.3   300  SAM300     -0.1761
      9  CE        24.3650   45.1610   15.4210 C.3   300  SAM300      0.0590
     10  C5'       25.0310   47.2980   17.1110 C.3   300  SAM300      0.0806
     11  C4'       25.7130   47.8780   18.3360 C.3   300  SAM300      0.1622
     12  O4'       25.4300   49.2770   18.3050 O.3   300  SAM300     -0.3153
     13  C3'       25.0690   47.3750   19.6360 C.3   300  SAM300      0.2168
     14  O3'       26.1400   46.6710   20.3320 O.3   300  SAM300     -0.2175
     15  C2'       24.6570   48.6090   20.4400 C.3   300  SAM300      0.2569
     16  O2'       24.9440   48.7010   21.8210 O.3   300  SAM300     -0.2130
     17  C1'       25.1820   49.7790   19.5680 C.3   300  SAM300      0.3185
     18  N9        24.2920   50.8940   19.3440 N.pl3 300  SAM300     -0.1439
     19  C8        22.9230   50.9480   19.2010 C.3   300  SAM300      0.3377
     20  N7        22.4670   52.1580   18.9830 N.2   300  SAM300     -0.2095
     21  C5        23.6210   52.9520   18.9820 C.2   300  SAM300      0.2526
     22  C6        23.8450   54.3540   18.7980 C.2   300  SAM300      0.4393
     23  N6        22.8380   55.2160   18.5680 N.pl3 300  SAM300      0.2180
     24  N1        25.1360   54.8420   18.8550 N.2   300  SAM300      0.0021
     25  C2        26.1470   53.9610   19.0870 C.3   300  SAM300      0.5254
     26  N3        26.0530   52.6260   19.2730 N.2   300  SAM300     -0.0055
     27  C4        24.7490   52.1810   19.2080 C.2   300  SAM300      0.3518
@<TRIPOS>BOND
     1     4     3   ar
     2     5     3   ar
     3     3     2    1
     4     1     2    1
     5     2     6    1
     6     9     8    1
     7     6     7    1
     8     7     8    1
     9     8    10    1
    10    10    11    1
    11    12    11    1
    12    12    17    1
    13    11    13    1
    14    23    22    1
    15    22    24    2
    16    22    21    1
    17    24    25    1
    18    21    20    2
    19    21    27    1
    20    20    19    1
    21    25    26    1
    22    19    18    1
    23    27    26    2
    24    27    18    1
    25    18    17    1
    26    17    15    1
    27    13    14    1
    28    13    15    1
    29    15    16    1
