@<TRIPOS>MOLECULE
2zbq_SAH_A_1.pdb
 26 28 0 0 0
SMALL
GASTEIGER

@<TRIPOS>ATOM
      1  N         30.0320   45.8510   15.0850 N.3   300  SAH300     -0.1208
      2  CA        29.3140   44.5010   15.2140 C.3   300  SAH300      0.1952
      3  CB        27.9090   44.4890   15.7060 C.3   300  SAH300      0.0422
      4  CG        27.4380   45.0260   17.0110 C.3   300  SAH300      0.0597
      5  SD        25.5890   45.0420   16.7740 S.3   300  SAH300     -0.1375
      6  C         29.2270   43.8380   13.8180 C.2   300  SAH300      0.3819
      7  O         29.6630   44.4100   12.8380 O.co2 300  SAH300     -0.2441
      8  OXT       28.6610   42.7020   13.7960 O.co2 300  SAH300     -0.2441
      9  C5'       25.1330   46.7100   16.9870 C.3   300  SAH300      0.0899
     10  C4'       25.8790   47.4270   18.2280 C.3   300  SAH300      0.1630
     11  O4'       25.2800   48.6830   18.1400 O.3   300  SAH300     -0.3153
     12  C3'       25.5320   46.9490   19.6180 C.3   300  SAH300      0.2168
     13  O3'       26.6960   46.5010   20.2950 O.3   300  SAH300     -0.2175
     14  C2'       24.8050   48.2200   20.2800 C.3   300  SAH300      0.2569
     15  O2'       25.0770   48.3300   21.6750 O.3   300  SAH300     -0.2130
     16  C1'       25.3410   49.3810   19.4260 C.3   300  SAH300      0.3185
     17  N9        24.5960   50.4810   19.2010 N.pl3 300  SAH300     -0.1439
     18  C8        23.2350   50.6840   18.9560 C.3   300  SAH300      0.3377
     19  N7        22.8870   51.9150   18.7510 N.2   300  SAH300     -0.2095
     20  C5        24.1080   52.6460   18.8560 C.2   300  SAH300      0.2526
     21  C6        24.3940   54.0560   18.7120 C.2   300  SAH300      0.4393
     22  N6        23.4680   54.9900   18.4290 N.pl3 300  SAH300      0.2180
     23  N1        25.7220   54.3920   18.8890 N.2   300  SAH300      0.0021
     24  C2        26.7020   53.4790   19.1720 C.3   300  SAH300      0.5254
     25  N3        26.4710   52.1270   19.3090 N.2   300  SAH300     -0.0055
     26  C4        25.1600   51.7850   19.1390 C.2   300  SAH300      0.3518
@<TRIPOS>BOND
     1     7     6   ar
     2     8     6   ar
     3     6     2    1
     4     1     2    1
     5     2     3    1
     6     3     4    1
     7     5     9    1
     8     5     4    1
     9     9    10    1
    10    11    10    1
    11    11    16    1
    12    10    12    1
    13    22    21    1
    14    21    20    1
    15    21    23    2
    16    19    20    2
    17    19    18    1
    18    20    26    1
    19    23    24    1
    20    18    17    1
    21    26    17    1
    22    26    25    2
    23    24    25    1
    24    17    16    1
    25    16    14    1
    26    12    14    1
    27    12    13    1
    28    14    15    1
