@<TRIPOS>MOLECULE
2zbr_SFG_A_1.pdb
 27 29 0 0 0
SMALL
GASTEIGER

@<TRIPOS>ATOM
      1  N         29.4650   46.0720   15.0050 N.3   300  SFG300     -0.1208
      2  CA        29.0800   44.7480   15.5120 C.3   300  SFG300      0.1944
      3  C         28.7570   43.8210   14.3370 C.2   300  SFG300      0.3819
      4  O         28.7740   44.2270   13.1750 O.co2 300  SFG300     -0.2441
      5  OXT       28.4770   42.6430   14.5520 O.co2 300  SFG300     -0.2441
      6  CB        27.8860   44.8560   16.4690 C.3   300  SFG300      0.0321
      7  CG        26.7280   45.6800   15.8950 C.3   300  SFG300      0.0212
      8  CD        25.4570   45.5930   16.7460 C.3   300  SFG300      0.0944
      9  NE        24.4460   44.8420   15.9870 N.3   300  SFG300     -0.1328
     10  C5'       24.8970   46.9930   17.0120 C.3   300  SFG300      0.0514
     11  C4'       25.5700   47.6910   18.2010 C.3   300  SFG300      0.1537
     12  O4'       25.2510   49.0910   18.1110 O.3   300  SFG300     -0.3161
     13  C3'       25.0650   47.2170   19.5700 C.3   300  SFG300      0.2159
     14  O3'       26.1650   46.8550   20.4070 O.3   300  SFG300     -0.2175
     15  C2'       24.3280   48.4390   20.1280 C.3   300  SFG300      0.2569
     16  O2'       24.5130   48.5490   21.5430 O.3   300  SFG300     -0.2130
     17  C1'       25.1060   49.5700   19.4560 C.3   300  SFG300      0.3185
     18  N9        24.3310   50.8270   19.3480 N.pl3 300  SFG300     -0.1439
     19  C8        23.0360   50.9240   19.0440 C.3   300  SFG300      0.3377
     20  N7        22.7360   52.1920   18.7680 N.2   300  SFG300     -0.2095
     21  C5        23.8470   52.9070   18.9150 C.2   300  SFG300      0.2526
     22  C6        24.1460   54.2540   18.7500 C.2   300  SFG300      0.4393
     23  N6        23.1880   55.1260   18.4430 N.pl3 300  SFG300      0.2180
     24  N1        25.4640   54.6770   18.9700 N.2   300  SFG300      0.0021
     25  C2        26.4380   53.7480   19.3580 C.3   300  SFG300      0.5254
     26  N3        26.1180   52.4750   19.5130 N.2   300  SFG300     -0.0055
     27  C4        24.8660   52.0420   19.2980 C.2   300  SFG300      0.3518
@<TRIPOS>BOND
     1     4     3   ar
     2     3     5   ar
     3     3     2    1
     4     1     2    1
     5     2     6    1
     6     7     6    1
     7     7     8    1
     8     9     8    1
     9     8    10    1
    10    10    11    1
    11    12    11    1
    12    12    17    1
    13    11    13    1
    14    23    22    1
    15    22    21    1
    16    22    24    2
    17    20    21    2
    18    20    19    1
    19    21    27    1
    20    24    25    1
    21    19    18    1
    22    27    18    1
    23    27    26    2
    24    18    17    1
    25    25    26    1
    26    17    15    1
    27    13    15    1
    28    13    14    1
    29    15    16    1
