@<TRIPOS>MOLECULE
2zbu_ADN_A_1.pdb
 19 21 0 0 0
SMALL
GASTEIGER

@<TRIPOS>ATOM
      1  O5'       74.8080  -22.5940   44.9750 O.3   501  ADN501     -0.2176
      2  C5'       74.2590  -23.7830   45.5170 C.3   501  ADN501      0.2143
      3  C4'       75.1220  -24.2310   46.6920 C.3   501  ADN501      0.1851
      4  O4'       75.1630  -23.2540   47.7580 O.3   501  ADN501     -0.3134
      5  C3'       74.6180  -25.5410   47.3320 C.3   501  ADN501      0.2186
      6  O3'       75.2230  -26.6530   46.6930 O.3   501  ADN501     -0.2174
      7  C2'       74.9930  -25.3840   48.8240 C.3   501  ADN501      0.2570
      8  O2'       75.9180  -26.4020   49.2400 O.3   501  ADN501     -0.2130
      9  C1'       75.5990  -23.9770   48.9410 C.3   501  ADN501      0.3186
     10  N9        75.1200  -23.3060   50.1690 N.pl3 501  ADN501     -0.1439
     11  C8        73.8220  -22.9190   50.4400 C.3   501  ADN501      0.3377
     12  N7        73.7470  -22.3590   51.6160 N.2   501  ADN501     -0.2095
     13  C5        74.9840  -22.3460   52.1790 C.2   501  ADN501      0.2526
     14  C6        75.5310  -21.8820   53.4160 C.2   501  ADN501      0.4393
     15  N6        74.7250  -21.2850   54.3600 N.pl3 501  ADN501      0.2180
     16  N1        76.8520  -22.0410   53.6460 N.2   501  ADN501      0.0021
     17  C2        77.6580  -22.6220   52.7430 C.3   501  ADN501      0.5254
     18  N3        77.1900  -23.0710   51.5730 N.2   501  ADN501     -0.0055
     19  C4        75.8820  -22.9560   51.2530 C.2   501  ADN501      0.3518
@<TRIPOS>BOND
     1     1     2    1
     2     2     3    1
     3     3     5    1
     4     3     4    1
     5     6     5    1
     6     5     7    1
     7     4     9    1
     8     7     9    1
     9     7     8    1
    10     9    10    1
    11    10    11    1
    12    10    19    1
    13    11    12    1
    14    19    18    2
    15    19    13    1
    16    18    17    1
    17    12    13    2
    18    13    14    1
    19    17    16    1
    20    14    16    2
    21    14    15    1
