@<TRIPOS>MOLECULE
2zbv_ADN_A_1.pdb
 19 21 0 0 0
SMALL
GASTEIGER

@<TRIPOS>ATOM
      1  O5'       40.1210   15.1250   19.3170 O.3   501  ADN501     -0.2176
      2  C5'       39.1950   15.8720   20.1140 C.3   501  ADN501      0.2143
      3  C4'       38.9410   15.1320   21.4250 C.3   501  ADN501      0.1851
      4  O4'       40.1550   14.9940   22.2240 O.3   501  ADN501     -0.3134
      5  C3'       37.9230   15.8550   22.3380 C.3   501  ADN501      0.2186
      6  O3'       36.5950   15.4100   22.0680 O.3   501  ADN501     -0.2174
      7  C2'       38.4210   15.5060   23.7580 C.3   501  ADN501      0.2570
      8  O2'       37.4450   14.7670   24.4930 O.3   501  ADN501     -0.2130
      9  C1'       39.7030   14.7000   23.5620 C.3   501  ADN501      0.3186
     10  N9        40.7130   15.1110   24.5530 N.pl3 501  ADN501     -0.1439
     11  C8        41.3500   16.3330   24.6080 C.3   501  ADN501      0.3377
     12  N7        42.1760   16.3690   25.6080 N.2   501  ADN501     -0.2095
     13  C5        42.1320   15.1880   26.2630 C.2   501  ADN501      0.2526
     14  C6        42.7890   14.6500   27.4050 C.2   501  ADN501      0.4393
     15  N6        43.7210   15.4050   28.1060 N.pl3 501  ADN501      0.2180
     16  N1        42.4850   13.3900   27.7880 N.2   501  ADN501      0.0021
     17  C2        41.5850   12.6390   27.1210 C.3   501  ADN501      0.5254
     18  N3        40.9470   13.1080   26.0440 N.2   501  ADN501     -0.0055
     19  C4        41.1870   14.3580   25.5890 C.2   501  ADN501      0.3518
@<TRIPOS>BOND
     1     1     2    1
     2     2     3    1
     3     3     4    1
     4     3     5    1
     5     6     5    1
     6     4     9    1
     7     5     7    1
     8     9     7    1
     9     9    10    1
    10     7     8    1
    11    10    11    1
    12    10    19    1
    13    11    12    1
    14    19    18    2
    15    19    13    1
    16    12    13    2
    17    18    17    1
    18    13    14    1
    19    17    16    1
    20    14    16    2
    21    14    15    1
