@<TRIPOS>MOLECULE
2zbx_HEM_A_1.pdb
 43 50 0 0 0
SMALL
GASTEIGER

@<TRIPOS>ATOM
      1 FE          9.7650    8.6740   12.4200 Fe    413  HEM413      0.0000
      2  CHA        9.0650    6.5800    9.8270 C.2   413  HEM413      0.0000
      3  CHB       11.0220    6.0150   14.2210 C.2   413  HEM413      0.0000
      4  CHC       10.6600   10.8160   14.8920 C.2   413  HEM413      0.0000
      5  CHD        8.0440   11.2610   10.8530 C.2   413  HEM413      0.0000
      6  NA         9.9970    6.6720   12.0910 N.2   413  HEM413      0.0000
      7  C1A        9.6770    6.0110   10.9120 C.2   413  HEM413      0.0000
      8  C2A       10.1050    4.6390   11.0170 C.2   413  HEM413      0.0000
      9  C3A       10.6310    4.4780   12.2560 C.2   413  HEM413      0.0000
     10  C4A       10.5640    5.7460   12.9410 C.2   413  HEM413      0.0000
     11  CMA       11.2300    3.1990   12.8640 C.3   413  HEM413      0.0000
     12  CAA        9.9910    3.5820    9.8900 C.3   413  HEM413      0.0000
     13  CBA        8.5930    3.0070    9.8360 C.3   413  HEM413      0.0000
     14  CGA        8.4730    1.8790    8.8310 C.2   413  HEM413      0.0000
     15  O1A        9.4930    1.3840    8.3060 O.co2 413  HEM413      0.0000
     16  O2A        7.3270    1.4560    8.5850 O.co2 413  HEM413      0.0000
     17  NB        10.6290    8.4450   14.2330 N.ar  413  HEM413      0.0000
     18  C1B       11.1400    7.2770   14.7790 C.ar  413  HEM413      0.0000
     19  C2B       11.7990    7.5950   16.0200 C.ar  413  HEM413      0.0000
     20  C3B       11.7050    8.9370   16.2010 C.ar  413  HEM413      0.0000
     21  C4B       10.9600    9.4820   15.0850 C.ar  413  HEM413      0.0000
     22  CMB       12.5030    6.5220   16.8940 C.3   413  HEM413      0.0000
     23  CAB       12.2270    9.8100   17.3590 C.2   413  HEM413      0.0000
     24  CBB       13.3420    9.4940   18.0100 C.2   413  HEM413      0.0000
     25  NC         9.3730   10.6550   12.8120 N.2   413  HEM413      0.0000
     26  C1C        9.9560   11.3690   13.8380 C.2   413  HEM413      0.0000
     27  C2C        9.6830   12.7770   13.6330 C.2   413  HEM413      0.0000
     28  C3C        8.9600   12.9100   12.5190 C.2   413  HEM413      0.0000
     29  C4C        8.7500   11.5820   11.9830 C.2   413  HEM413      0.0000
     30  CMC       10.1730   13.9130   14.5590 C.3   413  HEM413      0.0000
     31  CAC        8.4370   14.2560   11.9640 C.2   413  HEM413      0.0000
     32  CBC        7.9410   14.3840   10.7340 C.2   413  HEM413      0.0000
     33  ND         8.7180    8.8870   10.6820 N.ar  413  HEM413      0.0000
     34  C1D        8.0740   10.0410   10.2260 C.ar  413  HEM413      0.0000
     35  C2D        7.4730    9.7750    8.9460 C.ar  413  HEM413      0.0000
     36  C3D        7.7820    8.3350    8.6200 C.ar  413  HEM413      0.0000
     37  C4D        8.5540    7.8570    9.7410 C.ar  413  HEM413      0.0000
     38  CMD        6.6540   10.7490    8.0870 C.3   413  HEM413      0.0000
     39  CAD        7.3510    7.5390    7.3770 C.3   413  HEM413      0.0000
     40  CBD        8.4440    7.5720    6.3270 C.3   413  HEM413      0.0000
     41  CGD        8.0440    6.8340    5.0700 C.2   413  HEM413      0.0000
     42  O1D        8.6750    7.1260    4.0420 O.co2 413  HEM413      0.0000
     43  O2D        7.1180    6.0120    5.1900 O.co2 413  HEM413      0.0000
@<TRIPOS>BOND
     1    42    41   ar
     2    41    43   ar
     3    41    40    1
     4    40    39    1
     5    39    36    1
     6    38    35    1
     7    15    14   ar
     8    16    14   ar
     9    36    35   ar
    10    36    37   ar
    11    14    13    1
    12    35    34   ar
    13    37     2    2
    14    37    33   ar
    15     2     7    1
    16    13    12    1
    17    12     8    1
    18    34    33   ar
    19    34     5    2
    20    33     1    1
    21    32    31    2
    22     5    29    1
    23     7     8    1
    24     7     6    2
    25     8     9    2
    26    31    28    1
    27    29    28    1
    28    29    25    2
    29     6     1    1
    30     6    10    1
    31     9    11    1
    32     9    10    1
    33     1    25    1
    34     1    17    1
    35    28    27    2
    36    25    26    1
    37    10     3    2
    38    27    26    1
    39    27    30    1
    40    26     4    2
    41     3    18    1
    42    17    18   ar
    43    17    21   ar
    44    18    19   ar
    45     4    21    1
    46    21    20   ar
    47    19    20   ar
    48    19    22    1
    49    20    23    1
    50    23    24    2
