@<TRIPOS>MOLECULE
2zby_HEM_A_1.pdb
 43 50 0 0 0
SMALL
GASTEIGER

@<TRIPOS>ATOM
      1 FE         11.1040    8.6320   12.3530 Fe    413  HEM413      0.0000
      2  CHA       10.1530    6.4700    9.8500 C.2   413  HEM413      0.0000
      3  CHB       12.1710    5.8700   14.2120 C.2   413  HEM413      0.0000
      4  CHC       12.0350   10.6690   14.9110 C.2   413  HEM413      0.0000
      5  CHD        9.3050   11.1720   10.9510 C.2   413  HEM413      0.0000
      6  NA        11.1300    6.5710   12.1030 N.2   413  HEM413      0.0000
      7  C1A       10.7640    5.9140   10.9410 C.2   413  HEM413      0.0000
      8  C2A       11.1420    4.5120   11.0590 C.2   413  HEM413      0.0000
      9  C3A       11.6990    4.3330   12.2660 C.2   413  HEM413      0.0000
     10  C4A       11.6750    5.6210   12.9480 C.2   413  HEM413      0.0000
     11  CMA       12.2330    3.0040   12.8510 C.3   413  HEM413      0.0000
     12  CAA       10.9590    3.4570    9.9390 C.3   413  HEM413      0.0000
     13  CBA        9.5150    2.9880    9.7740 C.3   413  HEM413      0.0000
     14  CGA        9.4160    1.8260    8.8160 C.2   413  HEM413      0.0000
     15  O1A       10.4410    1.3500    8.2770 O.co2 413  HEM413      0.0000
     16  O2A        8.2510    1.3730    8.6050 O.co2 413  HEM413      0.0000
     17  NB        11.8860    8.3090   14.2570 N.ar  413  HEM413      0.0000
     18  C1B       12.3770    7.1160   14.7560 C.ar  413  HEM413      0.0000
     19  C2B       13.1260    7.4150   15.9630 C.ar  413  HEM413      0.0000
     20  C3B       13.0940    8.7360   16.1560 C.ar  413  HEM413      0.0000
     21  C4B       12.3010    9.3290   15.0930 C.ar  413  HEM413      0.0000
     22  CMB       13.8630    6.3880   16.8430 C.3   413  HEM413      0.0000
     23  CAB       13.8090    9.4510   17.3290 C.2   413  HEM413      0.0000
     24  CBB       13.5670   10.6980   17.7440 C.2   413  HEM413      0.0000
     25  NC        10.6700   10.5630   12.8800 N.2   413  HEM413      0.0000
     26  C1C       11.2800   11.2370   13.9070 C.2   413  HEM413      0.0000
     27  C2C       10.9740   12.6310   13.7740 C.2   413  HEM413      0.0000
     28  C3C       10.2020   12.7840   12.6860 C.2   413  HEM413      0.0000
     29  C4C       10.0250   11.4760   12.0890 C.2   413  HEM413      0.0000
     30  CMC       11.4700   13.7300   14.7540 C.3   413  HEM413      0.0000
     31  CAC        9.6510   14.1260   12.1580 C.2   413  HEM413      0.0000
     32  CBC        8.5090   14.2100   11.4890 C.2   413  HEM413      0.0000
     33  ND         9.9020    8.7700   10.7000 N.ar  413  HEM413      0.0000
     34  C1D        9.2790    9.9510   10.3080 C.ar  413  HEM413      0.0000
     35  C2D        8.5780    9.7110    9.0600 C.ar  413  HEM413      0.0000
     36  C3D        8.8310    8.2740    8.7070 C.ar  413  HEM413      0.0000
     37  C4D        9.6720    7.7530    9.7700 C.ar  413  HEM413      0.0000
     38  CMD        7.7430   10.7130    8.2400 C.3   413  HEM413      0.0000
     39  CAD        8.2980    7.5160    7.4750 C.3   413  HEM413      0.0000
     40  CBD        9.3980    7.4980    6.4200 C.3   413  HEM413      0.0000
     41  CGD        8.9020    6.7100    5.2280 C.2   413  HEM413      0.0000
     42  O1D        9.3900    6.9830    4.1150 O.co2 413  HEM413      0.0000
     43  O2D        8.0350    5.8210    5.4160 O.co2 413  HEM413      0.0000
@<TRIPOS>BOND
     1    42    41   ar
     2    41    43   ar
     3    41    40    1
     4    40    39    1
     5    39    36    1
     6    38    35    1
     7    15    14   ar
     8    16    14   ar
     9    36    35   ar
    10    36    37   ar
    11    14    13    1
    12    35    34   ar
    13    37     2    2
    14    37    33   ar
    15    13    12    1
    16     2     7    1
    17    12     8    1
    18    34    33   ar
    19    34     5    2
    20    33     1    1
    21     7     8    1
    22     7     6    2
    23     5    29    1
    24     8     9    2
    25    32    31    2
    26    29    28    1
    27    29    25    2
    28     6     1    1
    29     6    10    1
    30    31    28    1
    31     9    11    1
    32     9    10    1
    33     1    25    1
    34     1    17    1
    35    28    27    2
    36    25    26    1
    37    10     3    2
    38    27    26    1
    39    27    30    1
    40    26     4    2
    41     3    18    1
    42    17    18   ar
    43    17    21   ar
    44    18    19   ar
    45     4    21    1
    46    21    20   ar
    47    19    20   ar
    48    19    22    1
    49    20    23    1
    50    23    24    2
