@<TRIPOS>MOLECULE
2zbz_VDX_A_1.pdb
 30 32 0 0 0
SMALL
GASTEIGER

@<TRIPOS>ATOM
      1  O2        -6.0080    7.8960    9.1400 O.3   501  VDX501     -0.2227
      2  O3         3.6200   -0.2270   14.7440 O.3   501  VDX501     -0.2257
      3  C1        -2.5020    8.1860   10.5570 C.3   501  VDX501      0.1765
      4  C2        -3.7340    8.5050    9.7080 C.3   501  VDX501      0.0707
      5  C3        -4.8900    7.5270    9.9510 C.3   501  VDX501      0.1592
      6  C4        -5.3230    7.5260   11.4160 C.3   501  VDX501      0.0591
      7  C5        -4.1230    7.3340   12.3080 C.2   501  VDX501     -0.0213
      8  C6        -4.2290    6.4470   13.3100 C.2   501  VDX501     -0.0051
      9  C7        -3.1580    6.1510   14.2570 C.2   501  VDX501     -0.0088
     10  C8        -3.3650    5.3260   15.2970 C.2   501  VDX501     -0.0446
     11  C9        -4.7180    4.6700   15.5350 C.3   501  VDX501      0.0220
     12  C10       -2.9130    8.1090   11.9970 C.2   501  VDX501      0.0039
     13  C11       -4.5990    3.2420   16.0880 C.3   501  VDX501      0.0044
     14  C12       -3.4130    2.9970   17.0360 C.3   501  VDX501      0.0006
     15  C13       -2.0920    3.5380   16.4920 C.3   501  VDX501      0.0034
     16  C14       -2.2730    5.0320   16.2920 C.3   501  VDX501      0.0183
     17  C15       -0.8720    5.5860   16.0580 C.3   501  VDX501      0.0040
     18  C16       -0.0160    4.7290   16.9880 C.3   501  VDX501      0.0003
     19  C17       -0.8940    3.5520   17.4460 C.3   501  VDX501      0.0003
     20  C18       -1.7240    2.8090   15.1900 C.3   501  VDX501      0.0003
     21  C19       -2.2040    8.7430   12.9180 C.2   501  VDX501     -0.0024
     22  C20       -0.1330    2.2230   17.5910 C.3   501  VDX501      0.0000
     23  C21       -0.8610    1.3000   18.5660 C.3   501  VDX501      0.0000
     24  C22        1.3330    2.4130   18.0010 C.3   501  VDX501      0.0001
     25  C23        2.1620    1.1370   17.8630 C.3   501  VDX501      0.0025
     26  C24        3.0560    1.1530   16.6240 C.3   501  VDX501      0.0304
     27  C25        2.5140    0.3540   15.4350 C.3   501  VDX501      0.1268
     28  C26        1.5920   -0.7900   15.8440 C.3   501  VDX501      0.0329
     29  C27        1.8140    1.2840   14.4520 C.3   501  VDX501      0.0329
     30  O1        -1.9540    6.9250   10.1600 O.3   501  VDX501     -0.2182
@<TRIPOS>BOND
     1     1     5    1
     2     4     5    1
     3     4     3    1
     4     5     6    1
     5    30     3    1
     6     3    12    1
     7     6     7    1
     8    12     7    1
     9    12    21    2
    10     7     8    2
    11     8     9    1
    12     9    10    2
    13    29    27    1
    14     2    27    1
    15    20    15    1
    16    10    11    1
    17    10    16    1
    18    27    28    1
    19    27    26    1
    20    11    13    1
    21    17    16    1
    22    17    18    1
    23    13    14    1
    24    16    15    1
    25    15    14    1
    26    15    19    1
    27    26    25    1
    28    18    19    1
    29    19    22    1
    30    22    24    1
    31    22    23    1
    32    25    24    1
