@<TRIPOS>MOLECULE
2zbz_HEM_A_1.pdb
 43 50 0 0 0
SMALL
GASTEIGER

@<TRIPOS>ATOM
      1 FE          9.5870    8.4920   12.4740 Fe    413  HEM413      0.0000
      2  CHA        8.4880    6.3400   10.0030 C.2   413  HEM413      0.0000
      3  CHB       10.6410    5.7750   14.3070 C.2   413  HEM413      0.0000
      4  CHC       10.5730   10.5930   14.9900 C.2   413  HEM413      0.0000
      5  CHD        7.7000   11.0560   11.1060 C.2   413  HEM413      0.0000
      6  NA         9.5220    6.4120   12.2230 N.2   413  HEM413      0.0000
      7  C1A        9.1360    5.7540   11.0660 C.2   413  HEM413      0.0000
      8  C2A        9.5390    4.3630   11.1720 C.2   413  HEM413      0.0000
      9  C3A       10.1330    4.2050   12.3620 C.2   413  HEM413      0.0000
     10  C4A       10.1350    5.4930   13.0500 C.2   413  HEM413      0.0000
     11  CMA       10.7190    2.8780   12.9110 C.3   413  HEM413      0.0000
     12  CAA        9.3290    3.2600   10.0940 C.3   413  HEM413      0.0000
     13  CBA        7.8970    2.7400   10.0920 C.3   413  HEM413      0.0000
     14  CGA        7.6900    1.6300    9.0840 C.2   413  HEM413      0.0000
     15  O1A        8.6580    1.1830    8.4170 O.co2 413  HEM413      0.0000
     16  O2A        6.5210    1.1820    8.9400 O.co2 413  HEM413      0.0000
     17  NB        10.3840    8.2260   14.3620 N.ar  413  HEM413      0.0000
     18  C1B       10.8750    7.0270   14.8470 C.ar  413  HEM413      0.0000
     19  C2B       11.6850    7.3300   16.0180 C.ar  413  HEM413      0.0000
     20  C3B       11.6730    8.6550   16.2200 C.ar  413  HEM413      0.0000
     21  C4B       10.8530    9.2530   15.1690 C.ar  413  HEM413      0.0000
     22  CMB       12.4420    6.3080   16.8920 C.3   413  HEM413      0.0000
     23  CAB       12.4340    9.3620   17.3730 C.2   413  HEM413      0.0000
     24  CBB       12.0410   10.5120   17.9290 C.2   413  HEM413      0.0000
     25  NC         9.1560   10.4640   12.9850 N.2   413  HEM413      0.0000
     26  C1C        9.7680   11.1490   14.0160 C.2   413  HEM413      0.0000
     27  C2C        9.4210   12.5510   13.8830 C.2   413  HEM413      0.0000
     28  C3C        8.6240   12.6870   12.8140 C.2   413  HEM413      0.0000
     29  C4C        8.4410   11.3710   12.2270 C.2   413  HEM413      0.0000
     30  CMC        9.8930   13.6790   14.8240 C.3   413  HEM413      0.0000
     31  CAC        8.0200   14.0260   12.3200 C.2   413  HEM413      0.0000
     32  CBC        7.0170   14.0880   11.4420 C.2   413  HEM413      0.0000
     33  ND         8.2840    8.6680   10.8250 N.ar  413  HEM413      0.0000
     34  C1D        7.6420    9.8470   10.4470 C.ar  413  HEM413      0.0000
     35  C2D        6.8890    9.5960    9.2360 C.ar  413  HEM413      0.0000
     36  C3D        7.1400    8.1260    8.9010 C.ar  413  HEM413      0.0000
     37  C4D        8.0120    7.6320    9.9380 C.ar  413  HEM413      0.0000
     38  CMD        6.0130   10.5880    8.4430 C.3   413  HEM413      0.0000
     39  CAD        6.5900    7.3210    7.7080 C.3   413  HEM413      0.0000
     40  CBD        7.6470    7.3420    6.5990 C.3   413  HEM413      0.0000
     41  CGD        7.1720    6.5770    5.3870 C.2   413  HEM413      0.0000
     42  O1D        7.6630    6.8570    4.2610 O.co2 413  HEM413      0.0000
     43  O2D        6.3220    5.6650    5.5400 O.co2 413  HEM413      0.0000
@<TRIPOS>BOND
     1    42    41   ar
     2    41    43   ar
     3    41    40    1
     4    40    39    1
     5    39    36    1
     6    15    14   ar
     7    38    35    1
     8    36    35   ar
     9    36    37   ar
    10    16    14   ar
    11    14    13    1
    12    35    34   ar
    13    37     2    2
    14    37    33   ar
    15     2     7    1
    16    13    12    1
    17    12     8    1
    18    34    33   ar
    19    34     5    2
    20    33     1    1
    21     7     8    1
    22     7     6    2
    23     5    29    1
    24     8     9    2
    25    32    31    2
    26     6     1    1
    27     6    10    1
    28    29    28    1
    29    29    25    2
    30    31    28    1
    31     9    11    1
    32     9    10    1
    33     1    25    1
    34     1    17    1
    35    28    27    2
    36    25    26    1
    37    10     3    2
    38    27    26    1
    39    27    30    1
    40    26     4    2
    41     3    18    1
    42    17    18   ar
    43    17    21   ar
    44    18    19   ar
    45     4    21    1
    46    21    20   ar
    47    19    20   ar
    48    19    22    1
    49    20    23    1
    50    23    24    2
