@<TRIPOS>MOLECULE
2zc0_PMP_A_1.pdb
 16 16 0 0 0
SMALL
GASTEIGER

@<TRIPOS>ATOM
      1  N1        -8.1450   52.4760  161.6870 N.ar  409  PMP409     -0.2452
      2  C2        -7.1140   51.6160  161.8460 C.ar  409  PMP409      0.0978
      3  C2A       -5.7940   51.9880  161.1670 C.3   409  PMP409      0.0555
      4  C3        -7.2530   50.4290  162.6140 C.ar  409  PMP409      0.2063
      5  O3        -6.1730   49.5680  162.7520 O.3   409  PMP409     -0.2856
      6  C4        -8.5300   50.1410  163.2260 C.ar  409  PMP409      0.0369
      7  C4A       -8.6730   48.8530  164.0590 C.3   409  PMP409      0.1386
      8  N4A       -9.6620   47.9190  163.5210 N.3   409  PMP409     -0.1261
      9  C5        -9.6710   51.1560  163.0090 C.ar  409  PMP409      0.0275
     10  C6        -9.4160   52.3070  162.2250 C.ar  409  PMP409      0.0965
     11  C5A      -11.0780   50.9720  163.6080 C.3   409  PMP409      0.1816
     12  O4P      -11.0010   51.0240  164.7120 O.3   409  PMP409     -0.2653
     13  P        -12.5080   50.9060  165.4250 P.3   409  PMP409      0.5329
     14  O1P      -13.1910   52.4280  166.3260 O.3   409  PMP409     -0.1145
     15  O2P      -12.3120   49.5430  166.7500 O.3   409  PMP409     -0.1145
     16  O3P      -13.8070   50.3830  164.2710 O.2   409  PMP409     -0.2224
@<TRIPOS>BOND
     1     3     2    1
     2     1     2   ar
     3     1    10   ar
     4     2     4   ar
     5    10     9   ar
     6     4     5    1
     7     4     6   ar
     8     9     6   ar
     9     9    11    1
    10     6     7    1
    11     8     7    1
    12    11    12    1
    13    16    13    2
    14    12    13    1
    15    13    14    1
    16    13    15    1
