@<TRIPOS>MOLECULE
2zc5_BMG_B_1.pdb
 24 26 0 0 0
SMALL
GASTEIGER

@<TRIPOS>ATOM
      1  C1        11.9210   16.7060    8.5760 C.3   701  BMG701      0.0387
      2  C3        13.6840   16.5430    7.0170 C.2   701  BMG701      0.1428
      3  C5        12.6000   15.2820    8.6910 C.3   701  BMG701      0.1141
      4  C6        13.3700   14.9540   10.0010 C.3   701  BMG701      0.1175
      5  C7        14.7450   14.4100    9.7420 C.2   701  BMG701      0.2115
      6  C8        12.6090   13.9680   10.9070 C.3   701  BMG701      0.1613
      7  C11       14.8700   16.6920    6.0230 C.2   701  BMG701      0.4014
      8  C17       11.7900   18.8470    5.4010 C.3   701  BMG701      0.0870
      9  C18       10.6140   19.8510    5.2430 C.3   701  BMG701      0.1068
     10  C20        9.5050   19.7500    2.8160 C.3   701  BMG701      0.2194
     11  C22       11.3510   19.1870    1.8920 C.2   701  BMG701      0.1749
     12  C9        13.3330   13.6530   12.2240 C.3   701  BMG701      0.0360
     13  O14       15.7690   14.9350   10.1160 O.2   701  BMG701     -0.2882
     14  O15       11.3400   14.5900   11.2060 O.3   701  BMG701     -0.2226
     15  C10       11.8670   17.5520    9.8630 C.3   701  BMG701      0.0033
     16  N4        13.4650   15.2660    7.5080 N.2   701  BMG701     -0.2688
     17  O13       15.0510   15.6770    5.3100 O.co2 701  BMG701     -0.2392
     18  O12       15.4900   17.7770    6.0400 O.co2 701  BMG701     -0.2392
     19  C2        12.7930   17.4020    7.5080 C.3   701  BMG701      0.0957
     20  S16       12.5780   19.0700    7.0290 S.3   701  BMG701     -0.1324
     21  C24       12.6990   19.2140    4.2040 C.3   701  BMG701      0.1226
     22  N23       11.6010   19.3220    3.1770 N.pl3 701  BMG701     -0.2306
     23  N19       10.4200   19.6840    3.7740 N.3   701  BMG701     -0.1792
     24  N21       10.0520   19.4490    1.6370 N.2   701  BMG701     -0.2329
@<TRIPOS>BOND
     1    24    11    2
     2    24    10    1
     3    11    22    1
     4    10    23    1
     5    22    23    1
     6    22    21    1
     7    23     9    1
     8    21     8    1
     9     9     8    1
    10    17     7   ar
    11     8    20    1
    12     7    18   ar
    13     7     2    1
    14     2    16    2
    15     2    19    1
    16    20    19    1
    17    16     3    1
    18    19     1    1
    19     1     3    1
    20     1    15    1
    21     3     4    1
    22     5     4    1
    23     5    13    2
    24     4     6    1
    25     6    14    1
    26     6    12    1
