@<TRIPOS>MOLECULE
2zc6_TEB_B_1.pdb
 25 27 0 0 0
SMALL
GASTEIGER

@<TRIPOS>ATOM
      1  C7        14.7850   14.2880    9.2910 C.2   701  TEB701      0.2115
      2  O14       15.8280   14.8340    9.5610 O.2   701  TEB701     -0.2882
      3  C6        13.4210   14.8200    9.6330 C.3   701  TEB701      0.1175
      4  C8        12.7260   13.8720   10.6350 C.3   701  TEB701      0.1613
      5  O15       11.4420   14.4590   10.9530 O.3   701  TEB701     -0.2226
      6  C9        13.5110   13.6760   11.9400 C.3   701  TEB701      0.0360
      7  C5        12.5950   15.1310    8.3540 C.3   701  TEB701      0.1141
      8  C1        11.9170   16.5570    8.2600 C.3   701  TEB701      0.0387
      9  C10       11.8300   17.3780    9.5660 C.3   701  TEB701      0.0033
     10  N4        13.4520   15.1300    7.1620 N.2   701  TEB701     -0.2688
     11  C3        13.6910   16.4220    6.7180 C.2   701  TEB701      0.1428
     12  C11       14.8630   16.5980    5.7160 C.2   701  TEB701      0.4014
     13  O13       14.8690   15.6950    4.8550 O.co2 701  TEB701     -0.2392
     14  O12       15.6260   17.5730    5.8650 O.co2 701  TEB701     -0.2392
     15  C2        12.8350   17.2770    7.2520 C.3   701  TEB701      0.0957
     16  S16       12.7850   18.9710    6.8490 S.3   701  TEB701     -0.1322
     17  C17       11.2690   19.1130    5.8770 C.3   701  TEB701      0.0875
     18  C20       11.2840   18.6000    4.3920 C.3   701  TEB701      0.1051
     19  N19       10.9970   20.0050    3.9740 N.pl3 701  TEB701     -0.2868
     20  C18       11.1100   20.5720    5.3270 C.3   701  TEB701      0.1051
     21  C21       10.4350   20.5750    2.9060 C.2   701  TEB701      0.1545
     22  N25       10.3580   21.8290    2.6840 N.2   701  TEB701     -0.2500
     23  C24        9.6810   22.1780    1.4240 C.3   701  TEB701      0.1395
     24  C23        9.0290   20.9090    0.7730 C.3   701  TEB701      0.0912
     25  S22        9.7180   19.4780    1.6710 S.3   701  TEB701     -0.0783
@<TRIPOS>BOND
     1    24    23    1
     2    24    25    1
     3    23    22    1
     4    25    21    1
     5    22    21    2
     6    21    19    1
     7    19    18    1
     8    19    20    1
     9    18    17    1
    10    13    12   ar
    11    20    17    1
    12    12    14   ar
    13    12    11    1
    14    17    16    1
    15    11    10    2
    16    11    15    1
    17    16    15    1
    18    10     7    1
    19    15     8    1
    20     8     7    1
    21     8     9    1
    22     7     3    1
    23     1     2    2
    24     1     3    1
    25     3     4    1
    26     4     5    1
    27     4     6    1
