@<TRIPOS>MOLECULE
2zc9_22U_H_1.pdb
 27 29 0 0 0
SMALL
GASTEIGER

@<TRIPOS>ATOM
      1  N1        16.3050  -15.7140   23.2320 N.3   1501  22U1501    -0.1228
      2  C2        17.6270  -15.0160   23.2870 C.3   1501  22U1501     0.1721
      3  C3        17.4490  -13.6090   22.7270 C.2   1501  22U1501     0.2437
      4  O1        16.4680  -12.9820   23.1440 O.2   1501  22U1501    -0.2733
      5  C1        18.1650  -14.9640   24.7310 C.3   1501  22U1501     0.0547
      6  C16       19.5640  -14.3300   24.8080 C.ar  1501  22U1501    -0.0202
      7  C17       20.6640  -14.8530   24.1100 C.ar  1501  22U1501    -0.0042
      8  C21       19.7440  -13.1800   25.5860 C.ar  1501  22U1501    -0.0042
      9  C18       21.9170  -14.2340   24.2320 C.ar  1501  22U1501    -0.0003
     10  C20       20.9960  -12.5890   25.7570 C.ar  1501  22U1501    -0.0003
     11  C19       22.0730  -13.0830   24.9910 C.ar  1501  22U1501    -0.0000
     12  N2        18.1330  -13.1630   21.6570 N.am  1501  22U1501    -0.2718
     13  C7        17.8360  -11.8460   21.1120 C.3   1501  22U1501     0.1535
     14  C8        16.4020  -11.7500   20.6340 C.2   1501  22U1501     0.2598
     15  O2        15.8850  -12.6720   20.0140 O.2   1501  22U1501    -0.2715
     16  C6        18.8240  -11.7770   19.9170 C.3   1501  22U1501     0.0310
     17  C5        19.9730  -12.7300   20.3520 C.3   1501  22U1501     0.0237
     18  C4        19.2070  -13.9150   20.9810 C.3   1501  22U1501     0.0939
     19  N3        15.7260  -10.6080   20.9320 N.am  1501  22U1501    -0.1992
     20  C9        14.3690  -10.4430   20.3670 C.3   1501  22U1501     0.1415
     21  C10       13.3410  -10.3610   21.5130 C.ar  1501  22U1501     0.0003
     22  C15       12.4440  -11.4030   21.6720 C.ar  1501  22U1501    -0.0025
     23  C14       11.5120  -11.3900   22.7010 C.ar  1501  22U1501     0.0006
     24  C13       11.4380  -10.2950   23.5610 C.ar  1501  22U1501     0.0114
     25  C12       12.3350   -9.2340   23.4100 C.ar  1501  22U1501     0.0574
     26  C11       13.2880   -9.2590   22.3860 C.ar  1501  22U1501     0.0088
     27 CL1        12.2410   -7.8830   24.5260 Cl    1501  22U1501    -0.0823
@<TRIPOS>BOND
     1    16    17    1
     2    16    13    1
     3    15    14    2
     4    17    18    1
     5    20    19    1
     6    20    21    1
     7    14    19   am
     8    14    13    1
     9    18    12    1
    10    13    12    1
    11    21    22   ar
    12    21    26   ar
    13    12     3   am
    14    22    23   ar
    15    26    25   ar
    16    23    24   ar
    17     3     4    2
    18     3     2    1
    19     1     2    1
    20     2     5    1
    21    25    24   ar
    22    25    27    1
    23     7     9   ar
    24     7     6   ar
    25     9    11   ar
    26     5     6    1
    27     6     8   ar
    28    11    10   ar
    29     8    10   ar
