@<TRIPOS>MOLECULE
2zce_PYH_A_1.pdb
 18 18 0 0 0
SMALL
GASTEIGER

@<TRIPOS>ATOM
      1  CAA        3.2010   72.1190    2.1560 C.3   601  PYH601      0.0020
      2  CAP        4.5820   71.4660    2.0720 C.3   601  PYH601      0.0264
      3  CAJ        4.6110   70.1890    2.9140 C.3   601  PYH601      0.0207
      4  CAF        5.2210   70.6910    4.2230 C.3   601  PYH601      0.0893
      5  NAL        6.1310   71.6030    3.8940 N.3   601  PYH601     -0.2102
      6  CAR        5.6540   72.3470    2.7190 C.3   601  PYH601      0.1503
      7  CAO        6.8320   72.5910    1.7710 C.2   601  PYH601      0.2572
      8  OAD        6.6570   72.8690    0.5860 O.2   601  PYH601     -0.2718
      9  NZ         8.0280   72.4610    2.3410 N.am  601  PYH601     -0.2043
     10  CE         9.2870   72.6590    1.6090 C.3   601  PYH601      0.1152
     11  CD        10.1340   73.7090    2.3330 C.3   601  PYH601      0.0235
     12  CG         9.4430   75.0740    2.3210 C.3   601  PYH601      0.0039
     13  CB        10.2050   76.1530    3.0930 C.3   601  PYH601      0.0307
     14  CA        10.1340   75.9640    4.6100 C.3   601  PYH601      0.1943
     15  C         10.7400   77.1880    5.3020 C.2   601  PYH601      0.3819
     16  OXT       11.9840   77.3160    5.2750 O.co2 601  PYH601     -0.2441
     17  O          9.9340   77.9760    5.8430 O.co2 601  PYH601     -0.2441
     18  N          8.7330   75.8250    5.0350 N.3   601  PYH601     -0.1208
@<TRIPOS>BOND
     1     8     7    2
     2    10    11    1
     3    10     9    1
     4     7     9   am
     5     7     6    1
     6     2     1    1
     7     2     6    1
     8     2     3    1
     9    12    11    1
    10    12    13    1
    11     6     5    1
    12     3     4    1
    13    13    14    1
    14     5     4    1
    15    14    18    1
    16    14    15    1
    17    16    15   ar
    18    15    17   ar
