@<TRIPOS>MOLECULE
2zce_ANP_A_1.pdb
 31 33 0 0 0
SMALL
GASTEIGER

@<TRIPOS>ATOM
      1  PG        17.9680   81.3260    7.4760 P.3   501  ANP501      0.4884
      2  O1G       17.3660   82.0190    8.6380 O.3   501  ANP501     -0.1240
      3  O2G       18.7160   82.3510    6.4840 O.2   501  ANP501     -0.2331
      4  O3G       19.0890   80.2540    7.9120 O.3   501  ANP501     -0.1240
      5  PB        15.7000   79.8350    7.4150 P.3   501  ANP501      0.4669
      6  O1B       14.9960   80.6810    8.4030 O.3   501  ANP501     -0.1253
      7  O2B       15.7980   78.3600    7.4900 O.2   501  ANP501     -0.2351
      8  N3B       16.8990   80.5170    6.5550 N.3   501  ANP501     -0.0163
      9  PA        13.4450   78.9070    5.9100 P.3   501  ANP501      0.2220
     10  O1A       14.0420   77.7780    5.1600 O.2   501  ANP501     -0.5170
     11  O2A       12.7390   78.6170    7.1770 O.3   501  ANP501     -0.4370
     12  O3A       14.6230   79.9720    6.2150 O.3   501  ANP501     -0.2360
     13  O5'       12.4390   79.6790    4.9140 O.3   501  ANP501     -0.3111
     14  C5'       12.5710   79.5880    3.4910 C.3   501  ANP501      0.1813
     15  C4'       13.1910   80.8540    2.8920 C.3   501  ANP501      0.1821
     16  O4'       12.5090   82.0350    3.3430 O.3   501  ANP501     -0.3135
     17  C3'       14.6410   81.0830    3.3130 C.3   501  ANP501      0.2184
     18  O3'       15.4920   80.2490    2.5210 O.3   501  ANP501     -0.2174
     19  C2'       14.7830   82.5390    2.8700 C.3   501  ANP501      0.2570
     20  O2'       14.8970   82.6400    1.4470 O.3   501  ANP501     -0.2130
     21  C1'       13.4430   83.1320    3.3140 C.3   501  ANP501      0.3186
     22  N9        13.5230   83.7120    4.6750 N.pl3 501  ANP501     -0.1439
     23  C8        13.4120   83.0570    5.8300 C.3   501  ANP501      0.3377
     24  N7        13.4840   83.9170    6.8450 N.2   501  ANP501     -0.2095
     25  C5        13.6460   85.1330    6.3330 C.2   501  ANP501      0.2526
     26  C6        13.7900   86.4070    6.8700 C.2   501  ANP501      0.4393
     27  N6        13.7510   86.5900    8.1870 N.pl3 501  ANP501      0.2180
     28  N1        13.9610   87.4500    6.0440 N.2   501  ANP501      0.0021
     29  C2        13.9900   87.2910    4.7310 C.3   501  ANP501      0.5254
     30  N3        13.8510   86.0940    4.1870 N.2   501  ANP501     -0.0055
     31  C4        13.6790   85.0040    4.9510 C.2   501  ANP501      0.3518
@<TRIPOS>BOND
     1    20    19    1
     2    18    17    1
     3    19    17    1
     4    19    21    1
     5    15    17    1
     6    15    16    1
     7    15    14    1
     8    21    16    1
     9    21    22    1
    10    14    13    1
    11    30    29    1
    12    30    31    2
    13    22    31    1
    14    22    23    1
    15    29    28    1
    16    13     9    1
    17    31    25    1
    18    10     9    2
    19    23    24    1
    20     9    12    1
    21     9    11    1
    22    28    26    2
    23    12     5    1
    24    25    24    2
    25    25    26    1
    26     3     1    2
    27     8     5    1
    28     8     1    1
    29    26    27    1
    30     5     7    2
    31     5     6    1
    32     1     4    1
    33     1     2    1
