@<TRIPOS>MOLECULE
2zcj_SAH_A_1.pdb
 26 28 0 0 0
SMALL
GASTEIGER

@<TRIPOS>ATOM
      1  N        -18.5020   30.9530   79.9880 N.3   328  SAH328     -0.1208
      2  CA       -19.1700   30.3480   81.2210 C.3   328  SAH328      0.1952
      3  CB       -19.0260   31.0140   82.5460 C.3   328  SAH328      0.0422
      4  CG       -17.6280   31.2810   83.0400 C.3   328  SAH328      0.0597
      5  SD       -17.7480   31.8770   84.7620 S.3   328  SAH328     -0.1375
      6  C        -20.6820   30.1390   80.8300 C.2   328  SAH328      0.3819
      7  O        -21.0540   30.4520   79.6900 O.co2 328  SAH328     -0.2441
      8  OXT      -21.4390   29.6420   81.7350 O.co2 328  SAH328     -0.2441
      9  C5'      -16.2220   31.3840   85.4190 C.3   328  SAH328      0.0899
     10  C4'      -16.2980   29.8540   85.8390 C.3   328  SAH328      0.1630
     11  O4'      -15.0120   29.6100   86.3780 O.3   328  SAH328     -0.3153
     12  C3'      -17.2500   29.5200   86.9580 C.3   328  SAH328      0.2168
     13  O3'      -18.2870   28.6740   86.4900 O.3   328  SAH328     -0.2175
     14  C2'      -16.2990   28.8740   88.0400 C.3   328  SAH328      0.2569
     15  O2'      -16.9340   27.8550   88.7970 O.3   328  SAH328     -0.2130
     16  C1'      -15.1180   28.4070   87.1960 C.3   328  SAH328      0.3185
     17  N9       -13.9430   28.2050   87.8260 N.pl3 328  SAH328     -0.1439
     18  C8       -13.1830   28.9670   88.6970 C.3   328  SAH328      0.3377
     19  N7       -12.0810   28.4150   89.0970 N.2   328  SAH328     -0.2095
     20  C5       -12.0610   27.1490   88.4490 C.2   328  SAH328      0.2526
     21  C6       -11.0960   26.0630   88.4810 C.2   328  SAH328      0.4393
     22  N6        -9.9560   26.0790   89.1950 N.pl3 328  SAH328      0.2180
     23  N1       -11.4310   24.9750   87.7110 N.2   328  SAH328      0.0021
     24  C2       -12.5740   24.9060   86.9660 C.3   328  SAH328      0.5254
     25  N3       -13.5140   25.9170   86.9060 N.2   328  SAH328     -0.0055
     26  C4       -13.1910   27.0030   87.6710 C.2   328  SAH328      0.3518
@<TRIPOS>BOND
     1     7     6   ar
     2     1     2    1
     3     6     2    1
     4     6     8   ar
     5     2     3    1
     6     3     4    1
     7     4     5    1
     8     5     9    1
     9     9    10    1
    10    10    11    1
    11    10    12    1
    12    11    16    1
    13    13    12    1
    14    25    24    1
    15    25    26    2
    16    12    14    1
    17    24    23    1
    18    16    17    1
    19    16    14    1
    20    26    17    1
    21    26    20    1
    22    23    21    2
    23    17    18    1
    24    14    15    1
    25    20    21    1
    26    20    19    2
    27    21    22    1
    28    18    19    1
