@<TRIPOS>MOLECULE
2zcp_FPS_A_1.pdb
 24 23 0 0 0
SMALL
GASTEIGER

@<TRIPOS>ATOM
      1  C1        54.8110   -7.0020   23.5000 C.3   657  FPS657      0.0942
      2  S1        55.6860   -6.4670   25.0160 S.3   657  FPS657     -0.0237
      3  C2        53.5770   -7.5520   23.8300 C.2   657  FPS657     -0.0224
      4  C3        53.3420   -8.8200   24.3510 C.2   657  FPS657     -0.0470
      5  C4        54.4980   -9.7960   24.5880 C.3   657  FPS657      0.0261
      6  C5        51.9100   -9.2620   24.6600 C.3   657  FPS657      0.0264
      7  C6        51.1860   -9.6200   23.3620 C.3   657  FPS657      0.0297
      8  C7        51.6350  -10.7940   22.7640 C.2   657  FPS657     -0.0342
      9  C8        52.3210  -10.9250   21.5610 C.2   657  FPS657     -0.0478
     10  C10       52.6940  -12.3230   21.0620 C.3   657  FPS657      0.0263
     11  C9        52.6800   -9.6970   20.7230 C.3   657  FPS657      0.0260
     12  C11       54.1920  -12.6240   21.0060 C.3   657  FPS657      0.0297
     13  C12       54.3430  -13.9120   20.5030 C.2   657  FPS657     -0.0342
     14  C13       55.3980  -14.4440   19.7690 C.2   657  FPS657     -0.0478
     15  C14       55.3410  -15.9000   19.3050 C.3   657  FPS657      0.0260
     16  C15       56.6370  -13.6060   19.4450 C.3   657  FPS657      0.0260
     17  PA        56.7760   -4.9870   24.3900 P.3   657  FPS657      0.4273
     18  O1A       57.6500   -5.4940   23.1360 O.2   657  FPS657     -0.2431
     19  O2A       57.6470   -4.4840   25.4780 O.3   657  FPS657     -0.1309
     20  O3A       55.7800   -3.8260   23.8830 O.3   657  FPS657     -0.1955
     21  PB        55.1380   -3.7240   22.4080 P.3   657  FPS657      0.5394
     22  O1B       55.3990   -2.2180   21.9030 O.3   657  FPS657     -0.1143
     23  O2B       55.9820   -4.6810   21.4260 O.2   657  FPS657     -0.2220
     24  O3B       53.6920   -4.0420   22.4400 O.3   657  FPS657     -0.1143
@<TRIPOS>BOND
     1    15    14    1
     2    16    14    1
     3    14    13    2
     4    13    12    1
     5    11     9    1
     6    12    10    1
     7    10     9    1
     8    23    21    2
     9     9     8    2
    10    22    21    1
    11    21    24    1
    12    21    20    1
    13     8     7    1
    14    18    17    2
    15     7     6    1
    16     1     3    1
    17     1     2    1
    18     3     4    2
    19    20    17    1
    20     4     5    1
    21     4     6    1
    22    17     2    1
    23    17    19    1
