@<TRIPOS>MOLECULE
2zcq_B65_A_1.pdb
 25 26 0 0 0
SMALL
GASTEIGER

@<TRIPOS>ATOM
      1  CAL       15.0650   55.4960   39.8510 C.ar  451  B65451      0.0375
      2  CAH       14.8050   56.4450   40.8430 C.ar  451  B65451      0.0031
      3  CAG       13.9360   56.1490   41.8870 C.ar  451  B65451      0.0002
      4  CAI       13.3240   54.9060   41.9490 C.ar  451  B65451      0.0031
      5  CAM       13.5840   53.9560   40.9620 C.ar  451  B65451      0.0375
      6  CAU       14.4480   54.2580   39.9150 C.ar  451  B65451      0.1453
      7  OAS       14.5500   53.3870   38.8700 O.3   451  B65451     -0.4535
      8  CAV       15.6130   52.5420   38.8920 C.ar  451  B65451      0.1450
      9  CAO       15.9990   51.9690   37.6820 C.ar  451  B65451      0.0332
     10  CAN       16.2330   52.1440   40.0700 C.ar  451  B65451      0.0375
     11  CAJ       17.2260   51.1730   40.0300 C.ar  451  B65451      0.0028
     12  CAK       17.6020   50.5940   38.8200 C.ar  451  B65451     -0.0041
     13  CAT       16.9830   50.9950   37.6410 C.ar  451  B65451     -0.0192
     14  CAQ       17.3310   50.3430   36.2980 C.3   451  B65451      0.0265
     15  CAP       18.4450   51.1010   35.5720 C.3   451  B65451      0.0069
     16  CAR       19.7000   51.1160   36.4440 C.3   451  B65451      0.0320
     17  CAW       20.9210   51.6820   35.7130 C.3   451  B65451      0.1869
     18  PAX       21.3180   50.6870   34.2190 P.3   451  B65451      0.1393
     19  OAB       22.8210   51.0640   33.7840 O.3   451  B65451     -0.3560
     20  OAC       21.3420   49.1510   34.7060 O.3   451  B65451     -0.3560
     21  OAA       20.3500   50.9090   33.1190 O.2   451  B65451     -0.4584
     22  SAY       22.3510   51.7060   36.8530 S.3   451  B65451      0.0275
     23  OAF       23.5260   52.0920   36.1330 O.3   451  B65451     -0.0691
     24  OAE       22.5580   50.3410   37.4350 O.3   451  B65451     -0.0691
     25  OAD       22.0820   52.6710   37.9740 O.3   451  B65451     -0.0691
@<TRIPOS>BOND
     1    21    18    2
     2    19    18    1
     3    18    20    1
     4    18    17    1
     5    15    14    1
     6    15    16    1
     7    17    16    1
     8    17    22    1
     9    23    22    1
    10    14    13    1
    11    22    24    1
    12    22    25    1
    13    13     9   ar
    14    13    12   ar
    15     9     8   ar
    16    12    11   ar
    17     7     8    1
    18     7     6    1
    19     8    10   ar
    20     1     6   ar
    21     1     2   ar
    22     6     5   ar
    23    11    10   ar
    24     2     3   ar
    25     5     4   ar
    26     3     4   ar
