@<TRIPOS>MOLECULE
2zcr_B69_A_1.pdb
 28 29 0 0 0
SMALL
GASTEIGER

@<TRIPOS>ATOM
      1  CAA        9.6030   61.6780   37.6620 C.3   668  B69668      0.0000
      2  CAP       10.0000   60.3370   38.2800 C.3   668  B69668      0.0003
      3  CAQ       11.4430   59.9530   37.9370 C.3   668  B69668      0.0047
      4  CAS       11.7280   58.5850   38.5610 C.3   668  B69668      0.0264
      5  CAV       13.0590   57.9340   38.1750 C.ar  668  B69668     -0.0222
      6  CAI       13.1960   57.2880   36.9500 C.ar  668  B69668     -0.0043
      7  CAM       14.2900   56.4650   36.7060 C.ar  668  B69668     -0.0003
      8  CAH       14.0400   57.7730   39.1450 C.ar  668  B69668     -0.0043
      9  CAL       15.1350   56.9520   38.9010 C.ar  668  B69668     -0.0003
     10  CAX       15.2640   56.2920   37.6840 C.ar  668  B69668     -0.0000
     11  CAY       16.4110   55.5450   37.4380 C.ar  668  B69668     -0.0000
     12  CAO       17.0740   54.9240   38.4920 C.ar  668  B69668     -0.0003
     13  CAK       18.2950   54.2940   38.2670 C.ar  668  B69668     -0.0043
     14  CAN       16.9620   55.5140   36.1630 C.ar  668  B69668     -0.0003
     15  CAJ       18.1830   54.8860   35.9390 C.ar  668  B69668     -0.0043
     16  CAW       18.8540   54.2790   36.9950 C.ar  668  B69668     -0.0222
     17  CAT       20.2220   53.6230   36.7780 C.3   668  B69668      0.0264
     18  CAR       20.1110   52.0980   36.7290 C.3   668  B69668      0.0069
     19  CAU       21.4080   51.4360   37.1990 C.3   668  B69668      0.0320
     20  CAZ       22.5900   51.7140   36.2700 C.3   668  B69668      0.1869
     21  PBA       22.6190   50.5110   34.8790 P.3   668  B69668      0.1393
     22  OAC       23.9080   50.8500   33.9740 O.2   668  B69668     -0.4584
     23  OAD       22.8820   49.0690   35.5430 O.3   668  B69668     -0.3560
     24  OAB       21.3680   50.5640   34.0890 O.3   668  B69668     -0.3560
     25  SBB       24.1430   51.6000   37.2320 S.3   668  B69668      0.0275
     26  OAG       25.2460   51.9260   36.3830 O.3   668  B69668     -0.0691
     27  OAF       24.3020   50.2040   37.7550 O.3   668  B69668     -0.0691
     28  OAE       24.0800   52.5610   38.3840 O.3   668  B69668     -0.0691
@<TRIPOS>BOND
     1    22    21    2
     2    24    21    1
     3    21    23    1
     4    21    20    1
     5    15    14   ar
     6    15    16   ar
     7    14    11   ar
     8    20    19    1
     9    20    25    1
    10    26    25    1
    11     7     6   ar
    12     7    10   ar
    13    18    17    1
    14    18    19    1
    15    17    16    1
    16     6     5   ar
    17    16    13   ar
    18    25    27    1
    19    25    28    1
    20    11    10    1
    21    11    12   ar
    22     1     2    1
    23    10     9   ar
    24     3     2    1
    25     3     4    1
    26     5     4    1
    27     5     8   ar
    28    13    12   ar
    29     9     8   ar
