@<TRIPOS>MOLECULE
2zcs_B70_A_1.pdb
 24 25 0 0 0
SMALL
GASTEIGER

@<TRIPOS>ATOM
      1  CAJ       57.9210   19.1690   54.4000 C.ar  640  B70640     -0.0000
      2  CAH       58.1900   20.5080   54.6620 C.ar  640  B70640      0.0000
      3  CAG       57.9480   21.4740   53.6910 C.ar  640  B70640      0.0000
      4  CAI       57.4420   21.0900   52.4550 C.ar  640  B70640      0.0000
      5  CAK       57.1740   19.7500   52.1930 C.ar  640  B70640     -0.0000
      6  CAT       57.4050   18.7850   53.1670 C.ar  640  B70640     -0.0000
      7  CAU       57.0680   17.4590   52.9220 C.ar  640  B70640     -0.0000
      8  CAO       56.2100   17.1510   51.8720 C.ar  640  B70640     -0.0003
      9  CAM       55.8650   15.8290   51.6100 C.ar  640  B70640     -0.0043
     10  CAN       57.5740   16.4360   53.7150 C.ar  640  B70640     -0.0003
     11  CAL       57.2300   15.1140   53.4510 C.ar  640  B70640     -0.0043
     12  CAS       56.3770   14.8050   52.3960 C.ar  640  B70640     -0.0222
     13  CAQ       56.0300   13.3500   52.0710 C.3   640  B70640      0.0264
     14  CAP       57.2910   12.5210   51.8070 C.3   640  B70640      0.0069
     15  CAR       56.9530   11.0840   51.4000 C.3   640  B70640      0.0320
     16  CAV       56.1980   10.3240   52.4940 C.3   640  B70640      0.1869
     17  PAW       57.2180   10.1690   54.0140 P.3   640  B70640      0.1393
     18  OAB       57.0280    8.6740   54.5820 O.3   640  B70640     -0.3560
     19  OAC       58.7460   10.2620   53.5160 O.2   640  B70640     -0.4584
     20  OAA       56.8650   11.1970   55.0190 O.3   640  B70640     -0.3560
     21  SAX       55.6570    8.6690   51.9240 S.3   640  B70640      0.0275
     22  OAF       54.6280    8.8250   50.9410 O.3   640  B70640     -0.0691
     23  OAE       55.1130    7.8690   53.0720 O.3   640  B70640     -0.0691
     24  OAD       56.8190    7.9340   51.3240 O.3   640  B70640     -0.0691
@<TRIPOS>BOND
     1    22    21    1
     2    24    21    1
     3    15    14    1
     4    15    16    1
     5     9     8   ar
     6     9    12   ar
     7    14    13    1
     8     8     7   ar
     9    21    16    1
    10    21    23    1
    11    13    12    1
    12     5     4   ar
    13     5     6   ar
    14    12    11   ar
    15     4     3   ar
    16    16    17    1
    17     7     6    1
    18     7    10   ar
    19     6     1   ar
    20    11    10   ar
    21    19    17    2
    22     3     2   ar
    23    17    18    1
    24    17    20    1
    25     1     2   ar
