@<TRIPOS>MOLECULE
2zcv_NAP_A_1.pdb
 48 52 0 0 0
SMALL
GASTEIGER

@<TRIPOS>ATOM
      1  PA        21.8240   10.2480    7.2040 P.3   400  NAP400      0.2189
      2  O1A       21.8720    8.8340    7.6890 O.3   400  NAP400     -0.4371
      3  O2A       20.8080   10.5150    6.2040 O.2   400  NAP400     -0.5170
      4  O5B       23.2530   10.7690    6.5630 O.3   400  NAP400     -0.3112
      5  C5B       24.3940    9.9560    6.8590 C.3   400  NAP400      0.1813
      6  C4B       25.7580   10.1840    6.3750 C.3   400  NAP400      0.1820
      7  O4B       27.0370    9.9000    6.8780 O.3   400  NAP400     -0.3136
      8  C3B       25.6390    9.6500    4.9340 C.3   400  NAP400      0.2157
      9  O3B       25.3830   10.7480    4.0750 O.3   400  NAP400     -0.2175
     10  C2B       26.9690    8.9610    4.5250 C.3   400  NAP400      0.2314
     11  O2B       26.1600    7.6170    4.1510 O.3   400  NAP400     -0.2630
     12  C1B       27.8180    9.1940    5.8680 C.3   400  NAP400      0.3158
     13  N9A       28.3330    7.9210    6.5140 N.pl3 400  NAP400     -0.1439
     14  C8A       27.7600    7.0930    7.4890 C.3   400  NAP400      0.3377
     15  N7A       28.6650    6.0350    7.7280 N.2   400  NAP400     -0.2095
     16  C5A       29.7220    6.2480    6.9170 C.2   400  NAP400      0.2526
     17  C6A       31.0430    5.4230    6.7210 C.2   400  NAP400      0.4393
     18  N6A       31.3120    4.1990    7.4720 N.pl3 400  NAP400      0.2180
     19  N1A       32.0360    6.0380    5.6490 N.2   400  NAP400      0.0021
     20  C2A       31.6630    7.2900    4.9410 C.3   400  NAP400      0.5254
     21  N3A       30.4810    7.8770    5.2280 N.2   400  NAP400     -0.0055
     22  C4A       29.5330    7.3740    6.1890 C.2   400  NAP400      0.3518
     23  O3        21.5620   11.2780    8.3700 O.3   400  NAP400     -0.2703
     24  PN        20.9490   12.7190    8.1720 P.3   400  NAP400      0.2189
     25  O1N       19.5200   12.6930    8.4790 O.3   400  NAP400     -0.4371
     26  O2N       21.2250   13.1240    6.7770 O.2   400  NAP400     -0.5170
     27  O5D       21.6610   13.5170    9.3290 O.3   400  NAP400     -0.3112
     28  C5D       22.9150   13.9830    9.7870 C.3   400  NAP400      0.1813
     29  C4D       23.7810   13.4960   10.9830 C.3   400  NAP400      0.1799
     30  O4D       23.1850   13.7500   12.2290 O.3   400  NAP400     -0.3327
     31  C3D       23.8960   12.0270   10.6580 C.3   400  NAP400      0.2158
     32  O3D       25.1700   11.6140   10.3040 O.3   400  NAP400     -0.2175
     33  C2D       23.2910   11.3870   11.9200 C.3   400  NAP400      0.2309
     34  O2D       24.1960   10.4320   12.5640 O.3   400  NAP400     -0.2158
     35  C1D       22.8560   12.5610   12.8880 C.3   400  NAP400      0.2263
     36  N1N       21.3450   12.8820   13.3690 N.pl3 400  NAP400     -0.2787
     37  C2N       21.0230   14.0460   14.2950 C.3   400  NAP400      0.1244
     38  C3N       19.6650   14.2450   14.6670 C.2   400  NAP400      0.0544
     39  C7N       19.2680   15.3770   15.5720 C.2   400  NAP400      0.2818
     40  O7N       18.1070   15.5400   15.8800 O.2   400  NAP400     -0.2670
     41  N7N       20.2750   16.3090   16.1000 N.am  400  NAP400     -0.0839
     42  C4N       18.5880   13.2200   14.0800 C.2   400  NAP400      0.0033
     43  C5N       18.9280   12.1400   13.2150 C.2   400  NAP400      0.0157
     44  C6N       20.3970   11.9630   12.8350 C.2   400  NAP400      0.0633
     45  P2B       25.2450    7.0650    2.8980 P.3   400  NAP400      0.5328
     46  O1X       24.8930    5.7280    3.4270 O.3   400  NAP400     -0.1145
     47  O2X       24.0970    7.9870    2.7990 O.3   400  NAP400     -0.1145
     48  O3X       26.0740    7.0050    1.6730 O.2   400  NAP400     -0.2224
@<TRIPOS>BOND
     1    48    45    2
     2    47    45    1
     3    45    46    1
     4    45    11    1
     5     9     8    1
     6    11    10    1
     7    10     8    1
     8    10    12    1
     9     8     6    1
    10    20    21    1
    11    20    19    1
    12    21    22    2
    13    19    17    2
    14    12    13    1
    15    12     7    1
    16    22    13    1
    17    22    16    1
    18     3     1    2
    19     6     5    1
    20     6     7    1
    21    13    14    1
    22     4     5    1
    23     4     1    1
    24    17    16    1
    25    17    18    1
    26    26    24    2
    27    16    15    2
    28     1     2    1
    29     1    23    1
    30    14    15    1
    31    24    23    1
    32    24    25    1
    33    24    27    1
    34    27    28    1
    35    28    29    1
    36    32    31    1
    37    31    29    1
    38    31    33    1
    39    29    30    1
    40    33    34    1
    41    33    35    1
    42    30    35    1
    43    44    43    2
    44    44    36    1
    45    35    36    1
    46    43    42    1
    47    36    37    1
    48    42    38    2
    49    37    38    1
    50    38    39    1
    51    39    40    2
    52    39    41   am
