@<TRIPOS>MOLECULE
2zcy_SRG_1_1.pdb
 35 35 0 0 0
SMALL
GASTEIGER

@<TRIPOS>ATOM
      1  C8        21.4170 -161.7580   50.5260 C.2   7710  SRG7710     0.3401
      2  C6        23.5520 -160.0580   46.2750 C.3   7710  SRG7710     0.0023
      3  C5        23.5950 -162.4370   47.1470 C.3   7710  SRG7710     0.0023
      4  C4        22.7140 -161.1500   47.0310 C.3   7710  SRG7710     0.0311
      5  O2        20.2160 -159.5280   48.3060 O.co2 7710  SRG7710    -0.2437
      6  C1        21.4350 -159.4530   48.4820 C.2   7710  SRG7710     0.3843
      7  C3        22.3000 -160.6800   48.4520 C.3   7710  SRG7710     0.1993
      8  N7        21.5240 -161.7150   49.1700 N.am  7710  SRG7710    -0.1774
      9  O9        21.9690 -160.9140   51.2380 O.2   7710  SRG7710    -0.2492
     10  N36       20.6780 -162.7740   51.0690 N.am  7710  SRG7710    -0.1796
     11  C11       20.4860 -162.9350   52.5200 C.3   7710  SRG7710     0.1743
     12  C12       19.3780 -164.0330   52.7670 C.3   7710  SRG7710     0.0290
     13  C13       19.0780 -164.2950   54.2710 C.3   7710  SRG7710     0.0023
     14  C14       19.7690 -165.3860   52.1140 C.3   7710  SRG7710     0.0023
     15  C15       21.8220 -163.2900   53.1960 C.2   7710  SRG7710     0.2625
     16  O16       22.6690 -163.8930   52.5560 O.2   7710  SRG7710    -0.2714
     17  N17       21.9860 -162.9430   54.4890 N.am  7710  SRG7710    -0.1841
     18  C18       23.2080 -163.2680   55.2150 C.3   7710  SRG7710     0.2217
     19  C19       23.1220 -162.8610   56.6800 C.1   7710  SRG7710     0.1500
     20  O20       22.1160 -162.3060   57.1090 O.2   7710  SRG7710    -0.2250
     21  N21       24.2020 -163.1730   57.4330 N.2   7710  SRG7710    -0.2066
     22  C22       24.1410 -163.2130   58.8850 C.3   7710  SRG7710     0.1156
     23  C23       23.9610 -164.6460   59.4770 C.3   7710  SRG7710     0.0233
     24  C24       25.1130 -165.5890   59.0580 C.3   7710  SRG7710     0.0020
     25  C25       22.6520 -165.2820   58.9900 C.3   7710  SRG7710     0.0020
     26  C26       25.4270 -162.5100   59.3870 C.3   7710  SRG7710     0.0428
     27  C27       25.6410 -161.0920   58.7220 C.3   7710  SRG7710     0.1237
     28  C28       26.9380 -161.0950   57.9120 C.1   7710  SRG7710     0.1261
     29  O29       27.8670 -161.7660   58.3860 O.2   7710  SRG7710    -0.2270
     30  N30       27.1580 -160.4280   56.7100 N.2   7710  SRG7710    -0.2059
     31  C31       26.2390 -159.5840   55.9440 C.3   7710  SRG7710     0.1422
     32  C32       25.7230 -160.2970   54.6570 C.3   7710  SRG7710     0.0529
     33  C33       24.5770 -161.1870   55.0130 C.2   7710  SRG7710    -0.0258
     34  C34       24.4330 -162.4870   54.7090 C.2   7710  SRG7710     0.0073
     35  O35       22.0920 -158.3030   48.7600 O.co2 7710  SRG7710    -0.2437
@<TRIPOS>BOND
     1     2     4    1
     2     4     3    1
     3     4     7    1
     4     5     6   ar
     5     7     6    1
     6     7     8    1
     7     6    35   ar
     8     8     1   am
     9     1    10   am
    10     1     9    2
    11    10    11    1
    12    14    12    1
    13    11    12    1
    14    11    15    1
    15    16    15    2
    16    12    13    1
    17    15    17   am
    18    17    18    1
    19    32    33    1
    20    32    31    1
    21    34    33    2
    22    34    18    1
    23    18    19    1
    24    31    30    1
    25    19    20    2
    26    19    21    2
    27    30    28    2
    28    21    22    1
    29    28    29    2
    30    28    27    1
    31    27    26    1
    32    22    26    1
    33    22    23    1
    34    25    23    1
    35    24    23    1
