@<TRIPOS>MOLECULE
2zcz_TRP_A_1.pdb
 15 16 0 0 0
SMALL
GASTEIGER

@<TRIPOS>ATOM
      1  N         23.4420   16.7580   26.3580 N.3   100  TRP100     -0.1205
      2  CA        22.4090   17.0370   25.3110 C.3   100  TRP100      0.1984
      3  C         21.0270   16.4790   25.6650 C.2   100  TRP100      0.3822
      4  O         20.9110   15.3230   26.1120 O.co2 100  TRP100     -0.2440
      5  CB        22.8760   16.4430   23.9750 C.3   100  TRP100      0.0549
      6  CG        21.9770   16.7640   22.8050 C.2   100  TRP100     -0.0138
      7  CD1       20.9850   15.9830   22.2850 C.2   100  TRP100      0.0907
      8  CD2       22.0310   17.9420   21.9750 C.3   100  TRP100      0.0819
      9  NE1       20.3970   16.6020   21.1860 N.2   100  TRP100     -0.2482
     10  CE2       21.0160   17.8080   20.9860 C.2   100  TRP100      0.0665
     11  CE3       22.8300   19.1150   21.9820 C.2   100  TRP100     -0.0164
     12  CZ2       20.7970   18.7840   19.9900 C.2   100  TRP100      0.0153
     13  CZ3       22.5980   20.1040   20.9830 C.2   100  TRP100     -0.0038
     14  CH2       21.5900   19.9200   20.0110 C.2   100  TRP100      0.0009
     15  OXT       20.0100   17.1620   25.4430 O.co2 100  TRP100     -0.2440
@<TRIPOS>BOND
     1    12    14    2
     2    12    10    1
     3    14    13    1
     4    13    11    2
     5    10     9    2
     6    10     8    1
     7     9     7    1
     8     8    11    1
     9     8     6    1
    10     7     6    2
    11     6     5    1
    12     5     2    1
    13     2     3    1
    14     2     1    1
    15    15     3   ar
    16     3     4   ar
