@<TRIPOS>MOLECULE
2zd0_TRP_A_1.pdb
 15 16 0 0 0
SMALL
GASTEIGER

@<TRIPOS>ATOM
      1  N         28.4450   12.0400   24.0100 N.3   100  TRP100     -0.1205
      2  CA        28.9340   11.0860   22.9850 C.3   100  TRP100      0.1987
      3  C         30.0960   10.2230   23.4900 C.2   100  TRP100      0.3822
      4  O         31.0880   10.7040   24.0560 O.co2 100  TRP100     -0.2440
      5  CB        29.2950   11.8080   21.6730 C.3   100  TRP100      0.0585
      6  CG        29.4810   10.8430   20.5130 C.2   100  TRP100      0.0001
      7  CD1       30.6600   10.3370   20.0620 C.2   100  TRP100      0.0946
      8  CD2       28.4510   10.2600   19.6850 C.2   100  TRP100      0.0113
      9  NE1       30.4390    9.4850   19.0070 N.2   100  TRP100     -0.2442
     10  CE2       29.0950    9.4100   18.7590 C.2   100  TRP100      0.0804
     11  CE3       27.0530   10.3740   19.6370 C.2   100  TRP100     -0.0202
     12  CZ2       28.3950    8.6800   17.7950 C.2   100  TRP100      0.0148
     13  CZ3       26.3530    9.6470   18.6680 C.3   100  TRP100      0.0521
     14  CH2       27.0290    8.8200   17.7600 C.2   100  TRP100     -0.0199
     15  OXT       30.0700    8.9970   23.3540 O.co2 100  TRP100     -0.2440
@<TRIPOS>BOND
     1    14    12    2
     2    14    13    1
     3    12    10    1
     4    13    11    1
     5    10     9    2
     6    10     8    1
     7     9     7    1
     8    11     8    2
     9     8     6    1
    10     7     6    2
    11     6     5    1
    12     5     2    1
    13     2     3    1
    14     2     1    1
    15    15     3   ar
    16     3     4   ar
