@<TRIPOS>MOLECULE
2zd1_T27_A_1.pdb
 28 30 0 0 0
SMALL
GASTEIGER

@<TRIPOS>ATOM
      1  C1        49.9200  -25.0390   38.4010 C.ar  557  T27557     -0.0068
      2  N2        52.9220  -25.5230   33.4870 N.2   557  T27557     -0.1683
      3  C3        49.3570  -27.1390   39.6290 C.ar  557  T27557      0.0001
      4  C4        50.6730  -27.5810   39.4390 C.ar  557  T27557     -0.0030
      5  C5        51.6330  -26.8040   38.7590 C.ar  557  T27557     -0.0068
      6  C6        51.2560  -25.5110   38.2060 C.ar  557  T27557      0.0651
      7  C7        49.4380  -23.7010   37.8610 C.3   557  T27557      0.0324
      8  C2        48.9750  -25.8670   39.1020 C.ar  557  T27557     -0.0030
      9  C8        53.0200  -27.3930   38.6140 C.3   557  T27557      0.0324
     10  N1        52.2190  -24.7430   37.5090 N.pl3 557  T27557     -0.1834
     11  C9        53.4480  -24.3800   34.0610 C.2   557  T27557      0.1158
     12  C10       53.2610  -24.0380   35.4100 C.2   557  T27557      0.0720
     13  C11       52.4990  -24.9520   36.1440 C.2   557  T27557      0.2178
     14  N3        51.9820  -26.0780   35.5810 N.2   557  T27557     -0.3189
     15  C12       52.1950  -26.3490   34.2960 C.1   557  T27557      0.1709
     16  N4        51.6610  -27.5010   33.7170 N.pl3 557  T27557     -0.1357
     17  C13       49.7990  -31.0250   35.3120 C.ar  557  T27557      0.0685
     18  C14       50.2690  -31.0130   33.9770 C.ar  557  T27557      0.0116
     19  C15       50.8830  -29.8610   33.4410 C.ar  557  T27557      0.0180
     20  C16       51.0480  -28.6730   34.2210 C.ar  557  T27557      0.0826
     21  C17       50.5610  -28.7020   35.5700 C.ar  557  T27557      0.0180
     22  C18       49.9400  -29.8610   36.1130 C.ar  557  T27557      0.0116
     23  N5        48.6980  -33.1810   36.2720 N.1   557  T27557     -0.1908
     24  C19       49.1860  -32.2130   35.8450 C.1   557  T27557      0.1004
     25  C20       47.5920  -27.5910   41.3330 C.2   557  T27557      0.0780
     26  C21       48.3850  -27.9920   40.3450 C.2   557  T27557      0.0109
     27  N6        45.9750  -29.2160   42.5000 N.1   557  T27557     -0.1908
     28  C22       46.6980  -28.4860   41.9690 C.1   557  T27557      0.1011
@<TRIPOS>BOND
     1    19    18   ar
     2    19    20   ar
     3     2    11    1
     4     2    15    2
     5    16    20    1
     6    16    15    1
     7    18    17   ar
     8    11    12    2
     9    20    21   ar
    10    15    14    2
    11    17    24    1
    12    17    22   ar
    13    12    13    1
    14    21    22   ar
    15    14    13    2
    16    24    23    3
    17    13    10    1
    18    10     6    1
    19     7     1    1
    20     6     1   ar
    21     6     5   ar
    22     1     8   ar
    23     9     5    1
    24     5     4   ar
    25     8     3   ar
    26     4     3   ar
    27     3    26    1
    28    26    25    2
    29    25    28    1
    30    28    27    3
