@<TRIPOS>MOLECULE
2zd8_MER_A_1.pdb
 17 17 0 0 0
SMALL
GASTEIGER

@<TRIPOS>ATOM
      1  C1         8.3820   33.6250    5.5640 C.2   401  MER401      0.2115
      2  C2        10.7480   35.4750    2.1150 C.3   401  MER401      0.0957
      3  C3         8.0940   34.3040    4.2960 C.3   401  MER401      0.1175
      4  C4         9.1550   34.3660    3.2660 C.3   401  MER401      0.1141
      5  C5        11.4000   34.5840    2.8770 C.2   401  MER401      0.1428
      6  O6         9.1970   34.0140    6.3530 O.2   401  MER401     -0.2882
      7  C7         6.6720   34.4310    3.8720 C.3   401  MER401      0.1613
      8  O8         5.8460   34.0630    4.9710 O.3   401  MER401     -0.2226
      9  C9         6.3380   33.4760    2.7310 C.3   401  MER401      0.0360
     10  N10       10.5110   34.0870    3.8240 N.2   401  MER401     -0.2688
     11  C11       12.7610   34.2130    2.8770 C.2   401  MER401      0.4014
     12  O12       13.0980   33.4440    3.7860 O.co2 401  MER401     -0.2392
     13  O13       13.6210   34.4680    1.8900 O.co2 401  MER401     -0.2392
     14  S14       11.4660   36.4260    0.8900 S.3   401  MER401     -0.1339
     15  C15       12.2050   37.6840    1.9710 C.3   401  MER401      0.0695
     16  C18        9.2940   35.6960    2.4420 C.3   401  MER401      0.0387
     17  C20        9.0000   36.9080    3.1180 C.3   401  MER401      0.0033
@<TRIPOS>BOND
     1    14    15    1
     2    14     2    1
     3    13    11   ar
     4     2    16    1
     5     2     5    1
     6    16    17    1
     7    16     4    1
     8     9     7    1
     9    11     5    1
    10    11    12   ar
    11     5    10    2
    12     4    10    1
    13     4     3    1
    14     7     3    1
    15     7     8    1
    16     3     1    1
    17     1     6    2
