@<TRIPOS>MOLECULE
2zd8_MA4_A_1.pdb
 35 37 0 0 0
SMALL
GASTEIGER

@<TRIPOS>ATOM
      1  C1        35.8380   24.8170    2.7890 C.3   301  MA4301      0.2695
      2  C2        36.3380   24.1580    1.4870 C.3   301  MA4301      0.2406
      3  C3        35.9180   22.7020    1.3690 C.3   301  MA4301      0.2198
      4  C4        36.2700   21.9590    2.6230 C.3   301  MA4301      0.2144
      5  C5        35.7350   22.6890    3.8870 C.3   301  MA4301      0.1835
      6  C6        36.1310   21.9980    5.1610 C.3   301  MA4301      0.2142
      7  O2        35.8030   24.8870    0.3690 O.3   301  MA4301     -0.2149
      8  O3        36.5800   22.1300    0.2260 O.3   301  MA4301     -0.2174
      9  O5        36.2020   24.0240    3.9010 O.3   301  MA4301     -0.3256
     10  O6        37.5610   21.7980    5.2660 O.3   301  MA4301     -0.2176
     11  O1        34.4030   24.8730    2.7150 O.3   301  MA4301     -0.3257
     12  O4        35.6700   20.6590    2.5870 O.3   301  MA4301     -0.2176
     13  C10       31.3610   27.5260    3.2380 C.3   301  MA4301      0.2695
     14  C20       32.1810   27.7670    1.9590 C.3   301  MA4301      0.2404
     15  C30       32.9840   26.5240    1.7120 C.3   301  MA4301      0.2167
     16  C40       33.8320   26.1660    2.9220 C.3   301  MA4301      0.1804
     17  C50       32.9950   26.0980    4.1900 C.3   301  MA4301      0.1803
     18  C60       33.8130   25.9250    5.4750 C.3   301  MA4301      0.2141
     19  O10       30.6170   28.7430    3.4900 O.3   301  MA4301     -0.3286
     20  O20       31.3430   28.1180    0.8790 O.3   301  MA4301     -0.2149
     21  O30       33.7910   26.7100    0.5530 O.3   301  MA4301     -0.2175
     22  O50       32.2230   27.3210    4.3040 O.3   301  MA4301     -0.3257
     23  O60       34.7840   26.9670    5.5390 O.3   301  MA4301     -0.2176
     24  C11       29.5880   28.4930    4.4490 C.3   301  MA4301      0.1449
     25  C21       28.2980   28.0600    3.7430 C.3   301  MA4301      0.0322
     26  C31       27.2000   27.7690    4.7420 C.3   301  MA4301      0.0026
     27  C41       25.8660   27.5920    4.0690 C.3   301  MA4301      0.0001
     28  C51       24.6120   27.8580    4.8610 C.3   301  MA4301      0.0000
     29  C61       24.5790   27.3150    6.2330 C.3   301  MA4301      0.0000
     30  C12       23.2070   27.4190    6.9070 C.3   301  MA4301      0.0000
     31  C22       23.2330   27.9920    8.2880 C.3   301  MA4301      0.0000
     32  C32       23.0330   27.0730    9.5000 C.3   301  MA4301      0.0000
     33  C42       21.9610   26.0590    9.0500 C.3   301  MA4301      0.0000
     34  C52       22.7690   25.2130    8.0080 C.3   301  MA4301      0.0000
     35  C62       22.6180   26.0330    6.7510 C.3   301  MA4301      0.0000
@<TRIPOS>BOND
     1     8     3    1
     2     7     2    1
     3    21    15    1
     4    20    14    1
     5     3     2    1
     6     3     4    1
     7     2     1    1
     8    15    14    1
     9    15    16    1
    10    14    13    1
    11    12     4    1
    12     4     5    1
    13    11     1    1
    14    11    16    1
    15     1     9    1
    16    16    17    1
    17    13    19    1
    18    13    22    1
    19    19    24    1
    20    25    24    1
    21    25    26    1
    22     5     9    1
    23     5     6    1
    24    27    26    1
    25    27    28    1
    26    17    22    1
    27    17    18    1
    28    28    29    1
    29     6    10    1
    30    18    23    1
    31    29    30    1
    32    35    30    1
    33    35    34    1
    34    30    31    1
    35    34    33    1
    36    31    32    1
    37    33    32    1
