@<TRIPOS>MOLECULE
2zda_32U_H_1.pdb
 29 31 0 0 0
SMALL
GASTEIGER

@<TRIPOS>ATOM
      1  N13       16.4070  -15.9690   23.2170 N.3   1000  32U1000    -0.1228
      2  C5        17.7070  -15.2630   23.2930 C.3   1000  32U1000     0.1721
      3  C14       17.6420  -13.9000   22.6520 C.2   1000  32U1000     0.2437
      4  O32       16.7470  -13.1380   23.0070 O.2   1000  32U1000    -0.2733
      5  C33       18.2000  -15.1780   24.7660 C.3   1000  32U1000     0.0547
      6  C6        19.6330  -14.6780   24.8320 C.ar  1000  32U1000    -0.0202
      7  C8        20.7020  -15.4890   24.4400 C.ar  1000  32U1000    -0.0042
      8  C12       19.8990  -13.3910   25.2910 C.ar  1000  32U1000    -0.0042
      9  C9        22.0080  -15.0060   24.5090 C.ar  1000  32U1000    -0.0003
     10  C11       21.1970  -12.9070   25.3620 C.ar  1000  32U1000    -0.0003
     11  C10       22.2700  -13.7180   24.9670 C.ar  1000  32U1000    -0.0000
     12  N1        18.5340  -13.4950   21.7020 N.am  1000  32U1000    -0.2718
     13  C1        18.4020  -12.1880   21.1060 C.3   1000  32U1000     0.1535
     14  C7        17.0550  -12.0990   20.4110 C.2   1000  32U1000     0.2598
     15  O22       16.6070  -13.0590   19.7980 O.2   1000  32U1000    -0.2715
     16  C2        19.4930  -12.2580   19.9960 C.3   1000  32U1000     0.0310
     17  C3        20.5540  -13.1510   20.6840 C.3   1000  32U1000     0.0237
     18  C4        19.7150  -14.2790   21.3400 C.3   1000  32U1000     0.0939
     19  N23       16.4400  -10.8940   20.4880 N.am  1000  32U1000    -0.1992
     20  C24       15.1610  -10.8260   19.7490 C.3   1000  32U1000     0.1415
     21  C25       14.0560  -10.8140   20.8210 C.ar  1000  32U1000    -0.0006
     22  C26       13.6330  -12.0110   21.3850 C.ar  1000  32U1000    -0.0023
     23  C27       12.6360  -12.0280   22.3570 C.ar  1000  32U1000     0.0077
     24  C28       12.0380  -10.8380   22.7830 C.ar  1000  32U1000     0.0975
     25  C21       10.8850  -10.8290   23.9030 C.2   1000  32U1000     0.4766
     26  N46       10.5950   -9.6970   24.5280 N.pl3 1000  32U1000     0.2047
     27  N47       10.2350  -11.9340   24.1950 N.pl3 1000  32U1000     0.2047
     28  C29       12.4720   -9.6480   22.2100 C.ar  1000  32U1000     0.0077
     29  C30       13.4720   -9.6230   21.2350 C.ar  1000  32U1000    -0.0023
@<TRIPOS>BOND
     1    20    19    1
     2    20    21    1
     3    15    14    2
     4    16    17    1
     5    16    13    1
     6    14    19   am
     7    14    13    1
     8    17    18    1
     9    21    29   ar
    10    21    22   ar
    11    13    12    1
    12    29    28   ar
    13    18    12    1
    14    22    23   ar
    15    12     3   am
    16    28    24   ar
    17    23    24   ar
    18     3     4    2
    19     3     2    1
    20    24    25    1
    21     1     2    1
    22     2     5    1
    23    25    27    2
    24    25    26    1
    25     7     9   ar
    26     7     6   ar
    27     9    11   ar
    28     5     6    1
    29     6     8   ar
    30    11    10   ar
    31     8    10   ar
