@<TRIPOS>MOLECULE
2zdg_ADP_A_1.pdb
 27 29 0 0 0
SMALL
GASTEIGER

@<TRIPOS>ATOM
      1  PB         6.1610   41.0960   52.0210 P.3   401  ADP401      0.5373
      2  O1B        7.1910   40.1490   52.4920 O.3   401  ADP401     -0.1143
      3  O2B        5.0070   40.2840   51.2200 O.3   401  ADP401     -0.1143
      4  O3B        6.8430   42.1760   51.0530 O.2   401  ADP401     -0.2221
      5  PA         4.3150   42.8330   52.9640 P.3   401  ADP401      0.2231
      6  O1A        4.8500   44.1550   52.6010 O.3   401  ADP401     -0.4370
      7  O2A        3.4180   42.2420   51.7570 O.2   401  ADP401     -0.5169
      8  O3A        5.5500   41.8320   53.3280 O.3   401  ADP401     -0.2261
      9  O5'        3.4000   42.9780   54.2700 O.3   401  ADP401     -0.3111
     10  C5'        3.1440   41.6470   54.7630 C.3   401  ADP401      0.1813
     11  C4'        1.8700   41.6330   55.6150 C.3   401  ADP401      0.1821
     12  O4'        1.9830   42.5860   56.7140 O.3   401  ADP401     -0.3135
     13  C3'        0.6270   42.0380   54.7910 C.3   401  ADP401      0.2184
     14  O3'       -0.0360   40.8870   54.2630 O.3   401  ADP401     -0.2174
     15  C2'       -0.2400   42.8040   55.7870 C.3   401  ADP401      0.2570
     16  O2'       -1.1930   41.9420   56.4180 O.3   401  ADP401     -0.2130
     17  C1'        0.7570   43.3860   56.7910 C.3   401  ADP401      0.3186
     18  N9         1.0330   44.7970   56.4800 N.pl3 401  ADP401     -0.1439
     19  C8         2.1150   45.2990   55.8150 C.3   401  ADP401      0.3377
     20  N7         2.0350   46.5840   55.7270 N.2   401  ADP401     -0.2095
     21  C5         0.9030   47.0040   56.3260 C.2   401  ADP401      0.2526
     22  C6         0.2940   48.2600   56.5470 C.2   401  ADP401      0.4393
     23  N6         0.8990   49.4110   56.0970 N.pl3 401  ADP401      0.2180
     24  N1        -0.8890   48.3080   57.2100 N.2   401  ADP401      0.0021
     25  C2        -1.4900   47.1940   57.6570 C.3   401  ADP401      0.5254
     26  N3        -0.9430   45.9870   57.4700 N.2   401  ADP401     -0.0055
     27  C4         0.2350   45.8530   56.8190 C.2   401  ADP401      0.3518
@<TRIPOS>BOND
     1     4     1    2
     2     3     1    1
     3     7     5    2
     4     1     2    1
     5     1     8    1
     6     6     5    1
     7     5     8    1
     8     5     9    1
     9    14    13    1
    10     9    10    1
    11    10    11    1
    12    13    11    1
    13    13    15    1
    14    11    12    1
    15    20    19    1
    16    20    21    2
    17    15    16    1
    18    15    17    1
    19    19    18    1
    20    23    22    1
    21    21    22    1
    22    21    27    1
    23    18    17    1
    24    18    27    1
    25    22    24    2
    26    12    17    1
    27    27    26    2
    28    24    25    1
    29    26    25    1
