@<TRIPOS>MOLECULE
2zdh_ADP_A_1.pdb
 27 29 0 0 0
SMALL
GASTEIGER

@<TRIPOS>ATOM
      1  PB        10.8810   15.3400  -14.3620 P.3   701  ADP701      0.5373
      2  O1B       11.7580   16.4660  -13.9980 O.3   701  ADP701     -0.1143
      3  O2B        9.5220   15.4650  -13.5360 O.3   701  ADP701     -0.1143
      4  O3B       11.6140   13.9690  -14.0260 O.2   701  ADP701     -0.2221
      5  PA         9.3220   14.7500  -16.5980 P.3   701  ADP701      0.2231
      6  O1A        9.7750   13.6710  -17.5210 O.2   701  ADP701     -0.5169
      7  O2A        8.3210   14.1220  -15.5500 O.3   701  ADP701     -0.4370
      8  O3A       10.6540   15.4470  -15.9540 O.3   701  ADP701     -0.2261
      9  O5'        8.5800   15.8770  -17.4710 O.3   701  ADP701     -0.3111
     10  C5'        8.1230   16.9020  -16.5810 C.3   701  ADP701      0.1813
     11  C4'        6.8260   17.4870  -17.1330 C.3   701  ADP701      0.1821
     12  O4'        6.9930   17.8360  -18.5410 O.3   701  ADP701     -0.3135
     13  C3'        5.6730   16.4810  -17.0870 C.3   701  ADP701      0.2184
     14  O3'        5.0390   16.4600  -15.8100 O.3   701  ADP701     -0.2174
     15  C2'        4.7840   16.9710  -18.2220 C.3   701  ADP701      0.2570
     16  O2'        3.9320   18.0530  -17.7860 O.3   701  ADP701     -0.2130
     17  C1'        5.8010   17.4230  -19.2780 C.3   701  ADP701      0.3186
     18  N9         6.1280   16.3200  -20.2240 N.pl3 701  ADP701     -0.1439
     19  C8         7.2560   15.5310  -20.2320 C.3   701  ADP701      0.3377
     20  N7         7.2080   14.6690  -21.2100 N.2   701  ADP701     -0.2095
     21  C5         6.0530   14.8470  -21.8920 C.2   701  ADP701      0.2526
     22  C6         5.4530   14.2370  -23.0210 C.2   701  ADP701      0.4393
     23  N6         6.0940   13.1970  -23.6800 N.pl3 701  ADP701      0.2180
     24  N1         4.2470   14.6890  -23.4440 N.2   701  ADP701      0.0021
     25  C2         3.6110   15.6920  -22.8210 C.3   701  ADP701      0.5254
     26  N3         4.1410   16.2940  -21.7560 N.2   701  ADP701     -0.0055
     27  C4         5.3430   15.9090  -21.2650 C.2   701  ADP701      0.3518
@<TRIPOS>BOND
     1    23    22    1
     2    24    22    2
     3    24    25    1
     4    22    21    1
     5    25    26    1
     6    21    27    1
     7    21    20    2
     8    26    27    2
     9    27    18    1
    10    20    19    1
    11    19    18    1
    12    18    17    1
    13    17    12    1
    14    17    15    1
    15    12    11    1
    16    15    16    1
    17    15    13    1
    18     6     5    2
    19     9     5    1
    20     9    10    1
    21    11    13    1
    22    11    10    1
    23    13    14    1
    24     5     8    1
    25     5     7    1
    26     8     1    1
    27     1     4    2
    28     1     2    1
    29     1     3    1
