@<TRIPOS>MOLECULE
2zdk_50U_A_1.pdb
 28 30 0 0 0
SMALL
GASTEIGER

@<TRIPOS>ATOM
      1  C44      -29.0880   -0.3620   18.8720 C.3   501  50U501      0.0005
      2  C45      -30.5990   -0.3640   18.5680 C.3   501  50U501      0.0000
      3  C46      -31.0910   -1.7790   18.2420 C.3   501  50U501      0.0000
      4  C47      -30.6150   -2.9330   19.1270 C.3   501  50U501      0.0000
      5  C48      -29.1740   -2.8440   19.6310 C.3   501  50U501      0.0000
      6  C49      -28.7730   -1.3790   19.9770 C.3   501  50U501      0.0000
      7  C43      -28.5040    1.0490   19.1550 C.3   501  50U501      0.0096
      8  C5       -28.5150    2.0160   17.9480 C.3   501  50U501      0.0853
      9  C14      -27.7110    1.4180   16.7930 C.2   501  50U501      0.2259
     10  O32      -26.5330    1.2180   17.0320 O.2   501  50U501     -0.2749
     11  N1       -28.2180    1.1660   15.6290 N.am  501  50U501     -0.2730
     12  C1       -27.3600    0.6920   14.5660 C.3   501  50U501      0.1535
     13  C7       -26.2580    1.6720   14.2550 C.2   501  50U501      0.2598
     14  O22      -26.4490    2.8830   14.2990 O.2   501  50U501     -0.2715
     15  C2       -28.4040    0.6790   13.4290 C.3   501  50U501      0.0310
     16  C3       -29.8010    0.6590   14.0610 C.3   501  50U501      0.0237
     17  C4       -29.6640    1.2570   15.4840 C.3   501  50U501      0.0939
     18  N23      -25.1720    1.0840   13.9540 N.am  501  50U501     -0.1992
     19  C24      -24.0160    1.8370   13.5330 C.3   501  50U501      0.1415
     20  C25      -22.8910    1.6630   14.5790 C.ar  501  50U501     -0.0006
     21  C26      -23.1280    2.0080   15.9130 C.ar  501  50U501     -0.0023
     22  C27      -22.1060    1.8500   16.8660 C.ar  501  50U501      0.0077
     23  C28      -20.8550    1.3520   16.4840 C.ar  501  50U501      0.0975
     24  C21      -19.7110    1.1550   17.4450 C.2   501  50U501      0.4766
     25  N46      -19.5400    1.9560   18.4330 N.pl3 501  50U501      0.2047
     26  N47      -18.9210    0.1650   17.2410 N.pl3 501  50U501      0.2047
     27  C29      -20.6190    1.0040   15.1340 C.ar  501  50U501      0.0077
     28  C30      -21.6500    1.1670   14.1960 C.ar  501  50U501     -0.0023
@<TRIPOS>BOND
     1    15    16    1
     2    15    12    1
     3    19    18    1
     4    19    20    1
     5    18    13   am
     6    16    17    1
     7    28    20   ar
     8    28    27   ar
     9    13    14    2
    10    13    12    1
    11    12    11    1
    12    20    21   ar
    13    27    23   ar
    14    17    11    1
    15    11     9   am
    16    21    22   ar
    17    23    22   ar
    18    23    24    1
    19     9    10    2
    20     9     8    1
    21    26    24    2
    22    24    25    1
    23     8     7    1
    24     3     2    1
    25     3     4    1
    26     2     1    1
    27     1     7    1
    28     1     6    1
    29     4     5    1
    30     5     6    1
