@<TRIPOS>MOLECULE
2zdl_45U_A_1.pdb
 27 29 0 0 0
SMALL
GASTEIGER

@<TRIPOS>ATOM
      1  O32      -27.1140    1.2500   17.3120 O.2   501  45U501     -0.2721
      2  C14      -28.2890    1.2680   16.9750 C.2   501  45U501      0.2562
      3  C5       -29.2010    1.5240   18.1660 C.3   501  45U501      0.2270
      4  O21      -30.2100    0.5790   18.2950 O.3   501  45U501     -0.3470
      5  C44      -30.4210   -0.5130   19.1540 C.3   501  45U501      0.1159
      6  C49      -29.0460   -1.2220   19.2190 C.3   501  45U501      0.0296
      7  C48      -29.2770   -2.6990   19.5300 C.3   501  45U501      0.0026
      8  C47      -30.7170   -2.9980   19.2280 C.3   501  45U501      0.0026
      9  C45      -31.2390   -1.7150   18.5130 C.3   501  45U501      0.0296
     10  N1       -28.6000    1.0760   15.6800 N.am  501  45U501     -0.2709
     11  C1       -27.6310    0.5370   14.7420 C.3   501  45U501      0.1536
     12  C7       -26.5880    1.6070   14.5670 C.2   501  45U501      0.2598
     13  O22      -26.7650    2.7840   14.8010 O.2   501  45U501     -0.2715
     14  C2       -28.4420    0.4190   13.4560 C.3   501  45U501      0.0310
     15  C3       -29.8100    1.0510   13.6610 C.3   501  45U501      0.0237
     16  C4       -30.0450    1.0760   15.1600 C.3   501  45U501      0.0940
     17  N23      -25.4480    1.1950   14.0890 N.am  501  45U501     -0.1992
     18  C24      -24.3670    2.0320   13.5620 C.3   501  45U501      0.1415
     19  C25      -23.2710    1.8660   14.6350 C.ar  501  45U501     -0.0006
     20  C30      -23.3580    2.1610   15.9910 C.ar  501  45U501     -0.0023
     21  C29      -22.2870    1.9780   16.9340 C.ar  501  45U501      0.0077
     22  C28      -21.0350    1.4970   16.6720 C.ar  501  45U501      0.0975
     23  C21      -19.8770    1.2890   17.6450 C.2   501  45U501      0.4766
     24  N47      -19.7140    2.0500   18.7200 N.pl3 501  45U501      0.2047
     25  N46      -19.0610    0.2870   17.3180 N.pl3 501  45U501      0.2047
     26  C27      -20.9680    1.2070   15.3150 C.ar  501  45U501      0.0077
     27  C26      -22.0060    1.3780   14.3650 C.ar  501  45U501     -0.0023
@<TRIPOS>BOND
     1    14    15    1
     2    14    11    1
     3    18    17    1
     4    18    19    1
     5    15    16    1
     6    17    12   am
     7    27    19   ar
     8    27    26   ar
     9    12    11    1
    10    12    13    2
    11    19    20   ar
    12    11    10    1
    13    16    10    1
    14    26    22   ar
    15    10     2   am
    16    20    21   ar
    17    22    21   ar
    18    22    23    1
    19     2     1    2
    20     2     3    1
    21    25    23    2
    22    23    24    1
    23     3     4    1
    24     4     5    1
    25     9     5    1
    26     9     8    1
    27     5     6    1
    28     6     7    1
    29     8     7    1
