@<TRIPOS>MOLECULE
2zdm_46U_A_1.pdb
 28 30 0 0 0
SMALL
GASTEIGER

@<TRIPOS>ATOM
      1  O32      -26.6630    1.1520   17.1460 O.2   501  46U501     -0.2721
      2  C14      -27.8210    1.2100   16.7650 C.2   501  46U501      0.2562
      3  C5       -28.7790    1.6750   17.8730 C.3   501  46U501      0.2270
      4  O21      -29.5470    0.7560   18.6000 O.3   501  46U501     -0.3470
      5  C44      -29.3230   -0.6090   18.7210 C.3   501  46U501      0.1159
      6  C49      -30.5900   -1.4470   18.7640 C.3   501  46U501      0.0296
      7  C48      -30.4370   -2.9300   18.9920 C.3   501  46U501      0.0025
      8  C47      -29.7920   -2.9940   20.3180 C.3   501  46U501      0.0002
      9  C46      -28.4840   -2.2660   20.3640 C.3   501  46U501      0.0025
     10  C45      -28.6890   -0.8300   20.0270 C.3   501  46U501      0.0296
     11  N1       -28.2210    0.9450   15.5780 N.am  501  46U501     -0.2709
     12  C1       -27.1950    0.5070   14.6360 C.3   501  46U501      0.1536
     13  C7       -26.0800    1.5080   14.3320 C.2   501  46U501      0.2598
     14  O22      -26.2290    2.7270   14.4250 O.2   501  46U501     -0.2715
     15  C2       -27.8160    0.2810   13.2540 C.3   501  46U501      0.0310
     16  C3       -29.2250    0.8260   13.4310 C.3   501  46U501      0.0237
     17  C4       -29.5640    0.8420   14.9210 C.3   501  46U501      0.0940
     18  N23      -24.8470    1.0860   13.9490 N.am  501  46U501     -0.1992
     19  C24      -23.6840    1.9440   13.6630 C.3   501  46U501      0.1415
     20  C25      -22.5750    1.7540   14.6850 C.ar  501  46U501     -0.0006
     21  C30      -22.7000    2.0540   16.0500 C.ar  501  46U501     -0.0023
     22  C29      -21.6540    1.8630   16.9540 C.ar  501  46U501      0.0077
     23  C28      -20.4690    1.3680   16.4970 C.ar  501  46U501      0.0975
     24  C21      -19.3280    1.1530   17.4440 C.2   501  46U501      0.4766
     25  N46      -18.5040    0.1500   17.2140 N.pl3 501  46U501      0.2047
     26  N47      -19.1320    1.9360   18.4910 N.pl3 501  46U501      0.2047
     27  C27      -20.3190    1.0630   15.1510 C.ar  501  46U501      0.0077
     28  C26      -21.3520    1.2480   14.2390 C.ar  501  46U501     -0.0023
@<TRIPOS>BOND
     1    15    16    1
     2    15    12    1
     3    16    17    1
     4    19    18    1
     5    19    20    1
     6    18    13   am
     7    28    20   ar
     8    28    27   ar
     9    13    14    2
    10    13    12    1
    11    12    11    1
    12    20    21   ar
    13    17    11    1
    14    27    23   ar
    15    11     2   am
    16    21    22   ar
    17    23    22   ar
    18    23    24    1
    19     2     1    2
    20     2     3    1
    21    25    24    2
    22    24    26    1
    23     3     4    1
    24     4     5    1
    25     5     6    1
    26     5    10    1
    27     6     7    1
    28     7     8    1
    29    10     9    1
    30     8     9    1
