@<TRIPOS>MOLECULE
2zdn_49U_A_1.pdb
 27 29 0 0 0
SMALL
GASTEIGER

@<TRIPOS>ATOM
      1  C47      -31.2940   -1.9020   18.7110 C.3   501  49U501      0.0000
      2  C45      -30.6810   -0.5410   18.2600 C.3   501  49U501      0.0000
      3  C44      -29.1640   -0.6340   18.6100 C.3   501  49U501      0.0005
      4  C49      -29.1170   -1.6550   19.7750 C.3   501  49U501      0.0000
      5  C48      -30.2290   -2.6770   19.4830 C.3   501  49U501      0.0000
      6  C21      -28.4740    0.6340   19.1180 C.3   501  49U501      0.0096
      7  C5       -28.5490    1.6470   18.0200 C.3   501  49U501      0.0853
      8  C14      -27.6260    1.3410   16.8970 C.2   501  49U501      0.2259
      9  O32      -26.4130    1.2220   17.0330 O.2   501  49U501     -0.2749
     10  N1       -28.1900    1.2020   15.7020 N.am  501  49U501     -0.2730
     11  C1       -27.4160    0.7930   14.5370 C.3   501  49U501      0.1535
     12  C7       -26.2180    1.6490   14.2790 C.2   501  49U501      0.2598
     13  O22      -26.2630    2.8550   14.4520 O.2   501  49U501     -0.2715
     14  C2       -28.4510    0.9520   13.4430 C.3   501  49U501      0.0310
     15  C3       -29.8480    0.9250   14.0150 C.3   501  49U501      0.0237
     16  C4       -29.6150    1.4530   15.4150 C.3   501  49U501      0.0939
     17  N23      -25.0840    1.1450   13.8960 N.am  501  49U501     -0.1992
     18  C24      -23.8870    1.8350   13.5870 C.3   501  49U501      0.1415
     19  C25      -22.8330    1.6870   14.6120 C.ar  501  49U501     -0.0006
     20  C30      -23.0260    1.9730   15.9290 C.ar  501  49U501     -0.0023
     21  C29      -21.9870    1.8100   16.8380 C.ar  501  49U501      0.0077
     22  C28      -20.7410    1.3600   16.4560 C.ar  501  49U501      0.0975
     23  C9       -19.6160    1.1830   17.4360 C.2   501  49U501      0.4766
     24  N46      -19.4740    2.0300   18.4450 N.pl3 501  49U501      0.2047
     25  N47      -18.7650    0.1810   17.2910 N.pl3 501  49U501      0.2047
     26  C27      -20.5600    1.0730   15.1090 C.ar  501  49U501      0.0077
     27  C26      -21.5910    1.2310   14.1800 C.ar  501  49U501     -0.0023
@<TRIPOS>BOND
     1    14    15    1
     2    14    11    1
     3    18    17    1
     4    18    19    1
     5    17    12   am
     6    15    16    1
     7    27    19   ar
     8    27    26   ar
     9    12    13    2
    10    12    11    1
    11    11    10    1
    12    19    20   ar
    13    26    22   ar
    14    16    10    1
    15    10     8   am
    16    20    21   ar
    17    22    21   ar
    18    22    23    1
    19     8     9    2
    20     8     7    1
    21    25    23    2
    22    23    24    1
    23     7     6    1
    24     2     3    1
    25     2     1    1
    26     3     6    1
    27     3     4    1
    28     1     5    1
    29     5     4    1
