@<TRIPOS>MOLECULE
2zdo_HEM_A_1.pdb
 43 50 0 0 0
SMALL
GASTEIGER

@<TRIPOS>ATOM
      1 FE         57.2910   -8.6050   -2.9240 Fe    200  HEM200      0.0000
      2  CHA       58.0070  -10.2260   -0.1530 C.2   200  HEM200      0.0000
      3  CHB       56.1240  -11.3740   -4.4940 C.2   200  HEM200      0.0000
      4  CHC       57.5610   -6.9560   -5.8300 C.2   200  HEM200      0.0000
      5  CHD       56.5020   -5.7420   -1.3080 C.2   200  HEM200      0.0000
      6  NA        57.0890  -10.4940   -2.4150 N.ar  200  HEM200      0.0000
      7  C1A       57.4280  -10.9890   -1.1640 C.ar  200  HEM200      0.0000
      8  C2A       57.0320  -12.3830   -1.1240 C.ar  200  HEM200      0.0000
      9  C3A       56.5090  -12.6930   -2.3300 C.ar  200  HEM200      0.0000
     10  C4A       56.5460  -11.5140   -3.1710 C.ar  200  HEM200      0.0000
     11  CMA       55.9480  -14.0650   -2.7650 C.3   200  HEM200      0.0000
     12  CAA       57.2030  -13.3050    0.1110 C.3   200  HEM200      0.0000
     13  CBA       58.6200  -13.8630    0.1580 C.3   200  HEM200      0.0000
     14  CGA       58.7390  -14.9630    1.1820 C.2   200  HEM200      0.0000
     15  O1A       58.8040  -14.6770    2.4040 O.co2 200  HEM200      0.0000
     16  O2A       58.7700  -16.1480    0.7670 O.co2 200  HEM200      0.0000
     17  NB        56.8740   -9.0980   -4.8930 N.2   200  HEM200      0.0000
     18  C1B       56.4470  -10.3240   -5.3330 C.2   200  HEM200      0.0000
     19  C2B       56.4290  -10.2490   -6.7950 C.2   200  HEM200      0.0000
     20  C3B       56.8440   -9.0210   -7.1470 C.2   200  HEM200      0.0000
     21  C4B       57.1300   -8.2620   -5.9450 C.2   200  HEM200      0.0000
     22  CMB       56.0360  -11.3780   -7.7750 C.3   200  HEM200      0.0000
     23  CAB       56.9810   -8.4670   -8.5790 C.2   200  HEM200      0.0000
     24  CBB       56.4060   -7.2980   -8.8670 C.2   200  HEM200      0.0000
     25  NC        57.0790   -6.6780   -3.4680 N.ar  200  HEM200      0.0000
     26  C1C       57.2390   -6.1630   -4.7460 C.ar  200  HEM200      0.0000
     27  C2C       57.0380   -4.7270   -4.6960 C.ar  200  HEM200      0.0000
     28  C3C       56.7260   -4.4120   -3.4340 C.ar  200  HEM200      0.0000
     29  C4C       56.7360   -5.6250   -2.6520 C.ar  200  HEM200      0.0000
     30  CMC       57.1320   -3.7230   -5.8730 C.3   200  HEM200      0.0000
     31  CAC       56.4190   -3.0130   -2.8790 C.2   200  HEM200      0.0000
     32  CBC       55.2340   -2.8010   -2.3200 C.2   200  HEM200      0.0000
     33  ND        57.2510   -8.0580   -0.9910 N.2   200  HEM200      0.0000
     34  C1D       56.9760   -6.7800   -0.5420 C.2   200  HEM200      0.0000
     35  C2D       57.3180   -6.7020    0.8460 C.2   200  HEM200      0.0000
     36  C3D       57.7990   -8.0960    1.2310 C.2   200  HEM200      0.0000
     37  C4D       57.7120   -8.8960    0.0170 C.2   200  HEM200      0.0000
     38  CMD       57.1940   -5.4800    1.7770 C.3   200  HEM200      0.0000
     39  CAD       58.3030   -8.4970    2.6220 C.3   200  HEM200      0.0000
     40  CBD       59.6520   -7.7460    2.7590 C.3   200  HEM200      0.0000
     41  CGD       60.3230   -8.0660    4.0760 C.2   200  HEM200      0.0000
     42  O1D       59.6900   -8.6560    4.9850 O.co2 200  HEM200      0.0000
     43  O2D       61.5170   -7.7190    4.2100 O.co2 200  HEM200      0.0000
@<TRIPOS>BOND
     1    24    23    2
     2    23    20    1
     3    22    19    1
     4    20    19    2
     5    20    21    1
     6    19    18    1
     7    21     4    2
     8    21    17    1
     9    30    27    1
    10     4    26    1
    11    18    17    2
    12    18     3    1
    13    17     1    1
    14    26    27   ar
    15    26    25   ar
    16    27    28   ar
    17     3    10    2
    18    25     1    1
    19    25    29   ar
    20    28    31    1
    21    28    29   ar
    22    10     6   ar
    23    10     9   ar
    24     1     6    1
    25     1    33    1
    26    31    32    2
    27    11     9    1
    28    29     5    1
    29     6     7   ar
    30     9     8   ar
    31     5    34    2
    32     7     8   ar
    33     7     2    2
    34     8    12    1
    35    33    34    1
    36    33    37    2
    37    34    35    1
    38     2    37    1
    39    37    36    1
    40    12    13    1
    41    13    14    1
    42    16    14   ar
    43    35    36    2
    44    35    38    1
    45    14    15   ar
    46    36    39    1
    47    39    40    1
    48    40    41    1
    49    41    43   ar
    50    41    42   ar
