@<TRIPOS>MOLECULE
2zdp_COH_A_1.pdb
 43 50 0 0 0
SMALL
GASTEIGER

@<TRIPOS>ATOM
      1 CO         -8.6470   19.6190   44.9570 Co.oh 200  COH200      0.0000
      2  CHA      -10.3380   18.1710   47.4080 C.2   200  COH200      0.0000
      3  CHB       -9.8670   17.5760   42.6340 C.2   200  COH200      0.0000
      4  CHC       -5.8620   20.1990   43.2550 C.2   200  COH200      0.0000
      5  CHD       -8.6640   22.6290   46.3130 C.2   200  COH200      0.0000
      6  NA        -9.8550   18.1040   45.0290 N.ar  200  COH200      0.0000
      7  C1A      -10.5690   17.6820   46.1320 C.ar  200  COH200      0.0000
      8  C2A      -11.5390   16.6910   45.6720 C.ar  200  COH200      0.0000
      9  C3A      -11.4100   16.5480   44.3430 C.ar  200  COH200      0.0000
     10  C4A      -10.3430   17.4310   43.9210 C.ar  200  COH200      0.0000
     11  CMA      -12.2130   15.6320   43.3790 C.3   200  COH200      0.0000
     12  CAA      -12.5720   15.9740   46.5620 C.3   200  COH200      0.0000
     13  CBA      -11.8460   15.0270   47.5040 C.3   200  COH200      0.0000
     14  CGA      -11.8560   13.6160   46.9790 C.2   200  COH200      0.0000
     15  O1A      -12.4620   13.3380   45.9020 O.co2 200  COH200      0.0000
     16  O2A      -11.2530   12.7540   47.6650 O.co2 200  COH200      0.0000
     17  NB        -7.9700   18.9780   43.2200 N.2   200  COH200      0.0000
     18  C1B       -8.6370   18.1180   42.3750 C.2   200  COH200      0.0000
     19  C2B       -7.7740   17.8930   41.2300 C.2   200  COH200      0.0000
     20  C3B       -6.6670   18.6130   41.4080 C.2   200  COH200      0.0000
     21  C4B       -6.7580   19.3240   42.6750 C.2   200  COH200      0.0000
     22  CMB       -8.0920   17.0040   40.0100 C.3   200  COH200      0.0000
     23  CAB       -5.4720   18.6610   40.4290 C.2   200  COH200      0.0000
     24  CBB       -4.2250   18.8200   40.8960 C.2   200  COH200      0.0000
     25  NC        -7.4540   21.1680   44.8120 N.ar  200  COH200      0.0000
     26  C1C       -6.2930   21.2310   44.0550 C.ar  200  COH200      0.0000
     27  C2C       -5.7210   22.5390   44.2360 C.ar  200  COH200      0.0000
     28  C3C       -6.5050   23.2300   45.0840 C.ar  200  COH200      0.0000
     29  C4C       -7.6100   22.3530   45.4750 C.ar  200  COH200      0.0000
     30  CMC       -4.4230   23.0160   43.5520 C.3   200  COH200      0.0000
     31  CAC       -6.3100   24.6770   45.5800 C.2   200  COH200      0.0000
     32  CBC       -6.1190   25.6800   44.7080 C.2   200  COH200      0.0000
     33  ND        -9.4100   20.3250   46.6160 N.2   200  COH200      0.0000
     34  C1D       -9.2710   21.6340   47.0400 C.2   200  COH200      0.0000
     35  C2D       -9.8130   21.7350   48.3620 C.2   200  COH200      0.0000
     36  C3D      -10.3150   20.3510   48.7280 C.2   200  COH200      0.0000
     37  C4D      -10.0240   19.5120   47.5770 C.2   200  COH200      0.0000
     38  CMD       -9.8690   23.0110   49.2310 C.3   200  COH200      0.0000
     39  CAD      -10.9500   19.9330   50.0660 C.3   200  COH200      0.0000
     40  CBD       -9.7630   19.7070   51.0240 C.3   200  COH200      0.0000
     41  CGD      -10.1910   19.2920   52.4210 C.2   200  COH200      0.0000
     42  O1D       -9.3020   19.1700   53.2950 O.co2 200  COH200      0.0000
     43  O2D      -11.4160   19.1250   52.6620 O.co2 200  COH200      0.0000
@<TRIPOS>BOND
     1    22    19    1
     2    23    24    2
     3    23    20    1
     4    19    20    2
     5    19    18    1
     6    20    21    1
     7    18     3    1
     8    18    17    2
     9     3    10    2
    10    21    17    1
    11    21     4    2
    12    17     1    1
    13     4    26    1
    14    11     9    1
    15    30    27    1
    16    10     9   ar
    17    10     6   ar
    18    26    27   ar
    19    26    25   ar
    20    27    28   ar
    21     9     8   ar
    22    32    31    2
    23    25     1    1
    24    25    29   ar
    25     1     6    1
    26     1    33    1
    27     6     7   ar
    28    28    29   ar
    29    28    31    1
    30    29     5    1
    31     8     7   ar
    32     8    12    1
    33    15    14   ar
    34     7     2    2
    35     5    34    2
    36    12    13    1
    37    33    34    1
    38    33    37    2
    39    14    13    1
    40    14    16   ar
    41    34    35    1
    42     2    37    1
    43    37    36    1
    44    35    36    2
    45    35    38    1
    46    36    39    1
    47    39    40    1
    48    40    41    1
    49    41    43   ar
    50    41    42   ar
