@<TRIPOS>MOLECULE
2zdq_ATP_A_1.pdb
 31 33 0 0 0
SMALL
GASTEIGER

@<TRIPOS>ATOM
      1  PG        46.1780   15.7360    0.4550 P.3   1501  ATP1501     0.5373
      2  O1G       46.1150   17.1970    0.7490 O.3   1501  ATP1501    -0.1143
      3  O2G       44.7450   15.1020   -0.0200 O.3   1501  ATP1501    -0.1143
      4  O3G       47.4920   15.1290   -0.0910 O.2   1501  ATP1501    -0.2221
      5  PB        44.7980   14.8600    2.5900 P.3   1501  ATP1501     0.2277
      6  O1B       44.1330   13.5520    2.3240 O.2   1501  ATP1501    -0.5168
      7  O2B       43.7780   16.0710    2.7830 O.3   1501  ATP1501    -0.4368
      8  O3B       46.2760   15.1450    2.0220 O.3   1501  ATP1501    -0.2258
      9  PA        45.9870   13.3200    4.5350 P.3   1501  ATP1501     0.2189
     10  O1A       45.2500   12.0720    4.9210 O.3   1501  ATP1501    -0.4371
     11  O2A       47.4300   13.0490    3.8620 O.2   1501  ATP1501    -0.5170
     12  O3A       45.1700   14.6550    4.1760 O.3   1501  ATP1501    -0.2700
     13  O5'       46.4820   13.7640    6.0200 O.3   1501  ATP1501    -0.3112
     14  C5'       47.0550   15.0840    5.9570 C.3   1501  ATP1501     0.1813
     15  C4'       48.2290   15.2210    6.9380 C.3   1501  ATP1501     0.1821
     16  O4'       47.8360   14.8910    8.3100 O.3   1501  ATP1501    -0.3135
     17  C3'       49.3880   14.2670    6.6050 C.3   1501  ATP1501     0.2184
     18  O3'       50.2070   14.7770    5.5530 O.3   1501  ATP1501    -0.2174
     19  C2'       50.0940   14.1500    7.9620 C.3   1501  ATP1501     0.2570
     20  O2'       50.9780   15.2490    8.2030 O.3   1501  ATP1501    -0.2130
     21  C1'       48.9340   14.1310    8.9530 C.3   1501  ATP1501     0.3186
     22  N9        48.5140   12.7400    9.2260 N.pl3 1501  ATP1501    -0.1439
     23  C8        47.4280   12.1120    8.7050 C.3   1501  ATP1501     0.3377
     24  N7        47.3330   10.8940    9.1470 N.2   1501  ATP1501    -0.2095
     25  C5        48.3520   10.6490    9.9870 C.2   1501  ATP1501     0.2526
     26  C6        48.7650    9.5380   10.7550 C.2   1501  ATP1501     0.4393
     27  N6        48.0380    8.3660   10.7270 N.pl3 1501  ATP1501     0.2180
     28  N1        49.8810    9.6480   11.5130 N.2   1501  ATP1501     0.0021
     29  C2        50.5990   10.7780   11.5520 C.3   1501  ATP1501     0.5254
     30  N3        50.2440   11.8490   10.8450 N.2   1501  ATP1501    -0.0055
     31  C4        49.1400   11.8330   10.0550 C.2   1501  ATP1501     0.3518
@<TRIPOS>BOND
     1     4     1    2
     2     3     1    1
     3     1     2    1
     4     1     8    1
     5     8     5    1
     6     6     5    2
     7     5     7    1
     8     5    12    1
     9    11     9    2
    10    12     9    1
    11     9    10    1
    12     9    13    1
    13    18    17    1
    14    14    13    1
    15    14    15    1
    16    17    15    1
    17    17    19    1
    18    15    16    1
    19    19    20    1
    20    19    21    1
    21    16    21    1
    22    23    24    1
    23    23    22    1
    24    21    22    1
    25    24    25    2
    26    22    31    1
    27    25    31    1
    28    25    26    1
    29    31    30    2
    30    27    26    1
    31    26    28    2
    32    30    29    1
    33    28    29    1
