@<TRIPOS>MOLECULE
2zdt_46C_A_1.pdb
 32 35 0 0 0
SMALL
GASTEIGER

@<TRIPOS>ATOM
      1  C4        44.9900    7.7840   32.3550 C.ar  901  46C901      0.0563
      2  C5        43.7810    7.7660   33.1860 C.ar  901  46C901      0.0056
      3  C6        43.3960    9.0110   33.8360 C.ar  901  46C901      0.0115
      4  C10       46.9530    8.9150   31.2900 C.ar  901  46C901      0.0189
      5  N12       46.4940    6.5070   30.8710 N.ar  901  46C901     -0.2887
      6  C13       45.3870    6.5400   31.6110 C.ar  901  46C901      0.2611
      7  C15       47.7340   10.1060   30.9950 C.ar  901  46C901      0.0015
      8  C17       48.5160    7.5860   29.7570 C.2   901  46C901      0.1887
      9  C20       50.9310    8.0740   29.1850 C.3   901  46C901      0.0086
     10  C26       46.8430    5.2350   30.2080 C.3   901  46C901      0.1358
     11  C1        44.2220   10.2100   33.6400 C.ar  901  46C901      0.0577
     12  C2        45.4310   10.2140   32.8130 C.ar  901  46C901      0.0116
     13  C3        45.7950    8.9730   32.1710 C.ar  901  46C901      0.0069
     14  C11       47.2990    7.6610   30.6710 C.ar  901  46C901      0.0975
     15 CL14       43.7890   11.6300   34.3890 Cl    901  46C901     -0.0822
     16  O16       44.6710    5.5460   31.6800 O.2   901  46C901     -0.2670
     17  O18       48.3610    7.2010   28.5990 O.2   901  46C901     -0.2898
     18  C19       49.8970    7.9610   30.2860 C.3   901  46C901      0.0707
     19  C27       47.9650    4.5110   30.8820 C.ar  901  46C901      0.0005
     20  C30       47.7190    3.9370   32.1980 C.ar  901  46C901     -0.0022
     21  C31       48.8160    3.2610   32.8770 C.ar  901  46C901      0.0063
     22  C32       50.1170    3.1750   32.2150 C.ar  901  46C901      0.0798
     23  C33       50.3710    3.7490   30.8860 C.ar  901  46C901      0.0063
     24  C34       49.2630    4.4360   30.2040 C.ar  901  46C901     -0.0022
     25  C39       48.5990   10.6600   32.0400 C.ar  901  46C901      0.0000
     26  C40       49.3750   11.8700   31.7400 C.ar  901  46C901      0.0000
     27  C41       49.2700   12.5050   30.4110 C.ar  901  46C901      0.0000
     28  C42       48.3910   11.9240   29.3760 C.ar  901  46C901      0.0000
     29  C43       47.6100   10.7100   29.6630 C.ar  901  46C901      0.0000
     30  C49       51.2370    2.4550   32.9530 C.2   901  46C901      0.3878
     31  O50       52.4030    2.6410   32.6110 O.co2 901  46C901     -0.2406
     32  O51       50.9340    1.6910   33.9090 O.co2 901  46C901     -0.2406
@<TRIPOS>BOND
     1    17     8    2
     2     9    18    1
     3    28    29   ar
     4    28    27   ar
     5    29     7   ar
     6     8    18    1
     7     8    14    1
     8    24    19   ar
     9    24    23   ar
    10    10     5    1
    11    10    19    1
    12    27    26   ar
    13    14     5   ar
    14    14     4   ar
    15     5     6   ar
    16    19    20   ar
    17    23    22   ar
    18     7     4    1
    19     7    25   ar
    20     4    13   ar
    21     6    16    2
    22     6     1   ar
    23    26    25   ar
    24    13     1   ar
    25    13    12   ar
    26    20    21   ar
    27    22    21   ar
    28    22    30    1
    29     1     2   ar
    30    31    30   ar
    31    12    11   ar
    32    30    32   ar
    33     2     3   ar
    34    11     3   ar
    35    11    15    1
