@<TRIPOS>MOLECULE
2zdu_446_A_1.pdb
 37 40 0 0 0
SMALL
GASTEIGER

@<TRIPOS>ATOM
      1  C4        19.3920   -8.8440   85.7810 C.ar  901  446901      0.0563
      2  C5        19.7990   -7.7090   86.6060 C.ar  901  446901      0.0052
      3  C6        21.1820   -7.6670   87.0950 C.ar  901  446901      0.0068
      4  C10       19.8500  -10.9830   84.5870 C.ar  901  446901      0.0224
      5  N12       17.5530   -9.9940   84.5790 N.ar  901  446901     -0.2859
      6  C13       17.9600   -8.9370   85.2770 C.ar  901  446901      0.2612
      7  C15       20.7540  -12.0120   84.1110 C.ar  901  446901      0.0016
      8  C17       18.0190  -12.0850   83.2010 C.2   901  446901      0.3575
      9  C28       21.3710  -11.8280   82.8030 C.ar  901  446901      0.0000
     10  C1        22.0980   -8.7590   86.7570 C.ar  901  446901      0.0346
     11  C2        21.6990   -9.9030   85.9300 C.ar  901  446901      0.0069
     12  C3        20.3160   -9.9170   85.4530 C.ar  901  446901      0.0067
     13  C11       18.4680  -10.9980   84.1550 C.ar  901  446901      0.1390
     14 BR14       23.9120   -8.6460   87.4080 Br    901  446901     -0.0490
     15  C16       16.1260  -10.0680   84.2140 C.3   901  446901      0.1359
     16  O18       17.8400  -13.2550   83.6170 O.3   901  446901     -0.4403
     17  C19       17.3770  -14.1000   82.6880 C.3   901  446901      0.2560
     18  O23       17.8220  -11.8040   81.9910 O.2   901  446901     -0.2433
     19  O24       17.1510   -8.0430   85.5410 O.2   901  446901     -0.2670
     20  C25       15.2750  -10.9530   85.1180 C.ar  901  446901      0.0006
     21  C29       22.3140  -12.8510   82.3240 C.ar  901  446901      0.0000
     22  C30       22.6120  -14.0390   83.1590 C.ar  901  446901      0.0000
     23  C31       21.9640  -14.1910   84.4800 C.ar  901  446901      0.0000
     24  C32       21.0220  -13.1720   84.9610 C.ar  901  446901      0.0000
     25  C38       14.6970  -10.3870   86.3430 C.ar  901  446901     -0.0011
     26  C39       13.7500  -11.2030   87.1200 C.ar  901  446901      0.0163
     27  C40       13.4270  -12.5550   86.6430 C.ar  901  446901      0.0733
     28  C41       14.0260  -13.1100   85.4350 C.ar  901  446901      0.0163
     29  C42       14.9650  -12.3080   84.6600 C.ar  901  446901     -0.0011
     30  N47       12.4150  -13.3330   87.2680 N.am  901  446901     -0.1792
     31  C48       12.4760  -13.5800   88.5790 C.2   901  446901      0.2461
     32  C49       11.8120  -14.8610   89.0690 C.3   901  446901      0.0990
     33  C50       11.3980  -14.8150   90.5490 C.3   901  446901      0.1237
     34  C53       10.6180  -16.0500   90.9960 C.2   901  446901      0.3654
     35  O56       13.0210  -12.7830   89.3420 O.2   901  446901     -0.2730
     36  O57       10.6140  -17.0690   90.2540 O.co2 901  446901     -0.2456
     37  O58       10.0060  -16.0410   92.0680 O.co2 901  446901     -0.2456
@<TRIPOS>BOND
     1    18     8    2
     2    21     9   ar
     3    21    22   ar
     4    17    16    1
     5     9     7   ar
     6    22    23   ar
     7     8    16    1
     8     8    13    1
     9     7     4    1
    10     7    24   ar
    11    13     5   ar
    12    13     4   ar
    13    15     5    1
    14    15    20    1
    15    23    24   ar
    16     5     6   ar
    17     4    12   ar
    18    29    20   ar
    19    29    28   ar
    20    20    25   ar
    21     6    19    2
    22     6     1   ar
    23    28    27   ar
    24    12     1   ar
    25    12    11   ar
    26     1     2   ar
    27    11    10   ar
    28    25    26   ar
    29     2     3   ar
    30    27    26   ar
    31    27    30    1
    32    10     3   ar
    33    10    14    1
    34    30    31   am
    35    31    32    1
    36    31    35    2
    37    32    33    1
    38    36    34   ar
    39    33    34    1
    40    34    37   ar
