@<TRIPOS>MOLECULE
2zdv_37U_H_1.pdb
 27 29 0 0 0
SMALL
GASTEIGER

@<TRIPOS>ATOM
      1  N25       16.4040  -15.9780   23.1390 N.3   501  37U501     -0.1228
      2  C7        17.6560  -15.1780   23.2980 C.3   501  37U501      0.1721
      3  C6        17.4890  -13.8170   22.6640 C.2   501  37U501      0.2437
      4  O27       16.5140  -13.1720   23.0990 O.2   501  37U501     -0.2733
      5  C8        18.1060  -15.0860   24.7760 C.3   501  37U501      0.0547
      6  C9        19.5390  -14.5190   24.8410 C.ar  501  37U501     -0.0202
      7  C10       20.6090  -15.1320   24.1840 C.ar  501  37U501     -0.0042
      8  C14       19.7850  -13.3530   25.5810 C.ar  501  37U501     -0.0042
      9  C11       21.8970  -14.5790   24.2710 C.ar  501  37U501     -0.0003
     10  C13       21.0660  -12.7950   25.6740 C.ar  501  37U501     -0.0003
     11  C12       22.1320  -13.4240   25.0060 C.ar  501  37U501     -0.0000
     12  N15       18.2870  -13.2700   21.7110 N.am  501  37U501     -0.2718
     13  C5        17.9940  -11.9640   21.1140 C.3   501  37U501      0.1535
     14  C4        16.5590  -11.8780   20.6380 C.2   501  37U501      0.2598
     15  O26       16.0900  -12.8400   20.0410 O.2   501  37U501     -0.2715
     16  C17       18.9790  -11.9450   19.9140 C.3   501  37U501      0.0310
     17  C16       20.0650  -12.9590   20.3190 C.3   501  37U501      0.0237
     18  C15       19.2490  -14.0930   20.9680 C.3   501  37U501      0.0939
     19  C1        12.6320  -11.6150   21.5770 C.ar  501  37U501     -0.0024
     20  C2        13.5190  -10.5390   21.4240 C.ar  501  37U501      0.0017
     21  C3        14.5430  -10.5760   20.2920 C.3   501  37U501      0.1416
     22  N9        15.8610  -10.7560   20.8960 N.am  501  37U501     -0.1992
     23  C18       13.4280   -9.4700   22.3150 C.ar  501  37U501      0.0271
     24  C19       12.4860   -9.4550   23.3390 C.ar  501  37U501      0.1399
     25  F7        12.4030   -8.4200   24.1970 F     501  37U501     -0.2042
     26  C20       11.6110  -10.5340   23.4800 C.ar  501  37U501      0.0296
     27  C21       11.6870  -11.6140   22.5950 C.ar  501  37U501      0.0020
@<TRIPOS>BOND
     1    16    17    1
     2    16    13    1
     3    15    14    2
     4    21    22    1
     5    21    20    1
     6    17    18    1
     7    14    22   am
     8    14    13    1
     9    18    12    1
    10    13    12    1
    11    20    19   ar
    12    20    23   ar
    13    19    27   ar
    14    12     3   am
    15    23    24   ar
    16    27    26   ar
    17     3     4    2
    18     3     2    1
    19     1     2    1
    20     2     5    1
    21    24    26   ar
    22    24    25    1
    23     7     9   ar
    24     7     6   ar
    25     9    11   ar
    26     5     6    1
    27     6     8   ar
    28    11    10   ar
    29     8    10   ar
