@<TRIPOS>MOLECULE
2zdx_P4A_A_1.pdb
 22 24 0 0 0
SMALL
GASTEIGER

@<TRIPOS>ATOM
      1  N1       -28.2480   13.0680   10.7890 N.2   500  P4A500     -0.1563
      2  N2       -28.5620   12.8970   12.1240 N.2   500  P4A500     -0.1522
      3  C3       -27.5950   12.1220   12.7590 C.2   500  P4A500      0.0926
      4  C4       -26.5820   11.7830   11.7210 C.3   500  P4A500      0.1020
      5  C5       -27.0560   12.4040   10.5110 C.2   500  P4A500      0.0680
      6  C6       -27.6140   11.7220   14.2810 C.ar  500  P4A500      0.0551
      7  C7       -25.2900   10.9240   11.9650 C.ar  500  P4A500     -0.0113
      8  C8       -26.4690   12.4260    9.0900 C.3   500  P4A500      0.0499
      9  C12      -24.1780   11.4370   12.7470 C.ar  500  P4A500     -0.0004
     10  C13      -23.0000   10.6490   12.9920 C.ar  500  P4A500      0.0366
     11  C14      -22.9010    9.2960   12.4490 C.ar  500  P4A500      0.1387
     12  C15      -23.9950    8.7570   11.6560 C.ar  500  P4A500      0.0366
     13  C16      -25.1730    9.5590   11.4190 C.ar  500  P4A500     -0.0004
     14  C21      -28.0410   12.6770   15.3320 C.ar  500  P4A500      0.2001
     15  C22      -28.0230   12.2820   16.7160 C.ar  500  P4A500      0.0840
     16  C23      -27.5940   10.9550   17.0970 C.ar  500  P4A500      0.1989
     17  C24      -27.1930   10.0220   16.1170 C.ar  500  P4A500      0.0423
     18  C25      -27.1990   10.3890   14.7360 C.ar  500  P4A500      0.0077
     19  O29      -27.5650   10.5990   18.4120 O.3   500  P4A500     -0.2865
     20  O30      -28.4490   13.9340   15.0550 O.3   500  P4A500     -0.2864
     21  O33      -21.7490    8.5140   12.6940 O.3   500  P4A500     -0.4714
     22  C34      -21.8590    7.7960   13.9630 C.3   500  P4A500      0.2525
@<TRIPOS>BOND
     1     8     5    1
     2     5     1    2
     3     5     4    1
     4     1     2    1
     5    13    12   ar
     6    13     7   ar
     7    12    11   ar
     8     4     7    1
     9     4     3    1
    10     7     9   ar
    11     2     3    2
    12    11    21    1
    13    11    10   ar
    14    21    22    1
    15     9    10   ar
    16     3     6    1
    17     6    18   ar
    18     6    14   ar
    19    18    17   ar
    20    20    14    1
    21    14    15   ar
    22    17    16   ar
    23    15    16   ar
    24    16    19    1
