@<TRIPOS>MOLECULE
2zdy_ADP_A_1.pdb
 27 29 0 0 0
SMALL
GASTEIGER

@<TRIPOS>ATOM
      1  PB       -20.7960    6.3960   11.7320 P.3   501  ADP501      0.5373
      2  O1B      -21.2540    6.6490   10.3770 O.2   501  ADP501     -0.2221
      3  O2B      -20.8550    7.6650   12.5060 O.3   501  ADP501     -0.1143
      4  O3B      -19.2520    5.7570   11.7760 O.3   501  ADP501     -0.1143
      5  PA       -22.7960    5.2820   13.5340 P.3   501  ADP501      0.2231
      6  O1A      -22.3890    6.2110   14.5540 O.3   501  ADP501     -0.4370
      7  O2A      -23.2340    3.8820   13.9480 O.2   501  ADP501     -0.5169
      8  O3A      -21.6050    5.2280   12.4800 O.3   501  ADP501     -0.2261
      9  O5'      -24.0460    5.9220   12.7370 O.3   501  ADP501     -0.3111
     10  C5'      -24.5930    5.2310   11.6960 C.3   501  ADP501      0.1813
     11  C4'      -25.3410    5.7610   10.5710 C.3   501  ADP501      0.1821
     12  O4'      -26.7760    6.0610   10.6910 O.3   501  ADP501     -0.3135
     13  C3'      -24.5740    7.0140   10.0330 C.3   501  ADP501      0.2184
     14  O3'      -23.5020    6.6850    9.1420 O.3   501  ADP501     -0.2174
     15  C2'      -25.7010    7.8320    9.4590 C.3   501  ADP501      0.2570
     16  O2'      -25.8130    7.6380    8.0720 O.3   501  ADP501     -0.2130
     17  C1'      -26.9590    7.3980   10.2370 C.3   501  ADP501      0.3186
     18  N9       -27.2670    8.3080   11.4100 N.pl3 501  ADP501     -0.1439
     19  C8       -26.9740    8.2830   12.7820 C.3   501  ADP501      0.3377
     20  N7       -27.4110    9.2460   13.4820 N.2   501  ADP501     -0.2095
     21  C5       -28.0520   10.0120   12.5840 C.2   501  ADP501      0.2526
     22  C6       -28.8000   11.2800   12.6320 C.2   501  ADP501      0.4393
     23  N6       -28.9470   11.9210   13.7840 N.pl3 501  ADP501      0.2180
     24  N1       -29.3860   11.8480   11.4090 N.2   501  ADP501      0.0021
     25  C2       -29.2480   11.1920   10.1570 C.3   501  ADP501      0.5254
     26  N3       -28.5410    9.9730   10.0470 N.2   501  ADP501     -0.0055
     27  C4       -27.9860    9.4510   11.2500 C.2   501  ADP501      0.3518
@<TRIPOS>BOND
     1    16    15    1
     2    14    13    1
     3    15    13    1
     4    15    17    1
     5    13    11    1
     6    26    25    1
     7    26    27    2
     8    25    24    1
     9    17    12    1
    10    17    18    1
    11     2     1    2
    12    11    12    1
    13    11    10    1
    14    27    18    1
    15    27    21    1
    16    24    22    2
    17    18    19    1
    18    10     9    1
    19     1     4    1
    20     1     8    1
    21     1     3    1
    22     8     5    1
    23    21    22    1
    24    21    20    2
    25    22    23    1
    26     9     5    1
    27    19    20    1
    28     5     7    2
    29     5     6    1
