@<TRIPOS>MOLECULE
2zdz_310_A_1.pdb
 35 38 0 0 0
SMALL
GASTEIGER

@<TRIPOS>ATOM
      1  C23       16.8280  -10.7960   19.2680 C.ar    1  3101        0.0023
      2  C22       15.8920  -11.0840   18.2520 C.ar    1  3101        0.0264
      3  C21       16.7370   -5.6460   16.2110 C.2     1  3101        0.5320
      4  C20       15.5540   -7.7230   17.0410 C.2     1  3101        0.3417
      5  C24       18.1300  -11.3060   19.1990 C.ar    1  3101        0.0001
      6  C26       17.6040  -12.4040   17.1030 C.ar    1  3101        0.0114
      7  C27       16.2970  -11.8940   17.1690 C.ar    1  3101        0.0590
      8  C18       14.5410  -10.5230   18.3710 C.ar    1  3101        0.0611
      9  C10        9.5910   -7.6380   16.5140 C.ar    1  3101        0.0375
     10  C7        10.2010   -4.2120   14.0010 C.ar    1  3101        0.0376
     11  C5         8.4350   -3.2380   15.3500 C.ar    1  3101        0.0376
     12  C6         9.2480   -4.3320   15.0240 C.ar    1  3101        0.1453
     13  C1         8.5670    0.3980   13.0210 C.3     1  3101        0.0773
     14  C2         9.6850   -0.5900   12.9200 C.2     1  3101        0.1735
     15  C3         9.5460   -1.8940   13.6380 C.ar    1  3101        0.0349
     16  C4         8.5840   -2.0220   14.6650 C.ar    1  3101        0.0060
     17  C11       10.4820   -8.5730   17.0590 C.ar    1  3101        0.0046
     18  C12       11.8030   -8.2100   17.3690 C.ar    1  3101        0.0160
     19  C13       12.2070   -6.8770   17.1260 C.ar    1  3101        0.0046
     20  C14       11.3160   -5.9390   16.5770 C.ar    1  3101        0.0375
     21  C15       12.7120   -9.2130   17.9550 C.ar    1  3101        0.0603
     22  C16       12.4290  -10.0550   19.0210 C.ar    1  3101        0.0187
     23  C17       13.5580  -10.8670   19.2770 C.ar    1  3101        0.0187
     24  O1        10.4860   -0.4680   11.9910 O.2     1  3101       -0.2913
     25  C8        10.3480   -2.9990   13.3120 C.ar    1  3101        0.0060
     26  O2         9.0160   -5.4940   15.7400 O.3     1  3101       -0.4535
     27  C9        10.0000   -6.3210   16.2660 C.ar    1  3101        0.1453
     28  N1        14.0180   -9.5130   17.5700 N.ar    1  3101       -0.3175
     29  C19       14.7530   -8.8700   16.4900 C.3     1  3101        0.2133
     30  O3        15.8030   -7.5820   18.2340 O.2     1  3101       -0.2513
     31  N2        15.9900   -6.8080   16.0230 N.am    1  3101        0.0093
     32  N3        16.8940   -4.8080   15.1160 N.pl3   1  3101        0.1335
     33  N4        16.9930   -5.1500   17.4870 N.pl3   1  3101        0.1335
     34  C25       18.5170  -12.1060   18.1200 C.ar    1  3101        0.0009
     35 CL1        15.2190  -12.3030   15.8810 Cl      1  3101       -0.0822
@<TRIPOS>BOND
     1    24    14    2
     2    14    13    1
     3    14    15    1
     4    25    15   ar
     5    25    10   ar
     6    15    16   ar
     7    10    12   ar
     8    16    11   ar
     9    12    11   ar
    10    12    26    1
    11    32     3    1
    12    26    27    1
    13    35     7    1
    14    31     3    2
    15    31     4    1
    16     3    33    1
    17    27     9   ar
    18    27    20   ar
    19    29     4    1
    20    29    28    1
    21     9    17   ar
    22    20    19   ar
    23     4    30    2
    24    17    18   ar
    25     6     7   ar
    26     6    34   ar
    27    19    18   ar
    28     7     2   ar
    29    18    21    1
    30    28    21   ar
    31    28     8   ar
    32    21    22   ar
    33    34     5   ar
    34     2     8    1
    35     2     1   ar
    36     8    23   ar
    37    22    23   ar
    38     5     1   ar
