@<TRIPOS>MOLECULE
2ze1_411_A_1.pdb
 34 37 0 0 0
SMALL
GASTEIGER

@<TRIPOS>ATOM
      1  C1        18.5940  -12.7900   17.4350 C.ar    1  4111        0.0000
      2  C2        18.3740  -12.0040   18.5730 C.ar    1  4111        0.0000
      3  C3        17.1320  -11.3770   18.7670 C.ar    1  4111        0.0014
      4  C4        16.0990  -11.5420   17.8250 C.ar    1  4111        0.0158
      5  C5        16.3330  -12.3370   16.6850 C.ar    1  4111        0.0014
      6  C6        17.5750  -12.9590   16.4900 C.ar    1  4111        0.0000
      7  C7        14.8060  -10.8820   18.0270 C.ar    1  4111        0.0603
      8  C8        13.8310  -11.1330   18.9800 C.ar    1  4111        0.0187
      9  C9        12.7590  -10.2290   18.7730 C.ar    1  4111        0.0187
     10  C10       13.0690   -9.4330   17.6780 C.ar    1  4111        0.0603
     11  N1        14.3250   -9.8470   17.2390 N.ar    1  4111       -0.3175
     12  C11       15.0440   -9.2570   16.1150 C.3     1  4111        0.2133
     13  C12       15.6880   -7.9890   16.6060 C.2     1  4111        0.3417
     14  O1        16.0210   -7.7870   17.7680 O.2     1  4111       -0.2513
     15  N2        15.8600   -7.0120   15.5670 N.am    1  4111        0.0093
     16  C13       16.4280   -5.7510   15.7390 C.2     1  4111        0.5320
     17  N3        16.8700   -5.3650   16.9960 N.pl3   1  4111        0.1335
     18  N4        16.5700   -4.8920   14.6690 N.pl3   1  4111        0.1335
     19  C14       12.2920   -8.3410   17.0640 C.ar    1  4111        0.0159
     20  C15       11.1580   -8.5590   16.2590 C.ar    1  4111        0.0028
     21  C16       10.4620   -7.4720   15.6880 C.ar    1  4111        0.0167
     22  C17       10.9050   -6.1540   15.9110 C.ar    1  4111        0.0737
     23  C18       12.0340   -5.9480   16.7170 C.ar    1  4111        0.0167
     24  C19       12.7200   -7.0220   17.2810 C.ar    1  4111        0.0028
     25  N5        10.3130   -4.9520   15.4400 N.am    1  4111       -0.1754
     26  C20        8.9580   -4.6400   15.3730 C.2     1  4111        0.2690
     27  O2         8.0090   -5.3460   15.6830 O.2     1  4111       -0.2680
     28  C21        8.6370   -3.2810   14.8720 C.ar    1  4111        0.0559
     29  C22        7.5310   -2.5690   15.3760 C.ar    1  4111        0.0046
     30  C23        7.2490   -1.2820   14.9020 C.ar    1  4111        0.0007
     31  C24        8.0650   -0.7050   13.9250 C.ar    1  4111        0.0067
     32  C25        9.1650   -1.4180   13.4370 C.ar    1  4111        0.0347
     33  C26        9.4610   -2.7010   13.8970 C.ar    1  4111        0.0113
     34 BR         10.2770   -0.6500   12.1210 Br      1  4111       -0.0490
@<TRIPOS>BOND
     1    34    32    1
     2    32    33   ar
     3    32    31   ar
     4    33    28   ar
     5    31    30   ar
     6    18    16    1
     7    28    26    1
     8    28    29   ar
     9    30    29   ar
    10    26    25   am
    11    26    27    2
    12    25    22    1
    13    15    16    2
    14    15    13    1
    15    21    22   ar
    16    21    20   ar
    17    16    17    1
    18    22    23   ar
    19    12    13    1
    20    12    11    1
    21    20    19   ar
    22     6     5   ar
    23     6     1   ar
    24    13    14    2
    25     5     4   ar
    26    23    24   ar
    27    19    24   ar
    28    19    10    1
    29    11    10   ar
    30    11     7   ar
    31     1     2   ar
    32    10     9   ar
    33     4     7    1
    34     4     3   ar
    35     7     8   ar
    36     2     3   ar
    37     9     8   ar
