@<TRIPOS>MOLECULE
2ze2_T27_A_1.pdb
 28 30 0 0 0
SMALL
GASTEIGER

@<TRIPOS>ATOM
      1  C1        48.7770  -25.2230   38.6750 C.ar  556  T27556     -0.0068
      2  N2        52.6430  -26.5630   34.0760 N.2   556  T27556     -0.1683
      3  C3        48.2530  -27.1630   40.1820 C.ar  556  T27556      0.0001
      4  C4        49.5800  -27.6420   39.9790 C.ar  556  T27556     -0.0030
      5  C5        50.5200  -26.9550   39.1480 C.ar  556  T27556     -0.0068
      6  C6        50.1220  -25.7080   38.4700 C.ar  556  T27556      0.0651
      7  C7        48.2640  -23.9570   38.0270 C.3   556  T27556      0.0324
      8  C2        47.8670  -25.9520   39.5230 C.ar  556  T27556     -0.0030
      9  C8        51.9060  -27.5730   39.0160 C.3   556  T27556      0.0324
     10  N1        51.0520  -25.0060   37.6300 N.pl3 556  T27556     -0.1834
     11  C9        52.9120  -25.2620   34.4540 C.2   556  T27556      0.1158
     12  C10       52.4290  -24.6610   35.6300 C.2   556  T27556      0.0720
     13  C11       51.6100  -25.4880   36.4090 C.2   556  T27556      0.2178
     14  N3        51.3380  -26.7820   36.0450 N.2   556  T27556     -0.3189
     15  C12       51.8360  -27.2990   34.9010 C.1   556  T27556      0.1709
     16  N4        51.5620  -28.6350   34.5030 N.pl3 556  T27556     -0.1357
     17  C13       48.8320  -31.6820   35.9220 C.ar  556  T27556      0.0685
     18  C14       49.6640  -31.9410   34.7860 C.ar  556  T27556      0.0116
     19  C15       50.5700  -30.9400   34.3050 C.ar  556  T27556      0.0180
     20  C16       50.6720  -29.6610   34.9420 C.ar  556  T27556      0.0826
     21  C17       49.8150  -29.4240   36.0900 C.ar  556  T27556      0.0180
     22  C18       48.9090  -30.4170   36.5760 C.ar  556  T27556      0.0116
     23  N5        47.2140  -33.5320   36.7720 N.1   556  T27556     -0.1908
     24  C19       47.9340  -32.7000   36.3920 C.1   556  T27556      0.1004
     25  C20       46.1410  -27.3780   41.5350 C.2   556  T27556      0.0780
     26  C21       47.2920  -27.8930   41.0480 C.2   556  T27556      0.0109
     27  N6        44.5260  -28.7110   43.0540 N.1   556  T27556     -0.1908
     28  C22       45.2560  -28.1230   42.3700 C.1   556  T27556      0.1011
@<TRIPOS>BOND
     1     2    11    1
     2     2    15    2
     3    19    18   ar
     4    19    20   ar
     5    11    12    2
     6    16    15    1
     7    16    20    1
     8    18    17   ar
     9    15    14    2
    10    20    21   ar
    11    12    13    1
    12    17    24    1
    13    17    22   ar
    14    14    13    2
    15    21    22   ar
    16    24    23    3
    17    13    10    1
    18    10     6    1
    19     7     1    1
    20     6     1   ar
    21     6     5   ar
    22     1     8   ar
    23     9     5    1
    24     5     4   ar
    25     8     3   ar
    26     4     3   ar
    27     3    26    1
    28    26    25    2
    29    25    28    1
    30    28    27    3
