@<TRIPOS>MOLECULE
2ze5_AMP_A_1.pdb
 23 25 0 0 0
SMALL
GASTEIGER

@<TRIPOS>ATOM
      1  P         59.9160   53.3700   14.4940 P.3   401  AMP401      0.5327
      2  O1P       60.0210   54.0210   15.9220 O.3   401  AMP401     -0.1145
      3  O2P       60.8060   54.0640   13.5320 O.2   401  AMP401     -0.2224
      4  O3P       58.4910   53.1630   14.2030 O.3   401  AMP401     -0.1145
      5  O5'       60.5380   51.8900   14.8010 O.3   401  AMP401     -0.2675
      6  C5'       60.6770   50.8980   13.7930 C.3   401  AMP401      0.1860
      7  C4'       62.0680   50.2380   13.8340 C.3   401  AMP401      0.1823
      8  O4'       63.0800   51.1860   13.6000 O.3   401  AMP401     -0.3135
      9  C3'       62.4130   49.7990   15.2370 C.3   401  AMP401      0.2184
     10  O3'       61.8570   48.5820   15.4970 O.3   401  AMP401     -0.2174
     11  C2'       63.8990   49.7370   15.3780 C.3   401  AMP401      0.2570
     12  O2'       64.4920   48.5630   14.7960 O.3   401  AMP401     -0.2130
     13  C1'       64.1840   50.9250   14.4730 C.3   401  AMP401      0.3186
     14  N9        64.4570   52.1130   15.2720 N.pl3 401  AMP401     -0.1439
     15  C8        63.6390   53.1600   15.4590 C.3   401  AMP401      0.3377
     16  N7        64.3090   54.0970   16.1960 N.2   401  AMP401     -0.2095
     17  C5        65.5550   53.6530   16.4580 C.2   401  AMP401      0.2526
     18  C6        66.7490   54.0850   17.2360 C.2   401  AMP401      0.4393
     19  N6        66.8280   55.2530   17.9150 N.pl3 401  AMP401      0.2180
     20  N1        67.7930   53.2030   17.2780 N.2   401  AMP401      0.0021
     21  C2        67.8320   52.0150   16.6340 C.3   401  AMP401      0.5254
     22  N3        66.7750   51.5640   15.9570 N.2   401  AMP401     -0.0055
     23  C4        65.6330   52.3150   15.8620 C.2   401  AMP401      0.3518
@<TRIPOS>BOND
     1     3     1    2
     2     8     7    1
     3     8    13    1
     4     6     7    1
     5     6     5    1
     6     7     9    1
     7     4     1    1
     8    13    14    1
     9    13    11    1
    10     1     5    1
    11     1     2    1
    12    12    11    1
    13     9    11    1
    14     9    10    1
    15    14    15    1
    16    14    23    1
    17    15    16    1
    18    23    22    2
    19    23    17    1
    20    22    21    1
    21    16    17    2
    22    17    18    1
    23    21    20    1
    24    18    20    2
    25    18    19    1
