@<TRIPOS>MOLECULE
2ze6_DST_A_1.pdb
 14 13 0 0 0
SMALL
GASTEIGER

@<TRIPOS>ATOM
      1  O4        71.7590   62.1910   13.9440 O.3   400  DST400     -0.1143
      2  P1        70.3270   62.6190   14.0500 P.3   400  DST400      0.5394
      3  O6        70.2370   63.6270   15.1280 O.3   400  DST400     -0.1143
      4  O5        69.4440   62.9360   12.8880 O.2   400  DST400     -0.2220
      5  O2        69.5500   61.4110   14.7420 O.3   400  DST400     -0.1955
      6  P3        68.9030   59.9450   14.6760 P.3   400  DST400      0.4273
      7  O8        67.3800   60.0690   14.5420 O.3   400  DST400     -0.1309
      8  O7        69.6910   58.7230   14.2780 O.2   400  DST400     -0.2431
      9  S9        69.2100   59.3810   16.5540 S.3   400  DST400     -0.0237
     10  C10       68.6180   57.6650   16.4540 C.3   400  DST400      0.0942
     11  C11       69.6540   56.6070   16.0970 C.2   400  DST400     -0.0224
     12  C12       69.4200   55.5810   15.2480 C.2   400  DST400     -0.0470
     13  C13       68.1230   55.4490   14.4700 C.3   400  DST400      0.0261
     14  C14       70.4980   54.5380   15.0440 C.3   400  DST400      0.0261
@<TRIPOS>BOND
     1     4     2    2
     2     1     2    1
     3     2     5    1
     4     2     3    1
     5     8     6    2
     6    13    12    1
     7     7     6    1
     8     6     5    1
     9     6     9    1
    10    14    12    1
    11    12    11    2
    12    11    10    1
    13    10     9    1
