@<TRIPOS>MOLECULE
2ze6_AMP_A_1.pdb
 23 25 0 0 0
SMALL
GASTEIGER

@<TRIPOS>ATOM
      1  P         60.1190   53.4570   14.5030 P.3   401  AMP401      0.5327
      2  O1P       60.9730   54.1210   13.5120 O.2   401  AMP401     -0.2224
      3  O2P       58.6480   53.3090   14.1080 O.3   401  AMP401     -0.1145
      4  O3P       60.1910   53.9460   15.8630 O.3   401  AMP401     -0.1145
      5  O5'       60.3250   51.9030   14.2700 O.3   401  AMP401     -0.2675
      6  C5'       61.3940   51.4340   14.9940 C.3   401  AMP401      0.1860
      7  C4'       62.1500   50.3840   14.1730 C.3   401  AMP401      0.1823
      8  O4'       63.2700   51.0450   13.6240 O.3   401  AMP401     -0.3135
      9  C3'       62.7230   49.7880   15.4450 C.3   401  AMP401      0.2184
     10  O3'       61.9760   48.6650   15.4400 O.3   401  AMP401     -0.2174
     11  C2'       64.2090   49.6330   15.3530 C.3   401  AMP401      0.2570
     12  O2'       64.4780   48.4500   14.6400 O.3   401  AMP401     -0.2130
     13  C1'       64.4130   50.8130   14.4620 C.3   401  AMP401      0.3186
     14  N9        64.6070   52.0210   15.2940 N.pl3 401  AMP401     -0.1439
     15  C8        63.7620   53.1010   15.4460 C.3   401  AMP401      0.3377
     16  N7        64.3450   54.0360   16.2450 N.2   401  AMP401     -0.2095
     17  C5        65.6220   53.6210   16.5190 C.2   401  AMP401      0.2526
     18  C6        66.7650   54.1120   17.3490 C.2   401  AMP401      0.4393
     19  N6        66.8000   55.3260   18.0170 N.pl3 401  AMP401      0.2180
     20  N1        67.8220   53.3100   17.4070 N.2   401  AMP401      0.0021
     21  C2        67.9110   52.1140   16.8210 C.3   401  AMP401      0.5254
     22  N3        66.9250   51.5710   16.0420 N.2   401  AMP401     -0.0055
     23  C4        65.7670   52.2660   15.9200 C.2   401  AMP401      0.3518
@<TRIPOS>BOND
     1     2     1    2
     2     8     7    1
     3     8    13    1
     4     3     1    1
     5     7     6    1
     6     7     9    1
     7     5     1    1
     8     5     6    1
     9    13    14    1
    10    13    11    1
    11     1     4    1
    12    12    11    1
    13    14    15    1
    14    14    23    1
    15    11     9    1
    16    10     9    1
    17    15    16    1
    18    23    22    2
    19    23    17    1
    20    22    21    1
    21    16    17    2
    22    17    18    1
    23    21    20    1
    24    18    20    2
    25    18    19    1
