@<TRIPOS>MOLECULE
2ze7_AMP_A_1.pdb
 23 25 0 0 0
SMALL
GASTEIGER

@<TRIPOS>ATOM
      1  P         61.4310   54.8150   14.6570 P.3   401  AMP401      0.5327
      2  O1P       62.4860   55.3410   13.7250 O.2   401  AMP401     -0.2224
      3  O2P       60.0640   55.0030   14.0620 O.3   401  AMP401     -0.1145
      4  O3P       61.3860   55.2920   16.0740 O.3   401  AMP401     -0.1145
      5  O5'       61.5460   53.2370   14.4790 O.3   401  AMP401     -0.2675
      6  C5'       62.5050   52.5600   15.1880 C.3   401  AMP401      0.1860
      7  C4'       63.3600   51.6290   14.3590 C.3   401  AMP401      0.1823
      8  O4'       64.4520   52.3810   13.8300 O.3   401  AMP401     -0.3135
      9  C3'       63.9950   51.1370   15.6620 C.3   401  AMP401      0.2184
     10  O3'       63.4290   49.8860   15.8500 O.3   401  AMP401     -0.2174
     11  C2'       65.4900   51.0490   15.5570 C.3   401  AMP401      0.2570
     12  O2'       65.6940   49.7570   14.9160 O.3   401  AMP401     -0.2130
     13  C1'       65.6700   52.1660   14.5980 C.3   401  AMP401      0.3186
     14  N9        65.9870   53.3790   15.4120 N.pl3 401  AMP401     -0.1439
     15  C8        65.2150   54.4700   15.5930 C.3   401  AMP401      0.3377
     16  N7        65.7940   55.4150   16.3700 N.2   401  AMP401     -0.2095
     17  C5        67.0240   54.9270   16.6840 C.2   401  AMP401      0.2526
     18  C6        68.1630   55.3640   17.5090 C.2   401  AMP401      0.4393
     19  N6        68.2340   56.5590   18.1500 N.pl3 401  AMP401      0.2180
     20  N1        69.2010   54.5030   17.5990 N.2   401  AMP401      0.0021
     21  C2        69.3120   53.2830   17.0250 C.3   401  AMP401      0.5254
     22  N3        68.2860   52.8040   16.2610 N.2   401  AMP401     -0.0055
     23  C4        67.1480   53.5830   16.0710 C.2   401  AMP401      0.3518
@<TRIPOS>BOND
     1     2     1    2
     2     8     7    1
     3     8    13    1
     4     3     1    1
     5     7     6    1
     6     7     9    1
     7     5     1    1
     8     5     6    1
     9    13    14    1
    10    13    11    1
    11     1     4    1
    12    12    11    1
    13    14    15    1
    14    14    23    1
    15    11     9    1
    16    15    16    1
    17     9    10    1
    18    23    22    2
    19    23    17    1
    20    22    21    1
    21    16    17    2
    22    17    18    1
    23    21    20    1
    24    18    20    2
    25    18    19    1
