@<TRIPOS>MOLECULE
2ze7_DST_A_1.pdb
 14 13 0 0 0
SMALL
GASTEIGER

@<TRIPOS>ATOM
      1  O4        73.2010   63.6810   14.4300 O.3   400  DST400     -0.1143
      2  P1        71.7290   63.6340   14.4350 P.3   400  DST400      0.5394
      3  O6        71.2190   64.4320   15.5950 O.3   400  DST400     -0.1143
      4  O5        70.9710   63.7910   13.1620 O.2   400  DST400     -0.2220
      5  O2        71.6580   62.0660   14.8300 O.3   400  DST400     -0.1955
      6  P3        70.5450   61.0410   15.3650 P.3   400  DST400      0.4273
      7  O8        70.5020   61.0400   16.9020 O.3   400  DST400     -0.1309
      8  O7        69.2250   61.0550   14.5950 O.2   400  DST400     -0.2431
      9  S9        71.4670   59.2420   15.3710 S.3   400  DST400     -0.0237
     10  C10       70.4970   57.9980   16.1510 C.3   400  DST400      0.0942
     11  C11       69.9200   56.9790   15.1620 C.2   400  DST400     -0.0224
     12  C12       70.6740   55.9710   14.7280 C.2   400  DST400     -0.0470
     13  C13       70.0970   54.9450   13.7590 C.3   400  DST400      0.0261
     14  C14       72.0810   55.8220   15.2440 C.3   400  DST400      0.0261
@<TRIPOS>BOND
     1     4     2    2
     2    13    12    1
     3     1     2    1
     4     2     5    1
     5     2     3    1
     6     8     6    2
     7    12    11    2
     8    12    14    1
     9     5     6    1
    10    11    10    1
    11     6     9    1
    12     6     7    1
    13     9    10    1
