@<TRIPOS>MOLECULE
2zeb_11M_A_1.pdb
 29 33 0 0 0
SMALL
GASTEIGER

@<TRIPOS>ATOM
      1  C4        20.3760  -78.5880  -85.0010 C.ar  244  11M244      0.0363
      2  C5        19.8940  -77.9670  -83.7760 C.ar  244  11M244      0.0003
      3  C6        20.8460  -77.4710  -82.7650 C.ar  244  11M244     -0.0033
      4  C8        23.8450  -79.6500  -85.7480 C.3   244  11M244      0.2094
      5  C10       24.7230  -77.1860  -85.1630 C.3   244  11M244      0.0293
      6  C13       26.3720  -79.2710  -83.7170 C.3   244  11M244      0.0942
      7  C15       24.1320  -78.5630  -84.7300 C.3   244  11M244      0.0654
      8  C17       27.7620  -77.2300  -83.3790 C.2   244  11M244      0.2551
      9  C22       29.3970  -73.6450  -84.1750 C.ar  244  11M244      0.0547
     10  C24       30.7010  -74.0960  -86.4190 C.ar  244  11M244      0.0010
     11  C26       30.4650  -76.5460  -87.3280 C.ar  244  11M244      0.0000
     12  C1        22.2850  -77.5940  -82.9670 C.ar  244  11M244     -0.0040
     13  C2        22.7570  -78.1930  -84.1820 C.ar  244  11M244      0.0145
     14  C3        21.7810  -78.7070  -85.2000 C.ar  244  11M244      0.1346
     15  O13       22.5630  -79.2670  -86.3000 O.3   244  11M244     -0.4754
     16  C11       26.2430  -77.3470  -85.4070 C.3   244  11M244      0.0942
     17  N22       26.8880  -78.0110  -84.2490 N.am  244  11M244     -0.2756
     18  C14       24.8390  -79.2070  -83.4910 C.3   244  11M244      0.0293
     19  O61       28.1940  -77.6980  -82.3770 O.2   244  11M244     -0.2694
     20  C30       20.2910  -76.8250  -81.4820 C.3   244  11M244      0.1356
     21  N64       20.2910  -77.8390  -80.4280 N.3   244  11M244     -0.1262
     22  C39       28.4360  -75.9790  -83.9280 C.ar  244  11M244      0.0834
     23  C41       29.2970  -75.9330  -85.2080 C.ar  244  11M244      0.0114
     24  C42       29.8940  -74.4300  -85.3410 C.ar  244  11M244      0.0124
     25  S44       28.4640  -74.5930  -83.2260 S.2   244  11M244     -0.0761
     26  C25       31.0210  -75.1270  -87.4440 C.ar  244  11M244      0.0000
     27  C27       29.5920  -76.8920  -86.1690 C.ar  244  11M244      0.0007
     28  S59       29.7600  -71.9210  -83.8180 S.3   244  11M244     -0.1063
     29  C29       31.0120  -71.8580  -82.4930 C.3   244  11M244      0.0747
@<TRIPOS>BOND
     1    26    11   ar
     2    26    10   ar
     3    11    27   ar
     4    10    24   ar
     5    15     4    1
     6    15    14    1
     7    27    23   ar
     8     4     7    1
     9    16     5    1
    10    16    17    1
    11    24    23   ar
    12    24     9   ar
    13    23    22   ar
    14    14     1   ar
    15    14    13   ar
    16     5     7    1
    17     1     2   ar
    18     7    13    1
    19     7    18    1
    20    17     6    1
    21    17     8   am
    22    13    12   ar
    23     9    28    1
    24     9    25   ar
    25    22     8    1
    26    22    25   ar
    27    28    29    1
    28     2     3   ar
    29     6    18    1
    30     8    19    2
    31    12     3   ar
    32     3    20    1
    33    20    21    1
