@<TRIPOS>MOLECULE
2zec_11N_A_1.pdb
 26 29 0 0 0
SMALL
GASTEIGER

@<TRIPOS>ATOM
      1  C4        22.1480   77.7190   82.9240 C.ar    1  11N1       -0.0040
      2  C5        20.7710   77.4480   82.6910 C.ar    1  11N1       -0.0033
      3  C6        19.7650   77.8290   83.6730 C.ar    1  11N1        0.0003
      4  C7        23.8730   78.7630   84.6760 C.3     1  11N1        0.0654
      5  C8        23.5330   79.7380   85.7750 C.3     1  11N1        0.2094
      6  C10       24.5990   79.3840   83.4460 C.3     1  11N1        0.0293
      7  C13       26.0800   77.6780   85.4020 C.3     1  11N1        0.0942
      8  C15       20.3760   76.7790   81.3720 C.3     1  11N1        0.1356
      9  C17       27.6540   77.6010   83.4070 C.2     1  11N1        0.2492
     10  C20       29.3110   75.8770   83.0800 C.2     1  11N1        0.0047
     11  C22       28.9640   73.3450   83.4170 C.ar    1  11N1        0.0000
     12  C24       30.7250   71.7440   82.7960 C.ar    1  11N1        0.0000
     13  C26       31.0880   74.1560   82.4730 C.ar    1  11N1        0.0000
     14  C1        20.1620   78.4560   84.9010 C.ar    1  11N1        0.0363
     15  C2        21.5200   78.7230   85.1260 C.ar    1  11N1        0.1346
     16  C3        22.5320   78.3440   84.1080 C.ar    1  11N1        0.0145
     17  O15       22.2380   79.3280   86.2520 O.3     1  11N1       -0.4754
     18  C11       26.1050   79.5550   83.7270 C.3     1  11N1        0.0942
     19  N22       26.7090   78.3330   84.2530 N.am    1  11N1       -0.2761
     20  C14       24.5900   77.4580   85.1150 C.3     1  11N1        0.0293
     21  N33       20.0340   77.8340   80.4360 N.3     1  11N1       -0.1262
     22  O37       28.0690   78.1310   82.4300 O.2     1  11N1       -0.2699
     23  C19       28.2640   76.2490   83.8000 C.2     1  11N1        0.0579
     24  C41       29.8040   74.4230   82.9980 C.ar    1  11N1        0.0001
     25  C23       29.4330   72.0110   83.3110 C.ar    1  11N1        0.0000
     26  C25       31.5610   72.8150   82.3680 C.ar    1  11N1        0.0000
@<TRIPOS>BOND
     1    21     8    1
     2     8     2    1
     3    26    13   ar
     4    26    12   ar
     5    22     9    2
     6    13    24   ar
     7     2     1   ar
     8     2     3   ar
     9    12    25   ar
    10     1    16   ar
    11    24    10    1
    12    24    11   ar
    13    10    23    2
    14    25    11   ar
    15     9    23    1
    16     9    19   am
    17     6    18    1
    18     6     4    1
    19     3    14   ar
    20    18    19    1
    21    16     4    1
    22    16    15   ar
    23    19     7    1
    24     4    20    1
    25     4     5    1
    26    14    15   ar
    27    20     7    1
    28    15    17    1
    29     5    17    1
