@<TRIPOS>MOLECULE
2zej_GDP_A_1.pdb
 28 30 0 0 0
SMALL
GASTEIGER

@<TRIPOS>ATOM
      1  PB        42.7120   59.1720   37.8750 P.3     1  GDP1        0.5373
      2  O1B       43.9620   58.6770   37.2050 O.2     1  GDP1       -0.2221
      3  O2B       42.8150   59.0790   39.3590 O.3     1  GDP1       -0.1143
      4  O3B       41.4720   58.4230   37.4100 O.3     1  GDP1       -0.1143
      5  O3A       42.5710   60.7050   37.3810 O.3     1  GDP1       -0.2261
      6  PA        41.2690   61.4910   36.9440 P.3     1  GDP1        0.2231
      7  O1A       40.7260   61.2440   35.5770 O.2     1  GDP1       -0.5169
      8  O2A       40.3900   61.4610   38.1350 O.3     1  GDP1       -0.4370
      9  O5'       41.8590   62.9420   36.6840 O.3     1  GDP1       -0.3111
     10  C5'       42.4980   63.7230   37.7030 C.3     1  GDP1        0.1813
     11  C4'       42.4570   65.1990   37.3140 C.3     1  GDP1        0.1799
     12  O4'       43.2620   65.4650   36.1670 O.3     1  GDP1       -0.3326
     13  C3'       41.0570   65.6670   36.8810 C.3     1  GDP1        0.2158
     14  O3'       40.8380   66.9520   37.4240 O.3     1  GDP1       -0.2175
     15  C2'       41.1390   65.7890   35.3870 C.3     1  GDP1        0.2310
     16  O2'       40.2410   66.7020   34.7800 O.3     1  GDP1       -0.2158
     17  C1'       42.5740   66.2570   35.2290 C.3     1  GDP1        0.2293
     18  N9        43.1150   65.8400   33.9500 N.pl3   1  GDP1       -0.2354
     19  C8        43.2080   64.5620   33.4850 C.3     1  GDP1        0.2246
     20  N7        43.7800   64.5370   32.2750 N.2     1  GDP1       -0.2322
     21  C5        44.0610   65.8110   31.9520 C.2     1  GDP1        0.2182
     22  C6        44.6960   66.5010   30.8180 C.1     1  GDP1        0.2372
     23  O6        45.1170   65.8550   29.8250 O.2     1  GDP1       -0.2069
     24  N1        44.7970   67.8440   30.8920 N.2     1  GDP1       -0.2485
     25  C2        44.3340   68.5770   31.9470 C.1     1  GDP1        0.2531
     26  N2        44.4830   69.9400   31.9570 N.pl3   1  GDP1       -0.0226
     27  N3        43.7830   68.0130   33.0360 N.2     1  GDP1       -0.3074
     28  C4        43.6140   66.6680   33.0710 C.2     1  GDP1        0.2300
@<TRIPOS>BOND
     1    23    22    2
     2    22    24    2
     3    22    21    1
     4    24    25    2
     5    25    26    1
     6    25    27    2
     7    21    20    2
     8    21    28    1
     9    20    19    1
    10    27    28    2
    11    28    18    1
    12    19    18    1
    13    18    17    1
    14    16    15    1
    15    17    15    1
    16    17    12    1
    17    15    13    1
    18     7     6    2
    19    12    11    1
    20     9     6    1
    21     9    10    1
    22    13    11    1
    23    13    14    1
    24     6     5    1
    25     6     8    1
    26     2     1    2
    27    11    10    1
    28     5     1    1
    29     4     1    1
    30     1     3    1
