@<TRIPOS>MOLECULE
2zet_GTP_A_1.pdb
 32 34 0 0 0
SMALL
GASTEIGER

@<TRIPOS>ATOM
      1  PG        25.6530  110.7120  129.2930 P.3   203  GTP203      0.5373
      2  O1G       26.9060  110.1010  129.8360 O.3   203  GTP203     -0.1143
      3  O2G       24.4260  109.6770  129.4850 O.3   203  GTP203     -0.1143
      4  O3G       25.8180  111.0310  127.7220 O.2   203  GTP203     -0.2221
      5  O3B       25.4010  112.1300  130.0930 O.3   203  GTP203     -0.2258
      6  PB        24.5600  111.8960  131.4590 P.3   203  GTP203      0.2277
      7  O1B       23.2670  111.2140  131.2290 O.2   203  GTP203     -0.5168
      8  O2B       25.4620  111.0140  132.4690 O.3   203  GTP203     -0.4368
      9  O3A       24.2250  113.3430  132.1170 O.3   203  GTP203     -0.2700
     10  PA        25.4140  114.3030  132.6610 P.3   203  GTP203      0.2189
     11  O1A       26.0740  113.6850  133.8140 O.3   203  GTP203     -0.4371
     12  O2A       26.4930  114.6210  131.5050 O.2   203  GTP203     -0.5170
     13  O5'       24.6300  115.6380  133.1400 O.3   203  GTP203     -0.3112
     14  C5'       24.0890  116.2480  131.9340 C.3   203  GTP203      0.1813
     15  C4'       23.8900  117.7800  132.1340 C.3   203  GTP203      0.1799
     16  O4'       22.7790  118.1120  132.9860 O.3   203  GTP203     -0.3326
     17  C3'       25.1870  118.4090  132.6730 C.3   203  GTP203      0.2158
     18  O3'       25.8020  119.3090  131.7500 O.3   203  GTP203     -0.2175
     19  C2'       24.7650  119.1080  133.9850 C.3   203  GTP203      0.2310
     20  O2'       25.1260  120.4800  133.9530 O.3   203  GTP203     -0.2158
     21  C1'       23.2190  118.9290  134.0900 C.3   203  GTP203      0.2293
     22  N9        22.7360  118.3500  135.3300 N.pl3 203  GTP203     -0.2354
     23  C8        22.9490  117.0680  135.7950 C.3   203  GTP203      0.2246
     24  N7        22.3420  116.8940  136.9430 N.2   203  GTP203     -0.2322
     25  C5        21.7090  118.0530  137.2850 C.2   203  GTP203      0.2182
     26  C6        20.8850  118.4730  138.3940 C.1   203  GTP203      0.2372
     27  O6        20.6190  117.7080  139.3280 O.2   203  GTP203     -0.2069
     28  N1        20.4080  119.7650  138.3950 N.2   203  GTP203     -0.2485
     29  C2        20.6900  120.6330  137.3580 C.1   203  GTP203      0.2531
     30  N2        20.1900  121.9180  137.4080 N.pl3 203  GTP203     -0.0226
     31  N3        21.4440  120.2480  136.3170 N.2   203  GTP203     -0.3074
     32  C4        21.9560  118.9940  136.2400 C.2   203  GTP203      0.2300
@<TRIPOS>BOND
     1     4     1    2
     2     1     3    1
     3     1     2    1
     4     1     5    1
     5     5     6    1
     6     7     6    2
     7     6     9    1
     8     6     8    1
     9    12    10    2
    10    18    17    1
    11    14    15    1
    12    14    13    1
    13     9    10    1
    14    15    17    1
    15    15    16    1
    16    10    13    1
    17    10    11    1
    18    17    19    1
    19    16    21    1
    20    20    19    1
    21    19    21    1
    22    21    22    1
    23    22    23    1
    24    22    32    1
    25    23    24    1
    26    32    31    2
    27    32    25    1
    28    31    29    2
    29    24    25    2
    30    25    26    1
    31    29    30    1
    32    29    28    2
    33    26    28    2
    34    26    27    2
