@<TRIPOS>MOLECULE
2zeu_B71_A_1.pdb
 27 27 0 0 0
SMALL
GASTEIGER

@<TRIPOS>ATOM
      1  CAA       37.7010   56.7330   12.4350 C.3   1201  B711201     0.0000
      2  CAL       37.6680   55.3810   11.7180 C.3   1201  B711201     0.0000
      3  CAM       37.3610   54.2530   12.7030 C.3   1201  B711201     0.0000
      4  CAN       37.1060   52.9230   11.9910 C.3   1201  B711201     0.0000
      5  CAO       36.0550   53.0940   10.8930 C.3   1201  B711201     0.0000
      6  CAP       35.4280   51.7580   10.4890 C.3   1201  B711201     0.0000
      7  CAQ       34.7680   51.8790    9.1150 C.3   1201  B711201     0.0001
      8  CAR       33.8700   50.6800    8.8040 C.3   1201  B711201     0.0038
      9  CAS       32.5440   50.7820    9.5600 C.3   1201  B711201     0.0473
     10  CAT       31.6580   49.5720    9.2650 C.3   1201  B711201     0.2050
     11  OAV       30.3590   49.7500    9.8500 O.2   1201  B711201    -0.4780
     12  CAW       29.6580   48.5870    9.7650 C.2   1201  B711201     0.1360
     13  CAK       29.9710   47.6590    8.7790 C.3   1201  B711201     0.1556
     14  CAI       28.6300   48.3210   10.6640 C.2   1201  B711201     0.0354
     15  CAH       27.9070   47.1340   10.5840 C.2   1201  B711201     0.0186
     16  CAJ       28.2110   46.2020    9.5990 C.2   1201  B711201     0.0618
     17  NAY       29.2460   46.4640    8.6900 N.pl3 1201  B711201    -0.2992
     18  CAU       29.5590   45.5030    7.6100 C.3   1201  B711201     0.1057
     19  CAX       29.4780   46.2010    6.2510 C.3   1201  B711201     0.1236
     20  PBA       30.0580   45.0740    4.9180 P.3   1201  B711201     0.1253
     21  OAF       29.3400   43.6630    5.1950 O.3   1201  B711201    -0.3568
     22  OAG       29.5040   45.6370    3.5160 O.2   1201  B711201    -0.4596
     23  OAC       31.5340   44.9810    4.8900 O.3   1201  B711201    -0.3568
     24  PAZ       27.7770   46.8410    5.9740 P.3   1201  B711201     0.1253
     25  OAD       27.5960   47.0990    4.3970 O.2   1201  B711201    -0.4596
     26  OAE       26.7460   45.6680    6.3700 O.3   1201  B711201    -0.3568
     27  OAB       27.5420   48.0730    6.7600 O.3   1201  B711201    -0.3568
@<TRIPOS>BOND
     1    22    20    2
     2    25    24    2
     3    23    20    1
     4    20    21    1
     5    20    19    1
     6    24    19    1
     7    24    26    1
     8    24    27    1
     9    19    18    1
    10    18    17    1
    11    17    13    1
    12    17    16    1
    13    13    12    1
    14     8     7    1
    15     8     9    1
    16     7     6    1
    17    10     9    1
    18    10    11    1
    19    16    15    2
    20    12    11    1
    21    12    14    2
    22     6     5    1
    23    15    14    1
    24     5     4    1
    25     2     1    1
    26     2     3    1
    27     4     3    1
