@<TRIPOS>MOLECULE
2zev_B71_A_1.pdb
 27 27 0 0 0
SMALL
GASTEIGER

@<TRIPOS>ATOM
      1  CAA       38.1570   55.4840   12.3430 C.3   1201  B711201     0.0000
      2  CAL       37.1560   54.3620   12.0610 C.3   1201  B711201     0.0000
      3  CAM       37.8710   53.0570   11.7040 C.3   1201  B711201     0.0000
      4  CAN       36.8580   51.9410   11.4420 C.3   1201  B711201     0.0000
      5  CAO       35.9440   52.3350   10.2820 C.3   1201  B711201     0.0000
      6  CAP       34.8790   51.2730   10.0080 C.3   1201  B711201     0.0000
      7  CAQ       34.0410   51.7240    8.8110 C.3   1201  B711201     0.0001
      8  CAR       32.9320   50.7280    8.4680 C.3   1201  B711201     0.0038
      9  CAS       31.9610   50.5550    9.6360 C.3   1201  B711201     0.0473
     10  CAT       30.8290   49.6100    9.2260 C.3   1201  B711201     0.2050
     11  OAV       30.1530   49.1530   10.4050 O.2   1201  B711201    -0.4780
     12  CAW       29.3850   48.0650   10.1150 C.2   1201  B711201     0.1360
     13  CAK       29.7080   47.2560    9.0330 C.3   1201  B711201     0.1556
     14  CAI       28.3020   47.7460   10.9240 C.2   1201  B711201     0.0354
     15  CAH       27.5400   46.6110   10.6580 C.2   1201  B711201     0.0186
     16  CAJ       27.8540   45.7930    9.5820 C.2   1201  B711201     0.0618
     17  NAY       28.9450   46.1120    8.7630 N.pl3 1201  B711201    -0.2992
     18  CAU       29.3450   45.2230    7.6510 C.3   1201  B711201     0.1057
     19  CAX       28.8800   45.8090    6.3160 C.3   1201  B711201     0.1236
     20  PBA       29.5650   44.8620    4.9030 P.3   1201  B711201     0.1253
     21  OAF       29.2000   43.3140    5.1270 O.3   1201  B711201    -0.3568
     22  OAG       28.7140   45.3790    3.6340 O.2   1201  B711201    -0.4596
     23  OAC       31.0260   45.0740    4.7920 O.3   1201  B711201    -0.3568
     24  PAZ       27.0520   45.7370    6.2010 P.3   1201  B711201     0.1253
     25  OAD       26.6650   46.1620    4.6980 O.2   1201  B711201    -0.4596
     26  OAE       26.7400   44.1610    6.3180 O.3   1201  B711201    -0.3568
     27  OAB       26.3910   46.5690    7.2310 O.3   1201  B711201    -0.3568
@<TRIPOS>BOND
     1    22    20    2
     2    25    24    2
     3    23    20    1
     4    20    21    1
     5    20    19    1
     6    24    19    1
     7    24    26    1
     8    24    27    1
     9    19    18    1
    10    18    17    1
    11     8     7    1
    12     8     9    1
    13    17    13    1
    14    17    16    1
    15     7     6    1
    16    13    12    1
    17    10     9    1
    18    10    11    1
    19    16    15    2
    20     6     5    1
    21    12    11    1
    22    12    14    2
    23     5     4    1
    24    15    14    1
    25     4     3    1
    26     3     2    1
    27     2     1    1
