@<TRIPOS>MOLECULE
2zev_IPE_B_1.pdb
 14 13 0 0 0
SMALL
GASTEIGER

@<TRIPOS>ATOM
      1  C1        22.4380   28.0730   34.2900 C.3   1102  IPE1102     0.1491
      2  O1        21.5050   28.1300   35.3690 O.3   1102  IPE1102    -0.3138
      3  C2        23.0380   26.6670   34.2490 C.3   1102  IPE1102     0.0325
      4  C3        23.7300   26.4420   32.9050 C.3   1102  IPE1102     0.0025
      5  C4        23.2060   27.1850   31.6760 C.3   1102  IPE1102     0.0001
      6  C5        24.8080   25.5690   32.8090 C.3   1102  IPE1102     0.0001
      7  PA        20.2710   27.0990   35.3300 P.3   1102  IPE1102     0.2230
      8  O1A       20.2530   26.5210   33.8280 O.2   1102  IPE1102    -0.5169
      9  O2A       20.4040   26.0320   36.3470 O.3   1102  IPE1102    -0.4370
     10  O3A       18.9230   27.9670   35.5090 O.3   1102  IPE1102    -0.2261
     11  PB        18.0560   28.5050   34.2610 P.3   1102  IPE1102     0.5373
     12  O1B       18.7570   27.9780   32.9130 O.2   1102  IPE1102    -0.2221
     13  O2B       16.6380   27.7470   34.3490 O.3   1102  IPE1102    -0.1143
     14  O3B       17.9170   29.9790   34.2760 O.3   1102  IPE1102    -0.1143
@<TRIPOS>BOND
     1     5     4    1
     2     6     4    1
     3     4     3    1
     4    12    11    2
     5     8     7    2
     6     3     1    1
     7    11    14    1
     8    11    13    1
     9    11    10    1
    10     1     2    1
    11     7     2    1
    12     7    10    1
    13     7     9    1
