@<TRIPOS>MOLECULE
2zex_BGC_A_1.pdb
 12 12 0 0 0
SMALL
GASTEIGER

@<TRIPOS>ATOM
      1  C2        17.7060   26.0590   47.1130 C.3   401  BGC401      0.2434
      2  C3        17.7970   25.1750   45.8720 C.3   401  BGC401      0.2199
      3  C4        18.2730   25.9520   44.6260 C.3   401  BGC401      0.2144
      4  C5        19.5030   26.8170   44.9490 C.3   401  BGC401      0.1836
      5  C6        19.8450   27.7840   43.8180 C.3   401  BGC401      0.2142
      6  C1        18.9900   26.8610   47.2840 C.3   401  BGC401      0.3024
      7  O1        18.8180   27.7610   48.3550 O.3   401  BGC401     -0.1869
      8  O2        17.5040   25.2610   48.2640 O.3   401  BGC401     -0.2148
      9  O3        16.5330   24.5710   45.6500 O.3   401  BGC401     -0.2174
     10  O4        18.6070   25.0550   43.5760 O.3   401  BGC401     -0.2176
     11  O5        19.2750   27.5930   46.1080 O.3   401  BGC401     -0.3236
     12  O6        18.7220   28.5850   43.4950 O.3   401  BGC401     -0.2176
@<TRIPOS>BOND
     1    12     5    1
     2    10     3    1
     3     5     4    1
     4     3     4    1
     5     3     2    1
     6     4    11    1
     7     9     2    1
     8     2     1    1
     9    11     6    1
    10     1     6    1
    11     1     8    1
    12     6     7    1
