@<TRIPOS>MOLECULE
2zey_BMA_A_1.pdb
 12 12 0 0 0
SMALL
GASTEIGER

@<TRIPOS>ATOM
      1  C1        30.5930  -28.2090    7.3560 C.3   147  BMA147      0.3024
      2  C2        29.4640  -27.3250    7.8710 C.3   147  BMA147      0.2434
      3  C3        28.7510  -28.0650    9.0060 C.3   147  BMA147      0.2199
      4  C4        28.2870  -29.4640    8.5430 C.3   147  BMA147      0.2144
      5  C5        29.4780  -30.1710    7.8930 C.3   147  BMA147      0.1836
      6  C6        29.1960  -31.5700    7.3650 C.3   147  BMA147      0.2142
      7  O1        31.2810  -27.5750    6.3110 O.3   147  BMA147     -0.1869
      8  O2        28.5420  -27.0600    6.8280 O.3   147  BMA147     -0.2148
      9  O3        27.7020  -27.2510    9.4770 O.3   147  BMA147     -0.2174
     10  O4        27.9040  -30.2540    9.6480 O.3   147  BMA147     -0.2176
     11  O5        29.9940  -29.3830    6.8450 O.3   147  BMA147     -0.3236
     12  O6        30.4400  -32.2340    7.3040 O.3   147  BMA147     -0.2176
@<TRIPOS>BOND
     1     7     1    1
     2     8     2    1
     3    11     1    1
     4    11     5    1
     5    12     6    1
     6     1     2    1
     7     6     5    1
     8     2     3    1
     9     5     4    1
    10     4     3    1
    11     4    10    1
    12     3     9    1
