@<TRIPOS>MOLECULE
2zey_MAN_B_1.pdb
 12 12 0 0 0
SMALL
GASTEIGER

@<TRIPOS>ATOM
      1  C1        13.6290  -37.9040   10.3510 C.3   147  MAN147      0.3024
      2  C2        14.8940  -38.7220   10.0850 C.3   147  MAN147      0.2434
      3  C3        16.0290  -38.2110   10.9770 C.3   147  MAN147      0.2199
      4  C4        16.2580  -36.7040   10.7890 C.3   147  MAN147      0.2144
      5  C5        14.9380  -36.0110   11.1220 C.3   147  MAN147      0.1836
      6  C6        15.0060  -34.4950   10.9810 C.3   147  MAN147      0.2142
      7  O1        13.0970  -38.2750   11.6140 O.3   147  MAN147     -0.1869
      8  O2        15.2250  -38.6600    8.7070 O.3   147  MAN147     -0.2148
      9  O3        17.1810  -38.9740   10.7340 O.3   147  MAN147     -0.2174
     10  O4        17.2730  -36.2210   11.6500 O.3   147  MAN147     -0.2176
     11  O5        13.9120  -36.5020   10.2750 O.3   147  MAN147     -0.3236
     12  O6        13.7220  -33.9240   11.1490 O.3   147  MAN147     -0.2176
@<TRIPOS>BOND
     1     8     2    1
     2     2     1    1
     3     2     3    1
     4    11     1    1
     5    11     5    1
     6     1     7    1
     7     9     3    1
     8     4     3    1
     9     4     5    1
    10     4    10    1
    11     6     5    1
    12     6    12    1
