@<TRIPOS>MOLECULE
2zf0_51U_H_1.pdb
 27 29 0 0 0
SMALL
GASTEIGER

@<TRIPOS>ATOM
      1  N1        16.0130  -15.5380   23.0710 N.3   501  51U501     -0.1228
      2  C2        17.2490  -14.7450   23.1640 C.3   501  51U501      0.1721
      3  C3        17.0420  -13.3530   22.6130 C.2   501  51U501      0.2437
      4  O1        16.0810  -12.6940   22.9920 O.2   501  51U501     -0.2733
      5  C1        17.7490  -14.6700   24.6200 C.3   501  51U501      0.0547
      6  C17       19.1850  -14.1520   24.6720 C.ar  501  51U501     -0.0202
      7  C18       20.2010  -14.8200   23.9830 C.ar  501  51U501     -0.0042
      8  C23       19.4960  -13.0070   25.4070 C.ar  501  51U501     -0.0042
      9  C19       21.5170  -14.3440   24.0300 C.ar  501  51U501     -0.0003
     10  C22       20.8130  -12.5340   25.4540 C.ar  501  51U501     -0.0003
     11  C20       21.8330  -13.2020   24.7660 C.ar  501  51U501     -0.0000
     12  N2        17.9390  -12.9210   21.7700 N.am  501  51U501     -0.2718
     13  C7        17.7310  -11.7510   20.9540 C.3   501  51U501      0.1535
     14  C8        16.3270  -11.5810   20.4510 C.2   501  51U501      0.2598
     15  O2        15.7970  -12.4350   19.7650 O.2   501  51U501     -0.2715
     16  C6        18.7900  -11.7940   19.8340 C.3   501  51U501      0.0310
     17  C5        19.7500  -12.9320   20.2670 C.3   501  51U501      0.0237
     18  C4        18.8340  -13.8640   21.1050 C.3   501  51U501      0.0939
     19  N3        15.6440  -10.3760   20.8610 N.am  501  51U501     -0.1992
     20  C9        14.3850  -10.1880   20.1890 C.3   501  51U501      0.1415
     21  C10       13.2690  -10.2630   21.2270 C.ar  501  51U501     -0.0009
     22  C11       13.1080   -9.2420   22.1710 C.ar  501  51U501     -0.0068
     23  C12       12.0820   -9.3200   23.1190 C.ar  501  51U501     -0.0221
     24  C13       11.8900   -8.2190   24.1560 C.3   501  51U501      0.0310
     25  C14       11.2300  -10.4200   23.1090 C.ar  501  51U501     -0.0043
     26  C15       11.3810  -11.4490   22.1700 C.ar  501  51U501     -0.0006
     27  C16       12.4080  -11.3620   21.2280 C.ar  501  51U501     -0.0026
@<TRIPOS>BOND
     1    15    14    2
     2    16    17    1
     3    16    13    1
     4    20    19    1
     5    20    21    1
     6    17    18    1
     7    14    19   am
     8    14    13    1
     9    13    12    1
    10    18    12    1
    11    21    27   ar
    12    21    22   ar
    13    27    26   ar
    14    12     3   am
    15    26    25   ar
    16    22    23   ar
    17     3     4    2
    18     3     2    1
    19     1     2    1
    20    25    23   ar
    21    23    24    1
    22     2     5    1
    23     7     9   ar
    24     7     6   ar
    25     9    11   ar
    26     5     6    1
    27     6     8   ar
    28    11    10   ar
    29     8    10   ar
