@<TRIPOS>MOLECULE
2zf4_PPY_A_1.pdb
 12 12 0 0 0
SMALL
GASTEIGER

@<TRIPOS>ATOM
      1  C1       -17.2940   21.1460  -12.9890 C.2   192  PPY192      0.4222
      2  O1       -17.5550   21.6890  -14.0830 O.co2 192  PPY192     -0.2373
      3  O2       -18.1820   20.5530  -12.3520 O.co2 192  PPY192     -0.2373
      4  C2       -15.9190   21.1690  -12.4670 C.2   192  PPY192      0.2564
      5  O3       -15.4040   20.0990  -12.2000 O.2   192  PPY192     -0.2839
      6  C3       -15.1350   22.4690  -12.2980 C.3   192  PPY192      0.1025
      7  C1'      -13.9490   22.4040  -11.3250 C.ar  192  PPY192     -0.0142
      8  C2'      -14.0260   21.6890  -10.1120 C.ar  192  PPY192     -0.0038
      9  C3'      -12.9350   21.6490   -9.2340 C.ar  192  PPY192     -0.0003
     10  C4'      -11.7550   22.3480   -9.5470 C.ar  192  PPY192     -0.0000
     11  C5'      -11.6790   23.0660  -10.7460 C.ar  192  PPY192     -0.0003
     12  C6'      -12.7690   23.0970  -11.6300 C.ar  192  PPY192     -0.0038
@<TRIPOS>BOND
     1     2     1   ar
     2     1     4    1
     3     1     3   ar
     4     4     6    1
     5     4     5    2
     6     6     7    1
     7    12     7   ar
     8    12    11   ar
     9     7     8   ar
    10    11    10   ar
    11     8     9   ar
    12    10     9   ar
