@<TRIPOS>MOLECULE
2zfa_FMN_A_1.pdb
 31 33 0 0 0
SMALL
GASTEIGER

@<TRIPOS>ATOM
      1  N1        43.6540   44.7450   -2.4680 N.2   375  FMN375     -0.2887
      2  C2        42.5240   44.1820   -1.9610 C.1   375  FMN375      0.3669
      3  O2        42.3960   44.0270   -0.7390 O.2   375  FMN375     -0.1744
      4  N3        41.4990   43.7870   -2.8030 N.2   375  FMN375     -0.2300
      5  C4        41.6080   43.9430   -4.1820 C.1   375  FMN375      0.2513
      6  O4        40.8110   43.3480   -4.9170 O.2   375  FMN375     -0.2057
      7  C4A       42.7600   44.4990   -4.7010 C.2   375  FMN375      0.2706
      8  N5        42.9210   44.6710   -6.0700 N.2   375  FMN375     -0.3841
      9  C5A       44.1000   45.1910   -6.5720 C.2   375  FMN375      0.1452
     10  C6        44.2580   45.3560   -7.9640 C.2   375  FMN375      0.0252
     11  C7        45.4340   45.8690   -8.4700 C.2   375  FMN375     -0.0375
     12  C7M       45.6970   45.8030   -9.9670 C.3   375  FMN375      0.0268
     13  C8        46.4790   46.2300   -7.6110 C.3   375  FMN375      0.0417
     14  C8M       47.8700   46.3640   -8.1420 C.3   375  FMN375      0.0091
     15  C9        46.3140   46.0950   -6.2130 C.2   375  FMN375     -0.0049
     16  C9A       45.1360   45.5780   -5.7230 C.2   375  FMN375      0.0795
     17  N10       44.9670   45.4230   -4.3470 N.pl3 375  FMN375     -0.2545
     18  C10       43.7990   44.8800   -3.8500 C.2   375  FMN375      0.2449
     19  C1'       46.1150   45.8100   -3.4350 C.3   375  FMN375      0.1336
     20  C2'       47.0180   44.5960   -3.1530 C.3   375  FMN375      0.2048
     21  O2'       46.3900   43.6200   -2.3250 O.3   375  FMN375     -0.2185
     22  C3'       48.3320   44.9980   -2.4580 C.3   375  FMN375      0.2165
     23  O3'       48.0160   45.7170   -1.2350 O.3   375  FMN375     -0.2175
     24  C4'       49.2080   45.8460   -3.3580 C.3   375  FMN375      0.2147
     25  O4'       49.2890   45.2900   -4.6760 O.3   375  FMN375     -0.2176
     26  C5'       50.6460   45.8660   -2.8630 C.3   375  FMN375      0.1892
     27  O5'       51.3480   46.9550   -3.4230 O.3   375  FMN375     -0.2674
     28  P         52.5030   46.6490   -4.5350 P.3   375  FMN375      0.5327
     29  O1P       53.7160   46.0570   -3.8560 O.3   375  FMN375     -0.1145
     30  O2P       51.8070   45.6240   -5.4060 O.2   375  FMN375     -0.2224
     31  O3P       52.8400   47.9420   -5.1620 O.3   375  FMN375     -0.1145
@<TRIPOS>BOND
     1    12    11    1
     2    11    10    2
     3    11    13    1
     4    14    13    1
     5    10     9    1
     6    13    15    1
     7     9     8    2
     8     9    16    1
     9    15    16    2
    10     8     7    2
    11    16    17    1
    12    30    28    2
    13    31    28    1
    14     6     5    2
    15     7     5    1
    16     7    18    1
    17    25    24    1
    18    28    29    1
    19    28    27    1
    20    17    18    1
    21    17    19    1
    22     5     4    2
    23    18     1    2
    24    19    20    1
    25    27    26    1
    26    24    26    1
    27    24    22    1
    28    20    22    1
    29    20    21    1
    30     4     2    2
    31     1     2    2
    32    22    23    1
    33     2     3    2
