@<TRIPOS>MOLECULE
2zfb_HEM_A_1.pdb
 43 50 0 0 0
SMALL
GASTEIGER

@<TRIPOS>ATOM
      1 FE          5.6910   -9.1510   17.4240 Fe    150  HEM150      0.0000
      2  CHA        5.0500  -10.1930   20.6820 C.2   150  HEM150      0.0000
      3  CHB        7.6900  -11.8180   16.9930 C.2   150  HEM150      0.0000
      4  CHC        6.3610   -8.1170   14.1810 C.2   150  HEM150      0.0000
      5  CHD        3.8680   -6.2340   17.9560 C.2   150  HEM150      0.0000
      6  NA         6.2440  -10.7470   18.6380 N.ar  150  HEM150      0.0000
      7  C1A        5.9180  -10.9940   19.9640 C.ar  150  HEM150      0.0000
      8  C2A        6.6120  -12.1980   20.4370 C.ar  150  HEM150      0.0000
      9  C3A        7.3380  -12.6310   19.3760 C.ar  150  HEM150      0.0000
     10  C4A        7.1160  -11.7270   18.2430 C.ar  150  HEM150      0.0000
     11  CMA        8.2730  -13.8720   19.3090 C.3   150  HEM150      0.0000
     12  CAA        6.5130  -12.8250   21.8770 C.3   150  HEM150      0.0000
     13  CBA        6.0840  -14.3220   21.8430 C.3   150  HEM150      0.0000
     14  CGA        5.9440  -15.0480   23.1880 C.2   150  HEM150      0.0000
     15  O1A        4.8490  -15.6410   23.3980 O.co2 150  HEM150      0.0000
     16  O2A        6.8850  -15.1000   24.0460 O.co2 150  HEM150      0.0000
     17  NB         6.8490   -9.8000   15.8800 N.2   150  HEM150      0.0000
     18  C1B        7.5340  -10.9920   15.9070 C.2   150  HEM150      0.0000
     19  C2B        8.0630  -11.2390   14.5750 C.2   150  HEM150      0.0000
     20  C3B        7.7040  -10.2270   13.7830 C.2   150  HEM150      0.0000
     21  C4B        6.9320   -9.2970   14.5910 C.2   150  HEM150      0.0000
     22  CMB        8.9110  -12.4590   14.1440 C.3   150  HEM150      0.0000
     23  CAB        8.0690  -10.1270   12.2810 C.2   150  HEM150      0.0000
     24  CBB        8.4270   -8.9750   11.7080 C.2   150  HEM150      0.0000
     25  NC         5.1670   -7.5040   16.2690 N.ar  150  HEM150      0.0000
     26  C1C        5.6170   -7.2620   14.9750 C.ar  150  HEM150      0.0000
     27  C2C        5.1750   -5.9470   14.5970 C.ar  150  HEM150      0.0000
     28  C3C        4.4860   -5.4290   15.6180 C.ar  150  HEM150      0.0000
     29  C4C        4.4550   -6.3960   16.7030 C.ar  150  HEM150      0.0000
     30  CMC        5.4640   -5.2970   13.2340 C.3   150  HEM150      0.0000
     31  CAC        3.8240   -4.0350   15.6440 C.2   150  HEM150      0.0000
     32  CBC        4.5570   -2.9160   15.7150 C.2   150  HEM150      0.0000
     33  ND         4.6050   -8.3310   19.0660 N.2   150  HEM150      0.0000
     34  C1D        3.9990   -7.0660   19.0820 C.2   150  HEM150      0.0000
     35  C2D        3.5220   -6.8070   20.4520 C.2   150  HEM150      0.0000
     36  C3D        3.9000   -8.0610   21.2580 C.2   150  HEM150      0.0000
     37  C4D        4.5550   -8.9440   20.3230 C.2   150  HEM150      0.0000
     38  CMD        2.7970   -5.5680   21.0360 C.3   150  HEM150      0.0000
     39  CAD        3.6370   -8.3790   22.7590 C.3   150  HEM150      0.0000
     40  CBD        4.5700   -7.6750   23.7600 C.3   150  HEM150      0.0000
     41  CGD        4.9190   -8.5960   24.9090 C.2   150  HEM150      0.0000
     42  O1D        4.6580   -9.8200   24.7940 O.co2 150  HEM150      0.0000
     43  O2D        5.4700   -8.1180   25.9330 O.co2 150  HEM150      0.0000
@<TRIPOS>BOND
     1    24    23    2
     2    23    20    1
     3    30    27    1
     4    20    19    2
     5    20    21    1
     6    22    19    1
     7     4    21    2
     8     4    26    1
     9    19    18    1
    10    21    17    1
    11    27    26   ar
    12    27    28   ar
    13    26    25   ar
    14    28    31    1
    15    28    29   ar
    16    31    32    2
    17    17    18    2
    18    17     1    1
    19    18     3    1
    20    25    29   ar
    21    25     1    1
    22    29     5    1
    23     3    10    2
    24     1     6    1
    25     1    33    1
    26     5    34    2
    27    10     6   ar
    28    10     9   ar
    29     6     7   ar
    30    33    34    1
    31    33    37    2
    32    34    35    1
    33    11     9    1
    34     9     8   ar
    35     7     8   ar
    36     7     2    2
    37    37     2    1
    38    37    36    1
    39     8    12    1
    40    35    38    1
    41    35    36    2
    42    36    39    1
    43    13    12    1
    44    13    14    1
    45    39    40    1
    46    14    15   ar
    47    14    16   ar
    48    40    41    1
    49    42    41   ar
    50    41    43   ar
