@<TRIPOS>MOLECULE
2zfe_GLC_A_1.pdb
 11 11 0 0 0
SMALL
GASTEIGER

@<TRIPOS>ATOM
      1  C1        49.0300   23.8810   10.8760 C.3   400  GLC400      0.1777
      2  C2        49.9150   23.8830    9.5060 C.3   400  GLC400      0.2141
      3  C3        49.9440   25.3450    8.8980 C.3   400  GLC400      0.2173
      4  C4        48.4740   25.7360    8.5440 C.3   400  GLC400      0.2142
      5  C5        47.5720   25.7210    9.8280 C.3   400  GLC400      0.1810
      6  C6        46.0810   26.0190    9.5760 C.3   400  GLC400      0.2141
      7  O2        51.2850   23.4870    9.7870 O.3   400  GLC400     -0.2176
      8  O3        50.7050   25.3780    7.6850 O.3   400  GLC400     -0.2175
      9  O4        48.3630   27.0410    7.9950 O.3   400  GLC400     -0.2176
     10  O5        47.6280   24.3490   10.5120 O.3   400  GLC400     -0.3481
     11  O6        45.2960   24.9530    9.0570 O.3   400  GLC400     -0.2176
@<TRIPOS>BOND
     1     8     3    1
     2     9     4    1
     3     4     3    1
     4     4     5    1
     5     3     2    1
     6    11     6    1
     7     2     7    1
     8     2     1    1
     9     6     5    1
    10     5    10    1
    11    10     1    1
