@<TRIPOS>MOLECULE
2zfe_SGA_A_1.pdb
 15 15 0 0 0
SMALL
GASTEIGER

@<TRIPOS>ATOM
      1  C1        53.4890   20.4800    4.2150 C.3   420  SGA420      0.1777
      2  C2        52.3550   20.0410    3.2300 C.3   420  SGA420      0.2132
      3  C3        52.5480   18.4810    3.1200 C.3   420  SGA420      0.2085
      4  C4        53.9280   18.1120    2.5510 C.3   420  SGA420      0.2134
      5  C5        54.9850   18.6770    3.5440 C.3   420  SGA420      0.1809
      6  C6        56.4080   18.3210    2.9890 C.3   420  SGA420      0.2141
      7  O2        51.0620   20.4020    3.7880 O.3   420  SGA420     -0.2176
      8  O3        51.5180   17.9960    2.2920 O.3   420  SGA420     -0.2383
      9  O4        54.0750   18.7240    1.2780 O.3   420  SGA420     -0.2176
     10  O5        54.7750   20.1410    3.6660 O.3   420  SGA420     -0.3481
     11  O6        56.6630   16.9420    2.8680 O.3   420  SGA420     -0.2176
     12  S         50.2500   18.5230    1.5010 S.3   420  SGA420     -0.0001
     13  O1S       48.8240   18.7380    2.1430 O.3   420  SGA420     -0.2682
     14  O2S       50.1250   19.8480    0.6550 O.2   420  SGA420     -0.3452
     15  O3S       49.6770   17.4800    0.4740 O.2   420  SGA420     -0.3452
@<TRIPOS>BOND
     1    15    12    2
     2    14    12    2
     3     9     4    1
     4    12    13    1
     5    12     8    1
     6     8     3    1
     7     4     3    1
     8     4     5    1
     9    11     6    1
    10     6     5    1
    11     3     2    1
    12     2     7    1
    13     2     1    1
    14     5    10    1
    15    10     1    1
