@<TRIPOS>MOLECULE
2zfe_RET_A_1.pdb
 20 20 0 0 0
SMALL
GASTEIGER

@<TRIPOS>ATOM
      1  C1        39.1610   16.2530   21.5480 C.3   250  RET250      0.0183
      2  C2        39.8060   15.4710   20.3410 C.3   250  RET250      0.0044
      3  C3        39.9010   14.0200   20.3780 C.3   250  RET250      0.0047
      4  C4        40.1360   13.3690   21.7260 C.3   250  RET250      0.0217
      5  C5        39.5620   14.0760   22.9470 C.2   250  RET250     -0.0479
      6  C6        39.0780   15.4090   22.9260 C.2   250  RET250     -0.0307
      7  C7        38.5050   15.9490   24.2560 C.2   250  RET250     -0.0052
      8  C8        37.9970   17.1670   24.5360 C.2   250  RET250     -0.0046
      9  C9        37.3920   17.6070   25.7750 C.2   250  RET250     -0.0219
     10  C10       36.9020   18.8740   25.7500 C.2   250  RET250     -0.0043
     11  C11       36.1660   19.5860   26.7650 C.2   250  RET250     -0.0007
     12  C12       35.8040   20.8470   26.5230 C.2   250  RET250     -0.0046
     13  C13       35.0490   21.7460   27.4110 C.2   250  RET250     -0.0261
     14  C14       34.8750   23.0110   26.9190 C.2   250  RET250     -0.0300
     15  C15       34.3070   24.2240   27.5000 C.3   250  RET250      0.0304
     16  C16       40.0680   17.4810   21.6290 C.3   250  RET250      0.0043
     17  C17       37.7950   16.7020   21.0230 C.3   250  RET250      0.0043
     18  C18       39.5930   13.1610   24.1670 C.3   250  RET250      0.0260
     19  C19       37.2560   16.6800   26.9640 C.3   250  RET250      0.0310
     20  C20       34.5770   21.2760   28.7730 C.3   250  RET250      0.0307
@<TRIPOS>BOND
     1     2     3    1
     2     2     1    1
     3     3     4    1
     4    17     1    1
     5     1    16    1
     6     1     6    1
     7     4     5    1
     8     6     5    2
     9     6     7    1
    10     5    18    1
    11     7     8    2
    12     8     9    1
    13    10     9    2
    14    10    11    1
    15     9    19    1
    16    12    11    2
    17    12    13    1
    18    14    13    2
    19    14    15    1
    20    13    20    1
