@<TRIPOS>MOLECULE
2zff_53U_H_1.pdb
 26 28 0 0 0
SMALL
GASTEIGER

@<TRIPOS>ATOM
      1  N1        16.3900  -15.7830   23.1600 N.3   2001  53U2001    -0.1228
      2  C2        17.6570  -15.0120   23.1460 C.3   2001  53U2001     0.1721
      3  C3        17.4360  -13.6310   22.5680 C.2   2001  53U2001     0.2437
      4  O1        16.5060  -12.9450   23.0320 O.2   2001  53U2001    -0.2733
      5  C1        18.1720  -14.9170   24.5950 C.3   2001  53U2001     0.0547
      6  C16       19.5920  -14.3710   24.7440 C.ar  2001  53U2001    -0.0202
      7  C17       20.6910  -14.9640   24.0890 C.ar  2001  53U2001    -0.0042
      8  C21       19.8220  -13.2490   25.5510 C.ar  2001  53U2001    -0.0042
      9  C18       21.9860  -14.4540   24.2350 C.ar  2001  53U2001    -0.0003
     10  C20       21.1010  -12.7410   25.6970 C.ar  2001  53U2001    -0.0003
     11  C19       22.1890  -13.3330   25.0460 C.ar  2001  53U2001    -0.0000
     12  N2        18.2450  -13.1710   21.5890 N.am  2001  53U2001    -0.2718
     13  C7        18.0280  -11.8220   21.0620 C.3   2001  53U2001     0.1535
     14  C8        16.6090  -11.7290   20.5280 C.2   2001  53U2001     0.2598
     15  O2        16.2150  -12.7280   19.9260 O.2   2001  53U2001    -0.2715
     16  C6        18.9440  -11.8950   19.8030 C.3   2001  53U2001     0.0310
     17  C5        20.1040  -12.7670   20.3170 C.3   2001  53U2001     0.0237
     18  C4        19.3760  -13.9390   21.0230 C.3   2001  53U2001     0.0939
     19  N3        15.9710  -10.5760   20.7540 N.am  2001  53U2001    -0.1992
     20  C9        14.6590  -10.4300   20.1130 C.3   2001  53U2001     0.1415
     21  C10       13.5670  -10.4920   21.1900 C.ar  2001  53U2001    -0.0006
     22  C11       13.3860   -9.3970   22.0370 C.ar  2001  53U2001    -0.0026
     23  C12       12.4020   -9.4430   23.0150 C.ar  2001  53U2001    -0.0003
     24  C13       11.5890  -10.5670   23.1640 C.ar  2001  53U2001    -0.0000
     25  C14       11.7790  -11.6630   22.3090 C.ar  2001  53U2001    -0.0003
     26  C15       12.7700  -11.6130   21.3270 C.ar  2001  53U2001    -0.0026
@<TRIPOS>BOND
     1    16    17    1
     2    16    13    1
     3    15    14    2
     4    20    19    1
     5    20    21    1
     6    17    18    1
     7    14    19   am
     8    14    13    1
     9    18    12    1
    10    13    12    1
    11    21    26   ar
    12    21    22   ar
    13    26    25   ar
    14    12     3   am
    15    22    23   ar
    16    25    24   ar
    17     3     4    2
    18     3     2    1
    19    23    24   ar
    20     2     1    1
    21     2     5    1
    22     7     9   ar
    23     7     6   ar
    24     9    11   ar
    25     5     6    1
    26     6     8   ar
    27    11    10   ar
    28     8    10   ar
