@<TRIPOS>MOLECULE
2zfg_C8E_A_1.pdb
 21 20 0 0 0
SMALL
GASTEIGER

@<TRIPOS>ATOM
      1  C1        20.8240   53.9940   -4.5990 C.3   342  C8E342      0.0000
      2  C2        20.6300   54.5650   -5.9980 C.3   342  C8E342      0.0000
      3  C3        21.9880   54.8760   -6.6110 C.3   342  C8E342      0.0000
      4  C4        21.9700   54.7360   -8.1240 C.3   342  C8E342      0.0000
      5  C5        23.2760   55.2410   -8.7240 C.3   342  C8E342      0.0001
      6  C6        23.0630   55.6490  -10.1750 C.3   342  C8E342      0.0026
      7  C7        24.3810   55.7950  -10.9200 C.3   342  C8E342      0.0321
      8  C8        24.4320   57.1300  -11.6500 C.3   342  C8E342      0.1423
      9  O9        25.2350   57.0040  -12.8030 O.3   342  C8E342     -0.3511
     10  C10       26.1690   58.0550  -12.9190 C.3   342  C8E342      0.1741
     11  C11       27.1270   57.7690  -14.0680 C.3   342  C8E342      0.1742
     12  O12       28.1800   58.7050  -14.0230 O.3   342  C8E342     -0.3484
     13  C13       29.4400   58.0980  -14.2000 C.3   342  C8E342      0.1742
     14  C14       30.4280   59.1470  -14.6930 C.3   342  C8E342      0.1742
     15  O15       31.1970   58.6240  -15.7560 O.3   342  C8E342     -0.3484
     16  C16       32.1380   59.5550  -16.2510 C.3   342  C8E342      0.1742
     17  C17       31.7220   60.0270  -17.6420 C.3   342  C8E342      0.1742
     18  O18       32.7140   60.8720  -18.1860 O.3   342  C8E342     -0.3483
     19  C19       32.3020   62.2200  -18.2640 C.3   342  C8E342      0.1777
     20  C20       33.0810   63.0700  -17.2640 C.3   342  C8E342      0.2140
     21  O21       34.0580   63.8240  -17.9420 O.3   342  C8E342     -0.2176
@<TRIPOS>BOND
     1    19    18    1
     2    19    20    1
     3    18    17    1
     4    21    20    1
     5    17    16    1
     6    16    15    1
     7    15    14    1
     8    14    13    1
     9    13    12    1
    10    11    12    1
    11    11    10    1
    12    10     9    1
    13     9     8    1
    14     8     7    1
    15     7     6    1
    16     6     5    1
    17     5     4    1
    18     4     3    1
    19     3     2    1
    20     2     1    1
