@<TRIPOS>MOLECULE
2zfi_ADP_A_1.pdb
 27 29 0 0 0
SMALL
GASTEIGER

@<TRIPOS>ATOM
      1  PB        24.2290  -19.8800    7.1830 P.3   2000  ADP2000     0.5373
      2  O1B       25.5960  -20.0570    6.6540 O.2   2000  ADP2000    -0.2221
      3  O2B       23.4850  -21.2260    7.1920 O.3   2000  ADP2000    -0.1143
      4  O3B       24.1920  -19.3320    8.5370 O.3   2000  ADP2000    -0.1143
      5  PA        22.8360  -17.4450    6.4320 P.3   2000  ADP2000     0.2231
      6  O1A       21.9920  -17.4560    7.6430 O.3   2000  ADP2000    -0.4370
      7  O2A       23.9530  -16.4320    6.5380 O.2   2000  ADP2000    -0.5169
      8  O3A       23.5120  -18.8880    6.2060 O.3   2000  ADP2000    -0.2261
      9  O5'       21.9680  -17.1360    5.2060 O.3   2000  ADP2000    -0.3111
     10  C5'       22.7100  -16.7470    4.0770 C.3   2000  ADP2000     0.1813
     11  C4'       22.1970  -15.5090    3.4410 C.3   2000  ADP2000     0.1821
     12  O4'       20.8460  -15.6580    3.0420 O.3   2000  ADP2000    -0.3135
     13  C3'       22.2680  -14.2400    4.2660 C.3   2000  ADP2000     0.2184
     14  O3'       22.9400  -13.2510    3.4700 O.3   2000  ADP2000    -0.2174
     15  C2'       20.7800  -13.9480    4.6100 C.3   2000  ADP2000     0.2570
     16  O2'       20.4140  -12.5600    4.6700 O.3   2000  ADP2000    -0.2130
     17  C1'       19.9580  -14.7580    3.5820 C.3   2000  ADP2000     0.3186
     18  N9        18.7890  -15.4680    4.1270 N.pl3 2000  ADP2000    -0.1439
     19  C8        18.7080  -16.7000    4.7030 C.3   2000  ADP2000     0.3377
     20  N7        17.4510  -17.0770    4.9930 N.2   2000  ADP2000    -0.2095
     21  C5        16.6710  -16.0410    4.4920 C.2   2000  ADP2000     0.2526
     22  C6        15.2540  -15.8790    4.3850 C.2   2000  ADP2000     0.4393
     23  N6        14.3660  -16.7680    4.8440 N.pl3 2000  ADP2000     0.2180
     24  N1        14.7990  -14.7080    3.7900 N.2   2000  ADP2000     0.0021
     25  C2        15.7220  -13.7610    3.3620 C.3   2000  ADP2000     0.5254
     26  N3        17.0430  -13.8260    3.4210 N.2   2000  ADP2000    -0.0055
     27  C4        17.4750  -15.0250    3.9810 C.2   2000  ADP2000     0.3518
@<TRIPOS>BOND
     1    12    11    1
     2    12    17    1
     3    25    26    1
     4    25    24    1
     5    26    27    2
     6    11    10    1
     7    11    13    1
     8    14    13    1
     9    17    18    1
    10    17    15    1
    11    24    22    2
    12    27    18    1
    13    27    21    1
    14    10     9    1
    15    18    19    1
    16    13    15    1
    17    22    21    1
    18    22    23    1
    19    21    20    2
    20    15    16    1
    21    19    20    1
    22     9     5    1
    23     8     5    1
    24     8     1    1
    25     5     7    2
    26     5     6    1
    27     2     1    2
    28     1     3    1
    29     1     4    1
