@<TRIPOS>MOLECULE
2zfj_ADP_A_1.pdb
 27 29 0 0 0
SMALL
GASTEIGER

@<TRIPOS>ATOM
      1  PB        24.7710  -19.6020    7.4150 P.3   2000  ADP2000     0.5373
      2  O1B       26.2170  -19.7450    7.0640 O.3   2000  ADP2000    -0.1143
      3  O2B       23.9960  -20.7880    6.9120 O.2   2000  ADP2000    -0.2221
      4  O3B       24.6000  -19.4640    8.9160 O.3   2000  ADP2000    -0.1143
      5  PA        23.2440  -17.1030    7.1140 P.3   2000  ADP2000     0.2231
      6  O1A       22.2830  -17.5960    8.1640 O.3   2000  ADP2000    -0.4370
      7  O2A       23.9870  -15.9020    7.6310 O.2   2000  ADP2000    -0.5169
      8  O3A       24.2910  -18.2510    6.7250 O.3   2000  ADP2000    -0.2261
      9  O5'       22.4060  -16.6540    5.8370 O.3   2000  ADP2000    -0.3111
     10  C5'       23.2410  -16.1070    4.8090 C.3   2000  ADP2000     0.1813
     11  C4'       22.6340  -15.0220    3.9480 C.3   2000  ADP2000     0.1821
     12  O4'       21.4980  -15.4690    3.2030 O.3   2000  ADP2000    -0.3135
     13  C3'       22.2540  -13.7590    4.6930 C.3   2000  ADP2000     0.2184
     14  O3'       23.2600  -12.7460    4.4800 O.3   2000  ADP2000    -0.2174
     15  C2'       20.7960  -13.4720    4.2110 C.3   2000  ADP2000     0.2570
     16  O2'       20.6020  -12.2050    3.5540 O.3   2000  ADP2000    -0.2130
     17  C1'       20.4100  -14.6360    3.3090 C.3   2000  ADP2000     0.3186
     18  N9        19.2390  -15.4310    3.7920 N.pl3 2000  ADP2000    -0.1439
     19  C8        19.1920  -16.7450    4.1650 C.3   2000  ADP2000     0.3377
     20  N7        17.9590  -17.1850    4.5180 N.2   2000  ADP2000    -0.2095
     21  C5        17.1520  -16.0690    4.3600 C.2   2000  ADP2000     0.2526
     22  C6        15.7260  -15.8710    4.5620 C.2   2000  ADP2000     0.4393
     23  N6        14.8730  -16.8240    4.9560 N.pl3 2000  ADP2000     0.2180
     24  N1        15.2330  -14.6040    4.3120 N.2   2000  ADP2000     0.0021
     25  C2        16.1110  -13.6030    3.9000 C.3   2000  ADP2000     0.5254
     26  N3        17.4290  -13.6880    3.6840 N.2   2000  ADP2000    -0.0055
     27  C4        17.9130  -14.9610    3.9350 C.2   2000  ADP2000     0.3518
@<TRIPOS>BOND
     1    12    17    1
     2    12    11    1
     3    17    18    1
     4    17    15    1
     5    16    15    1
     6    26    25    1
     7    26    27    2
     8    18    27    1
     9    18    19    1
    10    25    24    1
    11    27    21    1
    12    11    13    1
    13    11    10    1
    14    19    20    1
    15    15    13    1
    16    24    22    2
    17    21    20    2
    18    21    22    1
    19    14    13    1
    20    22    23    1
    21    10     9    1
    22     9     5    1
    23     8     5    1
    24     8     1    1
    25     3     1    2
    26     2     1    1
    27     5     7    2
    28     5     6    1
    29     1     4    1
