@<TRIPOS>MOLECULE
2zfk_ADP_A_1.pdb
 27 29 0 0 0
SMALL
GASTEIGER

@<TRIPOS>ATOM
      1  PB        24.7100  -19.9430    7.3900 P.3   2000  ADP2000     0.5373
      2  O1B       26.1990  -19.9350    7.2390 O.3   2000  ADP2000    -0.1143
      3  O2B       24.1730  -21.2630    6.9710 O.2   2000  ADP2000    -0.2221
      4  O3B       24.3070  -19.6720    8.8010 O.3   2000  ADP2000    -0.1143
      5  PA        23.4660  -17.3790    6.8740 P.3   2000  ADP2000     0.2231
      6  O1A       22.5180  -17.5680    8.0020 O.3   2000  ADP2000    -0.4370
      7  O2A       24.5140  -16.3730    7.2400 O.2   2000  ADP2000    -0.5169
      8  O3A       24.1650  -18.7500    6.5120 O.3   2000  ADP2000    -0.2261
      9  O5'       22.6790  -16.7910    5.6440 O.3   2000  ADP2000    -0.3111
     10  C5'       22.5550  -15.3670    5.7650 C.3   2000  ADP2000     0.1813
     11  C4'       22.1350  -14.6040    4.5400 C.3   2000  ADP2000     0.1821
     12  O4'       21.1350  -15.2940    3.7740 O.3   2000  ADP2000    -0.3135
     13  C3'       21.6430  -13.2350    4.9090 C.3   2000  ADP2000     0.2184
     14  O3'       22.6070  -12.2600    4.4620 O.3   2000  ADP2000    -0.2174
     15  C2'       20.2090  -13.1940    4.3220 C.3   2000  ADP2000     0.2570
     16  O2'       19.9270  -12.0980    3.4550 O.3   2000  ADP2000    -0.2130
     17  C1'       20.0120  -14.5190    3.6080 C.3   2000  ADP2000     0.3186
     18  N9        18.8260  -15.3170    4.0470 N.pl3 2000  ADP2000    -0.1439
     19  C8        18.7730  -16.6090    4.4480 C.3   2000  ADP2000     0.3377
     20  N7        17.5300  -17.0530    4.6780 N.2   2000  ADP2000    -0.2095
     21  C5        16.7390  -15.9580    4.4120 C.2   2000  ADP2000     0.2526
     22  C6        15.3300  -15.7770    4.4670 C.2   2000  ADP2000     0.4393
     23  N6        14.4780  -16.7270    4.8310 N.pl3 2000  ADP2000     0.2180
     24  N1        14.8430  -14.5320    4.1280 N.2   2000  ADP2000     0.0021
     25  C2        15.7280  -13.5380    3.7550 C.3   2000  ADP2000     0.5254
     26  N3        17.0520  -13.6110    3.6730 N.2   2000  ADP2000    -0.0055
     27  C4        17.5100  -14.8740    4.0180 C.2   2000  ADP2000     0.3518
@<TRIPOS>BOND
     1    16    15    1
     2    17    12    1
     3    17    18    1
     4    17    15    1
     5    26    25    1
     6    26    27    2
     7    25    24    1
     8    12    11    1
     9    27    18    1
    10    27    21    1
    11    18    19    1
    12    24    22    2
    13    15    13    1
    14    21    22    1
    15    21    20    2
    16    19    20    1
    17    14    13    1
    18    22    23    1
    19    11    13    1
    20    11    10    1
    21     9    10    1
    22     9     5    1
    23     8     5    1
    24     8     1    1
    25     5     7    2
    26     5     6    1
    27     3     1    2
    28     2     1    1
    29     1     4    1
