@<TRIPOS>MOLECULE
2zfl_ADP_A_1.pdb
 27 29 0 0 0
SMALL
GASTEIGER

@<TRIPOS>ATOM
      1  PB        -3.9910   19.6220    7.3980 P.3   2000  ADP2000     0.5373
      2  O1B       -5.4130   19.1790    7.0830 O.2   2000  ADP2000    -0.2221
      3  O2B       -3.8270   21.0900    7.1000 O.3   2000  ADP2000    -0.1143
      4  O3B       -3.6260   19.3730    8.8450 O.3   2000  ADP2000    -0.1143
      5  PA        -2.3560   17.2750    6.5600 P.3   2000  ADP2000     0.2231
      6  O1A       -1.2870   17.2050    7.6120 O.3   2000  ADP2000    -0.4370
      7  O2A       -3.4640   16.3010    6.8870 O.2   2000  ADP2000    -0.5169
      8  O3A       -3.0020   18.7400    6.4710 O.3   2000  ADP2000    -0.2261
      9  O5'       -1.6900   16.8840    5.1850 O.3   2000  ADP2000    -0.3111
     10  C5'       -2.4790   15.9010    4.5370 C.3   2000  ADP2000     0.1813
     11  C4'       -1.7500   14.9150    3.7220 C.3   2000  ADP2000     0.1821
     12  O4'       -0.6450   15.5010    3.0670 O.3   2000  ADP2000    -0.3135
     13  C3'       -1.2930   13.6480    4.4450 C.3   2000  ADP2000     0.2184
     14  O3'       -2.1940   12.5500    4.1440 O.3   2000  ADP2000    -0.2174
     15  C2'        0.2040   13.5150    4.0230 C.3   2000  ADP2000     0.2570
     16  O2'        0.5800   12.2920    3.3520 O.3   2000  ADP2000    -0.2130
     17  C1'        0.5080   14.7610    3.1750 C.3   2000  ADP2000     0.3186
     18  N9         1.5840   15.5770    3.7410 N.pl3 2000  ADP2000    -0.1439
     19  C8         1.5240   16.7830    4.3510 C.3   2000  ADP2000     0.3377
     20  N7         2.7260   17.1990    4.8340 N.2   2000  ADP2000    -0.2095
     21  C5         3.6030   16.1680    4.5100 C.2   2000  ADP2000     0.2526
     22  C6         5.0220   15.9840    4.7270 C.2   2000  ADP2000     0.4393
     23  N6         5.8120   16.8590    5.3430 N.pl3 2000  ADP2000     0.2180
     24  N1         5.5800   14.8070    4.2460 N.2   2000  ADP2000     0.0021
     25  C2         4.7730   13.8780    3.6050 C.3   2000  ADP2000     0.5254
     26  N3         3.4750   13.9700    3.3650 N.2   2000  ADP2000    -0.0055
     27  C4         2.9230   15.1480    3.8510 C.2   2000  ADP2000     0.3518
@<TRIPOS>BOND
     1    12    17    1
     2    12    11    1
     3    17    18    1
     4    17    15    1
     5    16    15    1
     6    26    25    1
     7    26    27    2
     8    25    24    1
     9    11    13    1
    10    11    10    1
    11    18    27    1
    12    18    19    1
    13    27    21    1
    14    15    13    1
    15    14    13    1
    16    24    22    2
    17    19    20    1
    18    21    22    1
    19    21    20    2
    20    10     9    1
    21    22    23    1
    22     9     5    1
    23     8     5    1
    24     8     1    1
    25     5     7    2
    26     5     6    1
    27     2     1    2
    28     3     1    1
    29     1     4    1
