@<TRIPOS>MOLECULE
2zfm_ADP_A_1.pdb
 27 29 0 0 0
SMALL
GASTEIGER

@<TRIPOS>ATOM
      1  PB        -4.1220   20.9820    7.2760 P.3   2000  ADP2000     0.5373
      2  O1B       -5.4600   21.4470    6.8090 O.2   2000  ADP2000    -0.2221
      3  O2B       -3.0590   22.0410    7.1150 O.3   2000  ADP2000    -0.1143
      4  O3B       -4.1660   20.5590    8.7150 O.3   2000  ADP2000    -0.1143
      5  PA        -2.8390   18.4640    6.5170 P.3   2000  ADP2000     0.2231
      6  O1A       -2.0220   18.4880    7.7860 O.3   2000  ADP2000    -0.4370
      7  O2A       -3.7620   17.2860    6.5290 O.2   2000  ADP2000    -0.5169
      8  O3A       -3.7600   19.7430    6.3540 O.3   2000  ADP2000    -0.2261
      9  O5'       -1.8980   18.3560    5.2880 O.3   2000  ADP2000    -0.3111
     10  C5'       -2.6380   17.8770    4.1740 C.3   2000  ADP2000     0.1813
     11  C4'       -2.0350   16.7100    3.4400 C.3   2000  ADP2000     0.1821
     12  O4'       -0.7890   17.0440    2.8700 O.3   2000  ADP2000    -0.3135
     13  C3'       -1.8700   15.3900    4.2060 C.3   2000  ADP2000     0.2184
     14  O3'       -2.9630   14.5030    3.8470 O.3   2000  ADP2000    -0.2174
     15  C2'       -0.4060   14.9440    3.8520 C.3   2000  ADP2000     0.2570
     16  O2'       -0.3580   13.6800    3.1190 O.3   2000  ADP2000    -0.2130
     17  C1'        0.2120   16.1200    3.0340 C.3   2000  ADP2000     0.3186
     18  N9         1.3950   16.7910    3.6590 N.pl3 2000  ADP2000    -0.1439
     19  C8         1.4920   18.0150    4.2710 C.3   2000  ADP2000     0.3377
     20  N7         2.7470   18.3010    4.7470 N.2   2000  ADP2000    -0.2095
     21  C5         3.4920   17.1700    4.4130 C.2   2000  ADP2000     0.2526
     22  C6         4.8850   16.8330    4.6070 C.2   2000  ADP2000     0.4393
     23  N6         5.7970   17.6220    5.2010 N.pl3 2000  ADP2000     0.2180
     24  N1         5.2890   15.5950    4.1260 N.2   2000  ADP2000     0.0021
     25  C2         4.3670   14.7710    3.5120 C.3   2000  ADP2000     0.5254
     26  N3         3.0780   14.9920    3.2920 N.2   2000  ADP2000    -0.0055
     27  C4         2.6770   16.2170    3.7620 C.2   2000  ADP2000     0.3518
@<TRIPOS>BOND
     1    12    17    1
     2    12    11    1
     3    17    18    1
     4    17    15    1
     5    16    15    1
     6    26    25    1
     7    26    27    2
     8    11    10    1
     9    11    13    1
    10    25    24    1
    11    18    27    1
    12    18    19    1
    13    27    21    1
    14    14    13    1
    15    15    13    1
    16    24    22    2
    17    10     9    1
    18    19    20    1
    19    21    22    1
    20    21    20    2
    21    22    23    1
    22     9     5    1
    23     8     5    1
    24     8     1    1
    25     5     7    2
    26     5     6    1
    27     2     1    2
    28     3     1    1
    29     1     4    1
