@<TRIPOS>MOLECULE
2zfo_HEM_A_1.pdb
 43 50 0 0 0
SMALL
GASTEIGER

@<TRIPOS>ATOM
      1  CHA       40.8590   24.5550    4.1660 C.2   200  HEM200      0.0000
      2  CHB       37.0460   25.9660    6.7880 C.2   200  HEM200      0.0000
      3  CHC       36.1620   29.5350    3.6660 C.2   200  HEM200      0.0000
      4  CHD       39.6500   27.8310    0.7920 C.2   200  HEM200      0.0000
      5  C1A       39.9170   24.6340    5.1850 C.2   200  HEM200      0.0000
      6  C2A       39.8160   23.7290    6.3380 C.2   200  HEM200      0.0000
      7  C3A       38.7680   24.1580    7.0970 C.2   200  HEM200      0.0000
      8  C4A       38.1760   25.2910    6.3810 C.2   200  HEM200      0.0000
      9  CMA       38.2600   23.5840    8.3990 C.3   200  HEM200      0.0000
     10  CAA       40.6740   22.5240    6.5690 C.3   200  HEM200      0.0000
     11  CBA       41.9550   22.8620    7.3100 C.3   200  HEM200      0.0000
     12  CGA       42.8700   21.6560    7.5000 C.2   200  HEM200      0.0000
     13  O1A       43.9260   21.5770    6.8060 O.co2 200  HEM200      0.0000
     14  O2A       42.5110   20.7800    8.3310 O.co2 200  HEM200      0.0000
     15  C1B       36.4680   27.0670    6.2000 C.ar  200  HEM200      0.0000
     16  C2B       35.2840   27.7650    6.7120 C.ar  200  HEM200      0.0000
     17  C3B       34.9710   28.7130    5.7860 C.ar  200  HEM200      0.0000
     18  C4B       36.0280   28.6770    4.7690 C.ar  200  HEM200      0.0000
     19  CMB       34.5740   27.4360    7.9870 C.3   200  HEM200      0.0000
     20  CAB       33.7620   29.5830    5.7400 C.2   200  HEM200      0.0000
     21  CBB       33.6720   30.8860    5.4650 C.2   200  HEM200      0.0000
     22  C1C       36.9380   29.3260    2.5380 C.2   200  HEM200      0.0000
     23  C2C       36.7920   30.0260    1.2550 C.2   200  HEM200      0.0000
     24  C3C       37.7430   29.4820    0.4110 C.2   200  HEM200      0.0000
     25  C4C       38.5220   28.5260    1.2200 C.2   200  HEM200      0.0000
     26  CMC       35.7790   31.1250    1.0080 C.3   200  HEM200      0.0000
     27  CAC       38.0050   29.7630   -1.0350 C.2   200  HEM200      0.0000
     28  CBC       37.0910   29.9430   -1.9950 C.2   200  HEM200      0.0000
     29  C1D       40.3350   26.8190    1.4590 C.ar  200  HEM200      0.0000
     30  C2D       41.4690   26.1000    0.9320 C.ar  200  HEM200      0.0000
     31  C3D       41.8550   25.2090    1.9200 C.ar  200  HEM200      0.0000
     32  C4D       40.8980   25.3340    3.0080 C.ar  200  HEM200      0.0000
     33  CMD       42.0770   26.3030   -0.4390 C.3   200  HEM200      0.0000
     34  CAD       43.0350   24.2820    1.8770 C.3   200  HEM200      0.0000
     35  CBD       42.7280   23.0090    1.0830 C.3   200  HEM200      0.0000
     36  CGD       43.9760   22.1540    1.0700 C.2   200  HEM200      0.0000
     37  O1D       44.3470   21.5960    2.1310 O.co2 200  HEM200      0.0000
     38  O2D       44.5640   22.0460   -0.0290 O.co2 200  HEM200      0.0000
     39  NA        38.9010   25.5750    5.2580 N.2   200  HEM200      0.0000
     40  NB        36.8960   27.6490    5.0410 N.ar  200  HEM200      0.0000
     41  NC        37.9660   28.4190    2.4540 N.2   200  HEM200      0.0000
     42  ND        40.0220   26.3460    2.7210 N.ar  200  HEM200      0.0000
     43 FE         38.5270   27.0620    3.9140 Fe    200  HEM200      0.0000
@<TRIPOS>BOND
     1    28    27    2
     2    27    24    1
     3    33    30    1
     4    38    36   ar
     5    24    25    1
     6    24    23    2
     7     4    25    1
     8     4    29    2
     9    30    29   ar
    10    30    31   ar
    11    26    23    1
    12    36    35    1
    13    36    37   ar
    14    35    34    1
    15    25    41    2
    16    23    22    1
    17    29    42   ar
    18    34    31    1
    19    31    32   ar
    20    41    22    1
    21    41    43    1
    22    22     3    2
    23    42    32   ar
    24    42    43    1
    25    32     1    2
    26     3    18    1
    27    43    40    1
    28    43    39    1
    29     1     5    1
    30    18    40   ar
    31    18    17   ar
    32    40    15   ar
    33     5    39    2
    34     5     6    1
    35    39     8    1
    36    21    20    2
    37    20    17    1
    38    17    16   ar
    39    15    16   ar
    40    15     2    1
    41     6    10    1
    42     6     7    2
    43     8     2    2
    44     8     7    1
    45    10    11    1
    46    16    19    1
    47    13    12   ar
    48     7     9    1
    49    11    12    1
    50    12    14   ar
