@<TRIPOS>MOLECULE
2zfp_19U_H_1.pdb
 22 23 0 0 0
SMALL
GASTEIGER

@<TRIPOS>ATOM
      1  N         16.5370  -15.8360   23.3100 N.3   801  19U801     -0.1231
      2  C15       17.7460  -15.0060   23.0980 C.3   801  19U801      0.1678
      3  C14       17.3840  -13.6710   22.4600 C.2   801  19U801      0.2434
      4  O32       16.3750  -13.1400   22.9140 O.2   801  19U801     -0.2733
      5  C1        18.3830  -14.7220   24.4870 C.3   801  19U801      0.0284
      6  C17       19.8130  -14.1810   24.2950 C.3   801  19U801      0.0021
      7  N1        18.1120  -13.1040   21.4600 N.am  801  19U801     -0.2718
      8  C12       17.7820  -11.7870   20.9290 C.3   801  19U801      0.1535
      9  C7        16.3290  -11.6340   20.5720 C.2   801  19U801      0.2598
     10  O22       15.7310  -12.5940   20.1030 O.2   801  19U801     -0.2715
     11  C2        18.7040  -11.8010   19.6800 C.3   801  19U801      0.0310
     12  C3        19.9930  -12.4470   20.2640 C.3   801  19U801      0.0237
     13  C4        19.4170  -13.6460   21.0650 C.3   801  19U801      0.0939
     14  N23       15.6920  -10.4550   20.8000 N.am  801  19U801     -0.1992
     15  C24       14.3020  -10.3570   20.3610 C.3   801  19U801      0.1415
     16  C25       13.3070  -10.3530   21.5240 C.ar  801  19U801      0.0003
     17  C26       12.4580  -11.4560   21.6750 C.ar  801  19U801     -0.0025
     18  C27       11.5310  -11.5060   22.7180 C.ar  801  19U801      0.0006
     19  C28       11.4440  -10.4450   23.6260 C.ar  801  19U801      0.0114
     20  C29       12.2860   -9.3320   23.4900 C.ar  801  19U801      0.0574
     21  C30       13.2110   -9.2950   22.4380 C.ar  801  19U801      0.0088
     22 CL21       12.1580   -8.0080   24.6450 Cl    801  19U801     -0.0823
@<TRIPOS>BOND
     1    11    12    1
     2    11     8    1
     3    10     9    2
     4    12    13    1
     5    15    14    1
     6    15    16    1
     7     9    14   am
     8     9     8    1
     9     8     7    1
    10    13     7    1
    11     7     3   am
    12    16    17   ar
    13    16    21   ar
    14    17    18   ar
    15    21    20   ar
    16     3     4    2
    17     3     2    1
    18    18    19   ar
    19     2     1    1
    20     2     5    1
    21    20    19   ar
    22    20    22    1
    23     6     5    1
