@<TRIPOS>MOLECULE
2zfq_45U_H_1.pdb
 27 29 0 0 0
SMALL
GASTEIGER

@<TRIPOS>ATOM
      1  O32       16.6940  -13.1530   22.7380 O.2   501  45U501     -0.2721
      2  C14       17.7570  -13.6670   22.4360 C.2   501  45U501      0.2562
      3  C5        18.0110  -14.9520   23.2310 C.3   501  45U501      0.2270
      4  O21       19.3630  -15.0530   23.5730 O.3   501  45U501     -0.3470
      5  C44       20.0840  -14.7060   24.7320 C.3   501  45U501      0.1159
      6  C49       21.3750  -14.0160   24.2200 C.3   501  45U501      0.0296
      7  C48       21.8940  -13.0850   25.3080 C.3   501  45U501      0.0026
      8  C47       20.7190  -12.7680   26.2040 C.3   501  45U501      0.0026
      9  C45       19.5100  -13.4430   25.4970 C.3   501  45U501      0.0296
     10  N1        18.5620  -13.0970   21.5250 N.am  501  45U501     -0.2709
     11  C1        18.3090  -11.8020   20.9380 C.3   501  45U501      0.1536
     12  C7        16.9730  -11.9080   20.2570 C.2   501  45U501      0.2598
     13  O22       16.5310  -12.9690   19.8440 O.2   501  45U501     -0.2715
     14  C2        19.4430  -11.6400   19.9400 C.3   501  45U501      0.0310
     15  C3        20.2090  -12.9440   19.8110 C.3   501  45U501      0.0237
     16  C4        19.7720  -13.8490   20.9400 C.3   501  45U501      0.0940
     17  N23       16.2620  -10.8150   20.1350 N.am  501  45U501     -0.1992
     18  C24       14.9320  -10.7100   19.5330 C.3   501  45U501      0.1415
     19  C25       13.8980  -10.6990   20.6550 C.ar  501  45U501     -0.0006
     20  C30       13.2790   -9.5910   21.2380 C.ar  501  45U501     -0.0023
     21  C29       12.3200   -9.6270   22.2810 C.ar  501  45U501      0.0077
     22  C28       11.8180  -10.7420   22.9180 C.ar  501  45U501      0.0975
     23  C21       10.7850  -10.7020   24.0370 C.2   501  45U501      0.4766
     24  N47       10.5720   -9.5750   24.7060 N.pl3 501  45U501      0.2047
     25  N46       10.1070  -11.7980   24.3330 N.pl3 501  45U501      0.2047
     26  C27       12.4310  -11.8430   22.3400 C.ar  501  45U501      0.0077
     27  C26       13.3910  -11.8190   21.2960 C.ar  501  45U501     -0.0023
@<TRIPOS>BOND
     1    18    17    1
     2    18    19    1
     3    15    14    1
     4    15    16    1
     5    13    12    2
     6    14    11    1
     7    17    12   am
     8    12    11    1
     9    19    20   ar
    10    19    27   ar
    11    11    10    1
    12    16    10    1
    13    20    21   ar
    14    27    26   ar
    15    10     2   am
    16    21    22   ar
    17    26    22   ar
    18     2     1    2
    19     2     3    1
    20    22    23    1
    21     3     4    1
    22     4     5    1
    23    23    25    2
    24    23    24    1
    25     6     5    1
    26     6     7    1
    27     5     9    1
    28     7     8    1
    29     9     8    1
