@<TRIPOS>MOLECULE
2zfr_46U_H_1.pdb
 23 24 0 0 0
SMALL
GASTEIGER

@<TRIPOS>ATOM
      1  O32       16.7840  -13.2990   22.8510 O.2   501  46U501     -0.2721
      2  C14       17.8270  -13.8230   22.4420 C.2   501  46U501      0.2562
      3  C5        18.2230  -15.2070   22.8950 C.3   501  46U501      0.2272
      4  O21       19.5630  -15.1830   23.3020 O.3   501  46U501     -0.3417
      5  C44       19.6580  -14.8650   24.6880 C.3   501  46U501      0.1748
      6  N1        18.6820  -13.2220   21.5750 N.am  501  46U501     -0.2709
      7  C1        18.3520  -11.9230   20.9530 C.3   501  46U501      0.1536
      8  C7        17.0420  -11.8140   20.2830 C.2   501  46U501      0.2598
      9  O22       16.6700  -12.8000   19.6650 O.2   501  46U501     -0.2715
     10  C2        19.4920  -11.7780   19.9800 C.3   501  46U501      0.0310
     11  C3        20.3910  -12.9930   19.9200 C.3   501  46U501      0.0237
     12  C4        19.6800  -14.0060   20.7690 C.3   501  46U501      0.0940
     13  N23       16.2440  -10.8010   20.2620 N.am  501  46U501     -0.1992
     14  C24       14.9370  -10.8550   19.7140 C.3   501  46U501      0.1415
     15  C25       13.9260  -10.7150   20.7820 C.ar  501  46U501     -0.0006
     16  C30       13.4080   -9.5430   21.2250 C.ar  501  46U501     -0.0023
     17  C29       12.4660   -9.5260   22.2310 C.ar  501  46U501      0.0077
     18  C28       11.9890  -10.6570   22.8480 C.ar  501  46U501      0.0975
     19  C21       10.9570  -10.5490   23.9420 C.2   501  46U501      0.4766
     20  N46       10.2880  -11.6540   24.2490 N.pl3 501  46U501      0.2047
     21  N47       10.7180   -9.4080   24.5740 N.pl3 501  46U501      0.2047
     22  C27       12.5280  -11.8420   22.3820 C.ar  501  46U501      0.0077
     23  C26       13.4870  -11.9010   21.3620 C.ar  501  46U501     -0.0023
@<TRIPOS>BOND
     1     9     8    2
     2    14    13    1
     3    14    15    1
     4    11    10    1
     5    11    12    1
     6    10     7    1
     7    13     8   am
     8     8     7    1
     9    12     6    1
    10    15    16   ar
    11    15    23   ar
    12     7     6    1
    13    16    17   ar
    14    23    22   ar
    15     6     2   am
    16    17    18   ar
    17    22    18   ar
    18     2     1    2
    19     2     3    1
    20    18    19    1
    21     3     4    1
    22     4     5    1
    23    19    20    2
    24    19    21    1
