@<TRIPOS>MOLECULE
2zfs_12U_A_1.pdb
 29 31 0 0 0
SMALL
GASTEIGER

@<TRIPOS>ATOM
      1  C14       28.6330   -1.0330   16.7230 C.2   501  12U501      0.2437
      2  O32       27.5260   -0.7840   17.2090 O.2   501  12U501     -0.2733
      3  C5        29.7830   -1.2450   17.6730 C.3   501  12U501      0.1737
      4  N21       29.5330   -0.5000   18.9370 N.3   501  12U501     -0.2100
      5  C49       29.8540    0.9440   18.9280 C.3   501  12U501      0.0733
      6  C48       31.2790    1.1990   19.2940 C.3   501  12U501      0.0174
      7  C47       31.3910    1.2800   20.7990 C.3   501  12U501      0.0014
      8  C46       31.2250    2.6480   21.3890 C.3   501  12U501      0.0000
      9  C52       29.9080    3.2210   21.1430 C.3   501  12U501      0.0000
     10  C51       29.4170    2.7770   19.8420 C.3   501  12U501      0.0014
     11  C50       28.7690    1.4960   19.5650 C.3   501  12U501      0.0174
     12  N1        28.7020   -1.0400   15.4270 N.am  501  12U501     -0.2718
     13  C1        27.7440   -0.7940   14.6310 C.3   501  12U501      0.1535
     14  C7        26.6100   -1.7090   14.5000 C.2   501  12U501      0.2598
     15  O22       26.6790   -2.8940   14.8240 O.2   501  12U501     -0.2715
     16  C2        28.3430   -0.6200   13.2310 C.3   501  12U501      0.0310
     17  C3        29.6590   -1.3350   13.2780 C.3   501  12U501      0.0237
     18  C4        29.9930   -1.3170   14.7630 C.3   501  12U501      0.0939
     19  N23       25.4700   -1.3260   14.0110 N.am  501  12U501     -0.1992
     20  C24       24.3470   -2.1350   13.6570 C.3   501  12U501      0.1415
     21  C25       23.2520   -2.0120   14.7090 C.ar  501  12U501     -0.0006
     22  C30       23.3090   -2.4080   16.0240 C.ar  501  12U501     -0.0023
     23  C29       22.1860   -2.2110   16.8550 C.ar  501  12U501      0.0077
     24  C28       20.9650   -1.6340   16.4790 C.ar  501  12U501      0.0975
     25  C9        19.8400   -1.4820   17.4860 C.2   501  12U501      0.4766
     26  N10       19.0160   -0.4670   17.2910 N.pl3 501  12U501      0.2047
     27  N11       19.6820   -2.3110   18.5070 N.pl3 501  12U501      0.2047
     28  C27       20.9130   -1.2380   15.1660 C.ar  501  12U501      0.0077
     29  C26       22.0300   -1.4310   14.3260 C.ar  501  12U501     -0.0023
@<TRIPOS>BOND
     1    16    17    1
     2    16    13    1
     3    17    18    1
     4    20    19    1
     5    20    21    1
     6    19    14   am
     7    29    21   ar
     8    29    28   ar
     9    14    13    1
    10    14    15    2
    11    13    12    1
    12    21    22   ar
    13    18    12    1
    14    28    24   ar
    15    12     1   am
    16    22    23   ar
    17    24    23   ar
    18    24    25    1
    19     1     2    2
    20     1     3    1
    21    26    25    2
    22    25    27    1
    23     3     4    1
    24     5     4    1
    25     5     6    1
    26     5    11    1
    27     6     7    1
    28    11    10    1
    29    10     9    1
    30     7     8    1
    31     9     8    1
