@<TRIPOS>MOLECULE
2zft_10U_A_1.pdb
 27 29 0 0 0
SMALL
GASTEIGER

@<TRIPOS>ATOM
      1  C14      -28.4160    0.9120   17.0430 C.2   501  10U501      0.2437
      2  O32      -27.2760    0.8660   17.5140 O.2   501  10U501     -0.2733
      3  C15      -29.6090    1.0240   17.9380 C.3   501  10U501      0.1737
      4  N16      -29.3560    0.4470   19.2270 N.3   501  10U501     -0.2100
      5  C17      -30.0140   -0.8220   19.5070 C.3   501  10U501      0.0733
      6  C21      -29.0850   -1.6140   20.4560 C.3   501  10U501      0.0174
      7  C20      -29.5930   -3.0660   20.4260 C.3   501  10U501      0.0015
      8  C19      -30.0470   -3.2670   18.9710 C.3   501  10U501      0.0015
      9  C18      -30.3890   -1.8630   18.3810 C.3   501  10U501      0.0174
     10  N1       -28.6490    0.8580   15.7200 N.am  501  10U501     -0.2718
     11  C2       -27.6230    0.5070   14.7560 C.3   501  10U501      0.1535
     12  C7       -26.5220    1.4880   14.5720 C.2   501  10U501      0.2598
     13  O22      -26.6450    2.6580   14.8980 O.2   501  10U501     -0.2715
     14  C3       -28.4600    0.3900   13.4900 C.3   501  10U501      0.0310
     15  C4       -29.7860    1.1040   13.5950 C.3   501  10U501      0.0237
     16  C5       -29.9720    1.1270   15.1080 C.3   501  10U501      0.0939
     17  N23      -25.3690    1.1760   14.0640 N.am  501  10U501     -0.1992
     18  C24      -24.2520    1.9970   13.8110 C.3   501  10U501      0.1415
     19  C25      -23.1560    1.8750   14.7890 C.ar  501  10U501     -0.0006
     20  C30      -23.2500    2.2580   16.0810 C.ar  501  10U501     -0.0023
     21  C29      -22.1760    2.1160   16.9550 C.ar  501  10U501      0.0077
     22  C28      -20.9650    1.5810   16.5600 C.ar  501  10U501      0.0975
     23  C31      -19.8280    1.4440   17.5380 C.2   501  10U501      0.4766
     24  N49      -19.6410    2.3610   18.4870 N.pl3 501  10U501      0.2047
     25  N48      -19.0210    0.3940   17.4330 N.pl3 501  10U501      0.2047
     26  C27      -20.8710    1.1840   15.2210 C.ar  501  10U501      0.0077
     27  C26      -21.9470    1.3240   14.3340 C.ar  501  10U501     -0.0023
@<TRIPOS>BOND
     1    14    15    1
     2    14    11    1
     3    15    16    1
     4    18    17    1
     5    18    19    1
     6    17    12   am
     7    27    19   ar
     8    27    26   ar
     9    12    11    1
    10    12    13    2
    11    11    10    1
    12    19    20   ar
    13    16    10    1
    14    26    22   ar
    15    10     1   am
    16    20    21   ar
    17    22    21   ar
    18    22    23    1
    19     1     2    2
    20     1     3    1
    21    25    23    2
    22    23    24    1
    23     3     4    1
    24     9     8    1
    25     9     5    1
    26     8     7    1
    27     4     5    1
    28     5     6    1
    29     7     6    1
