@<TRIPOS>MOLECULE
2zfu_SAH_A_1.pdb
 26 28 0 0 0
SMALL
GASTEIGER

@<TRIPOS>ATOM
      1  N         22.5580    6.3330   -4.5870 N.3   900  SAH900     -0.1208
      2  CA        22.8620    7.4250   -5.5250 C.3   900  SAH900      0.1952
      3  CB        21.8700    8.5790   -5.3580 C.3   900  SAH900      0.0422
      4  CG        21.8010    9.2190   -3.9680 C.3   900  SAH900      0.0597
      5  SD        20.8040   10.7410   -3.9030 S.3   900  SAH900     -0.1375
      6  C         24.2850    7.9530   -5.3630 C.2   900  SAH900      0.3819
      7  O         24.9240    7.6940   -4.3340 O.co2 900  SAH900     -0.2441
      8  OXT       24.8090    8.6590   -6.2430 O.co2 900  SAH900     -0.2441
      9  C5'       19.2960    9.9760   -3.2420 C.3   900  SAH900      0.0899
     10  C4'       18.4210    9.2800   -4.2920 C.3   900  SAH900      0.1630
     11  O4'       17.4680    8.4770   -3.6070 O.3   900  SAH900     -0.3153
     12  C3'       17.6390   10.2460   -5.1930 C.3   900  SAH900      0.2168
     13  O3'       17.8460    9.9240   -6.5560 O.3   900  SAH900     -0.2175
     14  C2'       16.2060   10.0400   -4.7660 C.3   900  SAH900      0.2569
     15  O2'       15.2330   10.3130   -5.7560 O.3   900  SAH900     -0.2130
     16  C1'       16.2580    8.5740   -4.3230 C.3   900  SAH900      0.3185
     17  N9        15.0970    8.2400   -3.5210 N.pl3 900  SAH900     -0.1439
     18  C8        14.7370    8.8350   -2.3390 C.3   900  SAH900      0.3377
     19  N7        13.5960    8.2560   -1.9400 N.2   900  SAH900     -0.2095
     20  C5        13.2240    7.3030   -2.8300 C.2   900  SAH900      0.2526
     21  C6        12.1420    6.4120   -2.8700 C.2   900  SAH900      0.4393
     22  N6        11.2170    6.4100   -1.9170 N.pl3 900  SAH900      0.2180
     23  N1        12.0320    5.5310   -3.9260 N.2   900  SAH900      0.0021
     24  C2        12.9770    5.5210   -4.9250 C.3   900  SAH900      0.5254
     25  N3        14.0660    6.4000   -4.8810 N.2   900  SAH900     -0.0055
     26  C4        14.1730    7.2760   -3.8380 C.2   900  SAH900      0.3518
@<TRIPOS>BOND
     1    13    12    1
     2     8     6   ar
     3    15    14    1
     4     2     6    1
     5     2     3    1
     6     2     1    1
     7     6     7   ar
     8     3     4    1
     9    12    14    1
    10    12    10    1
    11    24    25    1
    12    24    23    1
    13    25    26    2
    14    14    16    1
    15    16    11    1
    16    16    17    1
    17    10    11    1
    18    10     9    1
    19     4     5    1
    20    23    21    2
    21     5     9    1
    22    26    17    1
    23    26    20    1
    24    17    18    1
    25    21    20    1
    26    21    22    1
    27    20    19    2
    28    18    19    1
