@<TRIPOS>MOLECULE
2zfx_YR3_A_1.pdb
 33 34 0 0 0
SMALL
GASTEIGER

@<TRIPOS>ATOM
      1  C1         9.8880   11.9550    9.9850 C.ar    1  YR31        0.0363
      2  C2         9.3080   11.2860   11.0620 C.ar    1  YR31        0.1346
      3  C3         9.9130   10.0020   11.5370 C.ar    1  YR31        0.0118
      4  C4        11.0290    9.5130   10.8800 C.ar    1  YR31       -0.0052
      5  C5        11.5850   10.1630    9.7750 C.ar    1  YR31       -0.0191
      6  C6        11.0190   11.3930    9.3590 C.ar    1  YR31       -0.0009
      7  C7        12.8470    9.5550    9.1370 C.3     1  YR31        0.0377
      8  C8        13.0410    9.8230    7.6510 C.ar    1  YR31       -0.0191
      9  C9        12.9460    8.0140    9.3370 C.3     1  YR31        0.0081
     10  C10       14.0060   10.1690    9.9650 C.3     1  YR31        0.0081
     11  C11       14.2560   11.6820    9.8360 C.3     1  YR31        0.0007
     12  C12       12.0980    7.0980    8.4590 C.3     1  YR31        0.0007
     13  C13       14.3350    9.9980    7.1280 C.ar    1  YR31       -0.0052
     14  C14       14.5380   10.2380    5.7760 C.ar    1  YR31        0.0118
     15  C15       13.3580   10.2840    4.8830 C.ar    1  YR31        0.1346
     16  O33       14.0820   12.2650    1.4160 O.3     1  YR31       -0.2191
     17  C22       12.9280   11.3790    1.3590 C.3     1  YR31        0.1952
     18  C23       11.8440   11.9270    0.4230 C.3     1  YR31        0.0318
     19  C26       10.5270   11.1740    0.6260 C.3     1  YR31        0.0027
     20  C25       11.5770   13.4180    0.6020 C.3     1  YR31        0.0027
     21  C24       12.3530   11.6920   -0.9890 C.3     1  YR31        0.0027
     22  C21       12.4440   11.0700    2.7810 C.3     1  YR31        0.2380
     23  O20       13.5300   10.5170    3.5370 O.3     1  YR31       -0.4730
     24  C18       15.9210   10.4380    5.2130 C.3     1  YR31        0.0342
     25  C16       12.0860   10.0980    5.4310 C.ar    1  YR31        0.0363
     26  C17       11.9380    9.8760    6.7880 C.ar    1  YR31       -0.0009
     27  C19        9.3400    9.2260   12.7060 C.3     1  YR31        0.0342
     28  O27        8.2310   11.7970   11.7300 O.3     1  YR31       -0.4729
     29  C28        8.5240   12.2630   13.0500 C.3     1  YR31        0.2407
     30  C29        7.5400   13.3000   13.5630 C.3     1  YR31        0.2280
     31  O32        7.4800   14.4050   12.6520 O.3     1  YR31       -0.2163
     32  C30        6.1680   12.6530   13.7650 C.3     1  YR31        0.2187
     33  O31        5.1590   13.6410   14.0270 O.3     1  YR31       -0.2174
@<TRIPOS>BOND
     1    21    18    1
     2    18    20    1
     3    18    19    1
     4    18    17    1
     5    17    16    1
     6    17    22    1
     7    22    23    1
     8    23    15    1
     9    15    25   ar
    10    15    14   ar
    11    24    14    1
    12    25    26   ar
    13    14    13   ar
    14    26     8   ar
    15    13     8   ar
    16     8     7    1
    17    12     9    1
    18     7     9    1
    19     7     5    1
    20     7    10    1
    21     6     5   ar
    22     6     1   ar
    23     5     4   ar
    24    11    10    1
    25     1     2   ar
    26     4     3   ar
    27     2     3   ar
    28     2    28    1
    29     3    27    1
    30    28    29    1
    31    31    30    1
    32    29    30    1
    33    30    32    1
    34    32    33    1
