@<TRIPOS>MOLECULE
2zfz_ARG_A_1.pdb
 12 11 0 0 0
SMALL
GASTEIGER

@<TRIPOS>ATOM
      1  N        -16.7450   34.6420   13.8710 N.3   300  ARG300     -0.1208
      2  CA       -17.1100   35.7760   14.7830 C.3   300  ARG300      0.1944
      3  C        -16.7330   37.1180   14.1680 C.2   300  ARG300      0.3819
      4  O        -15.8540   37.1400   13.2790 O.co2 300  ARG300     -0.2441
      5  CB       -16.4160   35.5950   16.1450 C.3   300  ARG300      0.0343
      6  CG       -14.8640   35.6470   16.0830 C.3   300  ARG300      0.0490
      7  CD       -14.3040   35.3060   17.4550 C.3   300  ARG300      0.2205
      8  NE       -12.8440   35.4150   17.5790 N.pl3 300  ARG300     -0.0865
      9  CZ       -12.1710   36.5250   17.9000 C.cat 300  ARG300      0.5346
     10  NH1      -10.8250   36.4800   18.0370 N.pl3 300  ARG300      0.1354
     11  NH2      -12.8090   37.6710   18.1480 N.pl3 300  ARG300      0.1354
     12  OXT      -17.3100   38.1660   14.5270 O.co2 300  ARG300     -0.2441
@<TRIPOS>BOND
     1     4     3   ar
     2     1     2    1
     3     3    12   ar
     4     3     2    1
     5     2     5    1
     6     6     5    1
     7     6     7    1
     8     7     8    1
     9     8     9    2
    10     9    10    1
    11     9    11    1
