@<TRIPOS>MOLECULE
2zg0_50U_H_1.pdb
 28 30 0 0 0
SMALL
GASTEIGER

@<TRIPOS>ATOM
      1  C44       19.5820  -14.0820   24.7640 C.3   701  50U701      0.0005
      2  C45       19.7590  -13.3400   26.1100 C.3   701  50U701      0.0000
      3  C46       21.0950  -12.5520   26.2090 C.3   701  50U701      0.0000
      4  C47       22.3280  -13.4720   25.9350 C.3   701  50U701      0.0000
      5  C48       22.1900  -14.1090   24.5340 C.3   701  50U701      0.0000
      6  C49       20.8610  -14.9260   24.4490 C.3   701  50U701      0.0000
      7  C43       18.2950  -14.9890   24.7950 C.3   701  50U701      0.0096
      8  C5        17.7760  -15.2490   23.3540 C.3   701  50U701      0.0853
      9  C14       17.6720  -13.9260   22.6120 C.2   701  50U701      0.2259
     10  O32       16.7470  -13.2080   22.9960 O.2   701  50U701     -0.2749
     11  N1        18.4320  -13.5280   21.6560 N.am  701  50U701     -0.2730
     12  C1        18.2180  -12.1940   21.1240 C.3   701  50U701      0.1535
     13  C7        16.8770  -12.1050   20.4290 C.2   701  50U701      0.2598
     14  O22       16.5130  -13.1160   19.8480 O.2   701  50U701     -0.2715
     15  C2        19.3680  -12.2180   20.0800 C.3   701  50U701      0.0310
     16  C3        20.3980  -13.2090   20.6800 C.3   701  50U701      0.0237
     17  C4        19.5500  -14.3690   21.2650 C.3   701  50U701      0.0939
     18  N23       16.2500  -10.9950   20.4890 N.am  701  50U701     -0.1992
     19  C24       14.9440  -10.9590   19.8450 C.3   701  50U701      0.1415
     20  C25       13.8630  -10.8900   20.9450 C.ar  701  50U701     -0.0006
     21  C26       13.3760  -12.0620   21.5210 C.ar  701  50U701     -0.0023
     22  C27       12.4010  -12.0520   22.5160 C.ar  701  50U701      0.0077
     23  C28       11.8640  -10.8400   22.9850 C.ar  701  50U701      0.0975
     24  C21       10.8070  -10.8110   24.0630 C.2   701  50U701      0.4766
     25  N46       10.5020   -9.6980   24.6080 N.pl3 701  50U701      0.2047
     26  N47       10.2210  -11.8890   24.4300 N.pl3 701  50U701      0.2047
     27  C29       12.3490   -9.6620   22.4110 C.ar  701  50U701      0.0077
     28  C30       13.3320   -9.6890   21.4080 C.ar  701  50U701     -0.0023
@<TRIPOS>BOND
     1    19    18    1
     2    19    20    1
     3    14    13    2
     4    15    16    1
     5    15    12    1
     6    13    18   am
     7    13    12    1
     8    16    17    1
     9    20    28   ar
    10    20    21   ar
    11    12    11    1
    12    17    11    1
    13    28    27   ar
    14    21    22   ar
    15    11     9   am
    16    27    23   ar
    17    22    23   ar
    18     9    10    2
    19     9     8    1
    20    23    24    1
    21     8     7    1
    22    24    26    2
    23    24    25    1
    24     6     5    1
    25     6     1    1
    26     5     4    1
    27     1     7    1
    28     1     2    1
    29     4     3    1
    30     2     3    1
