@<TRIPOS>MOLECULE
2zg1_SIA_A_1.pdb
 21 21 0 0 0
SMALL
GASTEIGER

@<TRIPOS>ATOM
      1  C1        47.7910   11.0910   48.2000 C.2   241  SIA241      0.4179
      2  C2        48.3010   10.1130   49.2530 C.3   241  SIA241      0.3155
      3  C3        48.2790   10.7830   50.6320 C.3   241  SIA241      0.1056
      4  C4        46.8440   11.0900   51.0650 C.3   241  SIA241      0.1798
      5  C5        45.9880    9.8260   50.9870 C.3   241  SIA241      0.1554
      6  C6        46.0640    9.2530   49.5690 C.3   241  SIA241      0.1734
      7  C7        45.1970    7.9930   49.4390 C.3   241  SIA241      0.2135
      8  C8        45.7030    7.0850   48.3190 C.3   241  SIA241      0.2173
      9  C9        44.7290    5.9390   48.0770 C.3   241  SIA241      0.2175
     10  C10       44.1160    9.8210   52.5320 C.2   241  SIA241      0.2420
     11  C11       45.0770    9.6670   53.7070 C.3   241  SIA241      0.0964
     12  N5        44.6140   10.1400   51.3370 N.am  241  SIA241     -0.2020
     13  O1A       47.6170   12.2880   48.5210 O.co2 241  SIA241     -0.2401
     14  O1B       47.5710   10.6630   47.0470 O.co2 241  SIA241     -0.2401
     15  O2        49.5880    9.7090   48.9390 O.3   241  SIA241     -0.1830
     16  O4        46.8390   11.5890   52.3940 O.3   241  SIA241     -0.2210
     17  O6        47.4450    8.9540   49.2380 O.3   241  SIA241     -0.3220
     18  O7        45.1960    7.2740   50.6640 O.3   241  SIA241     -0.2176
     19  O8        45.8560    7.8360   47.1280 O.3   241  SIA241     -0.2175
     20  O9        45.1860    5.1500   46.9880 O.3   241  SIA241     -0.2175
     21  O10       42.9090    9.6650   52.7200 O.2   241  SIA241     -0.2733
@<TRIPOS>BOND
     1    20     9    1
     2    14     1   ar
     3    19     8    1
     4     9     8    1
     5     1    13   ar
     6     1     2    1
     7     8     7    1
     8    15     2    1
     9    17     2    1
    10    17     6    1
    11     2     3    1
    12     7     6    1
    13     7    18    1
    14     6     5    1
    15     3     4    1
    16     5     4    1
    17     5    12    1
    18     4    16    1
    19    12    10   am
    20    10    21    2
    21    10    11    1
