@<TRIPOS>MOLECULE
2zg3_SIA_A_1.pdb
 20 20 0 0 0
SMALL
GASTEIGER

@<TRIPOS>ATOM
      1  C1        46.9620   11.3490   49.1030 C.2   241  SIA241      0.3914
      2  C2        47.5930   10.6120   50.2960 C.3   241  SIA241      0.2203
      3  C3        47.3120   11.3550   51.6130 C.3   241  SIA241      0.0760
      4  C4        45.8400   11.2950   52.0230 C.3   241  SIA241      0.1773
      5  C5        45.2660    9.8880   51.9010 C.3   241  SIA241      0.1552
      6  C6        45.5860    9.3300   50.5240 C.3   241  SIA241      0.1710
      7  C7        44.9490    7.9590   50.2680 C.3   241  SIA241      0.2134
      8  C8        45.3000    7.4800   48.8670 C.3   241  SIA241      0.2173
      9  C9        44.5430    6.2020   48.5130 C.3   241  SIA241      0.2175
     10  C10       43.2060    9.3310   53.0400 C.2   241  SIA241      0.2420
     11  C11       43.4450    7.8340   53.1730 C.3   241  SIA241      0.0964
     12  N5        43.8290    9.9630   52.0520 N.am  241  SIA241     -0.2020
     13  O1A       46.5900   12.5360   49.2450 O.co2 241  SIA241     -0.2430
     14  O1B       46.8540   10.7400   48.0100 O.co2 241  SIA241     -0.2430
     15  O4        45.7070   11.7300   53.3630 O.3   241  SIA241     -0.2211
     16  O6        47.0210    9.2880   50.3420 O.3   241  SIA241     -0.3429
     17  O7        45.3900    7.0130   51.2260 O.3   241  SIA241     -0.2176
     18  O8        44.9700    8.4980   47.9390 O.3   241  SIA241     -0.2175
     19  O9        44.9530    5.7390   47.2330 O.3   241  SIA241     -0.2175
     20  O10       42.4290    9.9030   53.8080 O.2   241  SIA241     -0.2733
@<TRIPOS>BOND
     1    19     9    1
     2    18     8    1
     3    14     1   ar
     4     9     8    1
     5     8     7    1
     6     1    13   ar
     7     1     2    1
     8     7     6    1
     9     7    17    1
    10     2    16    1
    11     2     3    1
    12    16     6    1
    13     6     5    1
    14     3     4    1
    15     5     4    1
    16     5    12    1
    17     4    15    1
    18    12    10   am
    19    10    11    1
    20    10    20    2
