@<TRIPOS>MOLECULE
2zg3_GAL_A_1.pdb
 11 11 0 0 0
SMALL
GASTEIGER

@<TRIPOS>ATOM
      1  C1        50.9870    8.1220   48.0560 C.3   242  GAL242      0.1777
      2  C2        50.5000    8.8350   49.3150 C.3   242  GAL242      0.2141
      3  C3        49.3810    9.7950   48.9400 C.3   242  GAL242      0.2173
      4  C4        49.7980   10.7690   47.8330 C.3   242  GAL242      0.2142
      5  C5        50.3730    9.9900   46.6450 C.3   242  GAL242      0.1810
      6  C6        50.9830   10.9060   45.6140 C.3   242  GAL242      0.2141
      7  O2        50.0010    7.8780   50.2400 O.3   242  GAL242     -0.2176
      8  O3        48.9650   10.5170   50.1050 O.3   242  GAL242     -0.2175
      9  O4        50.7470   11.7080   48.3160 O.3   242  GAL242     -0.2176
     10  O5        51.4150    9.0880   47.0890 O.3   242  GAL242     -0.3481
     11  O6        51.7990   10.1770   44.7200 O.3   242  GAL242     -0.2176
@<TRIPOS>BOND
     1    11     6    1
     2     6     5    1
     3     5    10    1
     4     5     4    1
     5    10     1    1
     6     4     9    1
     7     4     3    1
     8     1     2    1
     9     3     2    1
    10     3     8    1
    11     2     7    1
