@<TRIPOS>MOLECULE
2zga_YDP_A_1.pdb
 21 21 0 0 0
SMALL
GASTEIGER

@<TRIPOS>ATOM
      1  N1        -2.4640  -20.2510   18.0140 N.am  2501  YDP2501    -0.0837
      2  C5        -3.9760  -17.9940   16.8360 C.ar  2501  YDP2501     0.0060
      3  C6        -4.2010  -19.3270   16.4680 C.ar  2501  YDP2501     0.0567
      4  C8        -3.4000  -20.4770   17.0580 C.2   2501  YDP2501     0.2842
      5  C10       -8.3970  -17.2140   19.8470 C.3   2501  YDP2501     0.0261
      6  C20       -4.6870  -16.9370   16.2550 C.ar  2501  YDP2501     0.0201
      7  C24       -9.0190  -17.0490   14.0200 C.3   2501  YDP2501     0.1166
      8  C27       -5.6660  -17.2230   15.3030 C.ar  2501  YDP2501     0.1222
      9  C18       -5.9080  -18.5510   14.9480 C.ar  2501  YDP2501     0.0201
     10  C2        -5.1900  -19.6070   15.5240 C.ar  2501  YDP2501     0.0060
     11  S9        -6.6070  -15.9200   14.5440 S.O2  2501  YDP2501     0.0636
     12  O40       -6.1790  -14.6880   15.1710 O.2   2501  YDP2501    -0.1528
     13  N32       -8.2400  -16.2580   14.9900 N.3   2501  YDP2501    -0.1496
     14  C33       -8.7360  -15.7230   16.2580 C.3   2501  YDP2501     0.1212
     15  C34       -8.5770  -16.6020   17.4710 C.2   2501  YDP2501    -0.0155
     16  C35       -8.5110  -16.1790   18.7480 C.2   2501  YDP2501    -0.0465
     17  C11       -8.5590  -14.7380   19.1930 C.3   2501  YDP2501     0.0261
     18  C25       -9.5900  -18.3910   14.5340 C.3   2501  YDP2501     0.1284
     19  N22      -10.7830  -18.6770   13.7170 N.3   2501  YDP2501    -0.1298
     20  O11       -6.5190  -16.1520   13.1150 O.2   2501  YDP2501    -0.1528
     21  O2        -3.6900  -21.6180   16.7430 O.2   2501  YDP2501    -0.2667
@<TRIPOS>BOND
     1    20    11    2
     2    19    18    1
     3     7    18    1
     4     7    13    1
     5    11    13    1
     6    11    12    2
     7    11     8    1
     8     9     8   ar
     9     9    10   ar
    10    13    14    1
    11     8     6   ar
    12    10     3   ar
    13     6     2   ar
    14    14    15    1
    15     3     2   ar
    16     3     4    1
    17    21     4    2
    18     4     1   am
    19    15    16    2
    20    16    17    1
    21    16     5    1
