@<TRIPOS>MOLECULE
2zgb_21U_H_1.pdb
 24 25 0 0 0
SMALL
GASTEIGER

@<TRIPOS>ATOM
      1  N2        16.9520  -15.4520   23.4520 N.3   1801  21U1801    -0.1231
      2  C15       18.1560  -14.6200   23.2580 C.3   1801  21U1801     0.1678
      3  C16       18.8410  -14.3680   24.6270 C.3   1801  21U1801     0.0284
      4  C12       20.1150  -13.4720   24.5690 C.3   1801  21U1801     0.0019
      5  C13       21.3580  -14.2490   24.0210 C.3   1801  21U1801     0.0001
      6  C18       20.4910  -12.8930   25.9600 C.3   1801  21U1801     0.0001
      7  C14       17.7200  -13.3370   22.5570 C.2   1801  21U1801     0.2434
      8  O32       16.7270  -12.7840   23.0250 O.2   1801  21U1801    -0.2733
      9  N1        18.3370  -12.8670   21.4540 N.am  1801  21U1801    -0.2718
     10  C1        17.8760  -11.6540   20.7960 C.3   1801  21U1801     0.1535
     11  C7        16.3960  -11.6850   20.4790 C.2   1801  21U1801     0.2598
     12  O22       15.9090  -12.6940   19.9660 O.2   1801  21U1801    -0.2715
     13  C2        18.6500  -11.7230   19.4530 C.3   1801  21U1801     0.0310
     14  C3        19.8430  -12.6280   19.7140 C.3   1801  21U1801     0.0237
     15  C4        19.4100  -13.6200   20.8020 C.3   1801  21U1801     0.0939
     16  N23       15.6640  -10.5860   20.7750 N.am  1801  21U1801    -0.1992
     17  C24       14.2650  -10.5340   20.3250 C.3   1801  21U1801     0.1415
     18  C25       13.3050  -10.4040   21.5140 C.ar  1801  21U1801     0.0003
     19  C26       12.4090  -11.4440   21.7710 C.ar  1801  21U1801    -0.0025
     20  C27       11.5260  -11.3600   22.8390 C.ar  1801  21U1801     0.0006
     21  C28       11.5060  -10.2380   23.6860 C.ar  1801  21U1801     0.0114
     22  C29       12.4020   -9.2010   23.4270 C.ar  1801  21U1801     0.0574
     23  C30       13.2920   -9.2860   22.3500 C.ar  1801  21U1801     0.0088
     24 CL21       12.4070   -7.7890   24.4620 Cl    1801  21U1801    -0.0823
@<TRIPOS>BOND
     1    13    14    1
     2    13    10    1
     3    14    15    1
     4    12    11    2
     5    17    16    1
     6    17    18    1
     7    11    16   am
     8    11    10    1
     9    10     9    1
    10    15     9    1
    11     9     7   am
    12    18    19   ar
    13    18    23   ar
    14    19    20   ar
    15    23    22   ar
    16     7     8    2
    17     7     2    1
    18    20    21   ar
    19     2     1    1
    20     2     3    1
    21    22    21   ar
    22    22    24    1
    23     5     4    1
    24     4     3    1
    25     4     6    1
