@<TRIPOS>MOLECULE
2zgh_III_B_1.pdb
 42 42 0 0 0
SMALL
GASTEIGER

@<TRIPOS>ATOM
      1  N        -32.1060  -28.8960    5.4970 N.3     2  SER2       -0.1202
      2  CA       -32.0510  -29.9220    6.5870 C.3     2  SER2        0.2020
      3  C        -32.1130  -29.2800    7.9960 C.2     2  SER2        0.2619
      4  O        -33.2150  -29.0740    8.5310 O.2     2  SER2       -0.2717
      5  CB       -30.8140  -30.8420    6.4130 C.3     2  SER2        0.2103
      6  OG       -30.5330  -31.6280    7.5760 O.3     2  SER2       -0.2182
      7  N        -30.9530  -28.9500    8.5780 N.am    3  GLY3       -0.1942
      8  CA       -30.8800  -28.5490    9.9820 C.3     3  GLY3        0.2014
      9  C        -29.8500  -27.4800   10.3250 C.2     3  GLY3        0.2639
     10  O        -28.7180  -27.7910   10.6580 O.2     3  GLY3       -0.2714
     11  N        -30.2570  -26.2150   10.2390 N.am    4  LYS4       -0.1963
     12  CA       -29.5520  -25.1180   10.8980 C.3     4  LYS4        0.1728
     13  C        -29.8130  -25.1770   12.3950 C.2     4  LYS4        0.2616
     14  O        -30.9570  -25.1830   12.8180 O.2     4  LYS4       -0.2715
     15  CB       -30.0050  -23.7720   10.3380 C.3     4  LYS4        0.0311
     16  CG       -29.3640  -23.4510    9.0040 C.3     4  LYS4        0.0038
     17  CD       -29.9820  -22.2290    8.3290 C.3     4  LYS4        0.0206
     18  CE       -29.6400  -22.2500    6.8440 C.3     4  LYS4        0.1093
     19  NZ       -30.3340  -21.1810    6.0680 N.3     4  LYS4       -0.1314
     20  N        -28.7470  -25.2340   13.1820 N.am    5  VAL5       -0.1964
     21  CA       -28.8510  -25.2760   14.6230 C.3     5  VAL5        0.1712
     22  C        -28.1510  -24.0480   15.1510 C.2     5  VAL5        0.2458
     23  O        -26.9370  -23.8990   14.9940 O.2     5  VAL5       -0.2730
     24  CB       -28.2290  -26.5710   15.2750 C.3     5  VAL5        0.0289
     25  CG1      -28.3930  -26.5690   16.8400 C.3     5  VAL5        0.0023
     26  CG2      -28.8440  -27.8320   14.6790 C.3     5  VAL5        0.0023
     27  N        -28.9250  -23.1390   15.7730 N.am    6  PRO6       -0.2716
     28  CA       -28.3320  -21.9270   16.3320 C.3     6  PRO6        0.1536
     29  C        -27.1650  -22.2820   17.2660 C.2     6  PRO6        0.2599
     30  O        -27.2720  -23.2100   18.0500 O.2     6  PRO6       -0.2715
     31  CB       -29.4890  -21.3180   17.1020 C.3     6  PRO6        0.0310
     32  CG       -30.7320  -21.8210   16.3660 C.3     6  PRO6        0.0237
     33  CD       -30.3870  -23.2090   15.9900 C.3     6  PRO6        0.0939
     34  N        -26.0350  -21.5940   17.1360 N.am    7  LEU7       -0.1942
     35  CA       -24.9440  -21.7600   18.1000 C.3     7  LEU7        0.1978
     36  C        -25.2390  -21.1160   19.4510 C.2     7  LEU7        0.3842
     37  O        -24.2890  -20.9480   20.2460 O.co2   7  LEU7       -0.2437
     38  CB       -23.6340  -21.1940   17.5500 C.3     7  LEU7        0.0333
     39  CG       -22.9410  -22.0330   16.4760 C.3     7  LEU7        0.0023
     40  CD1      -21.9520  -21.1540   15.7480 C.3     7  LEU7        0.0001
     41  CD2      -22.2130  -23.1880   17.1200 C.3     7  LEU7        0.0001
     42  OXT      -26.3900  -20.7530   19.7490 O.co2   7  LEU7       -0.2437
@<TRIPOS>BOND
     1     1     2    1
     2    19    18    1
     3     5     2    1
     4     5     6    1
     5     2     3    1
     6    18    17    1
     7     3     4    2
     8     3     7   am
     9    17    16    1
    10     7     8    1
    11    16    15    1
    12     8     9    1
    13    11     9   am
    14    11    12    1
    15     9    10    2
    16    15    12    1
    17    12    13    1
    18    13    14    2
    19    13    20   am
    20    20    21    1
    21    21    22    1
    22    21    24    1
    23    26    24    1
    24    23    22    2
    25    22    27   am
    26    24    25    1
    27    40    39    1
    28    27    33    1
    29    27    28    1
    30    33    32    1
    31    28    31    1
    32    28    29    1
    33    32    31    1
    34    39    41    1
    35    39    38    1
    36    34    29   am
    37    34    35    1
    38    29    30    2
    39    38    35    1
    40    35    36    1
    41    36    42   ar
    42    36    37   ar
