@<TRIPOS>MOLECULE
2zgi_PLP_A_1.pdb
 15 15 0 0 0
SMALL
GASTEIGER

@<TRIPOS>ATOM
      1  N1       -11.9170   -7.4900   46.6920 N.ar  248  PLP248     -0.2452
      2  C2       -12.8340   -7.3470   45.6970 C.ar  248  PLP248      0.0978
      3  C2A      -12.3520   -6.9730   44.3240 C.3   248  PLP248      0.0555
      4  C3       -14.1800   -7.5600   45.9440 C.ar  248  PLP248      0.2049
      5  O3       -15.1100   -7.4080   44.9340 O.3   248  PLP248     -0.2857
      6  C4       -14.5410   -7.8770   47.2610 C.ar  248  PLP248      0.0182
      7  C4A      -15.9740   -8.0780   47.6090 C.3   248  PLP248      0.0342
      8  C5       -13.5810   -8.0210   48.2690 C.ar  248  PLP248      0.0261
      9  C6       -12.2590   -7.8150   47.9520 C.ar  248  PLP248      0.0965
     10  C5A      -13.9420   -8.3800   49.7040 C.3   248  PLP248      0.1815
     11  O4P      -14.7400   -7.3740   50.3310 O.3   248  PLP248     -0.2653
     12  P        -15.6700   -7.7230   51.6140 P.3   248  PLP248      0.5329
     13  O1P      -16.3980   -6.4030   51.8600 O.3   248  PLP248     -0.1145
     14  O2P      -14.7620   -8.1650   52.7250 O.3   248  PLP248     -0.1145
     15  O3P      -16.5730   -8.8330   51.1340 O.2   248  PLP248     -0.2224
@<TRIPOS>BOND
     1     3     2    1
     2     5     4    1
     3     2     4   ar
     4     2     1   ar
     5     4     6   ar
     6     1     9   ar
     7     6     7    1
     8     6     8   ar
     9     9     8   ar
    10     8    10    1
    11    10    11    1
    12    11    12    1
    13    15    12    2
    14    12    13    1
    15    12    14    1
