@<TRIPOS>MOLECULE
2zgj_III_B_1.pdb
 48 48 0 0 0
SMALL
GASTEIGER

@<TRIPOS>ATOM
      1  N         33.8300  -27.2110   11.8570 N.3     2  SER2       -0.1202
      2  CA        33.4870  -28.5880   11.3980 C.3     2  SER2        0.2020
      3  C         32.7460  -28.5620   10.0640 C.2     2  SER2        0.2619
      4  O         33.3700  -28.6810    9.0030 O.2     2  SER2       -0.2717
      5  CB        32.6710  -29.3330   12.4600 C.3     2  SER2        0.2103
      6  OG        33.4740  -29.6140   13.5880 O.3     2  SER2       -0.2182
      7  N         31.4250  -28.3890   10.1080 N.am    3  GLY3       -0.1942
      8  CA        30.6240  -28.4830    8.8920 C.3     3  GLY3        0.2014
      9  C         29.7340  -27.3170    8.4990 C.2     3  GLY3        0.2639
     10  O         28.6070  -27.5390    8.1060 O.2     3  GLY3       -0.2714
     11  N         30.2130  -26.0830    8.5920 N.am    4  LYS4       -0.1963
     12  CA        29.5190  -24.9710    7.9240 C.3     4  LYS4        0.1728
     13  C         29.7750  -25.0370    6.4110 C.2     4  LYS4        0.2616
     14  O         30.9270  -25.1060    5.9710 O.2     4  LYS4       -0.2715
     15  CB        29.9860  -23.6040    8.4410 C.3     4  LYS4        0.0311
     16  CG        29.7340  -23.3370    9.9070 C.3     4  LYS4        0.0038
     17  CD        30.0310  -21.8680   10.2470 C.3     4  LYS4        0.0206
     18  CE        29.8490  -21.5930   11.7350 C.3     4  LYS4        0.1093
     19  NZ        31.1590  -21.8700   12.4320 N.3     4  LYS4       -0.1314
     20  N         28.7150  -25.0410    5.6210 N.am    5  VAL5       -0.1964
     21  CA        28.8330  -25.0270    4.1650 C.3     5  VAL5        0.1712
     22  C         28.1590  -23.7750    3.6170 C.2     5  VAL5        0.2458
     23  O         26.9410  -23.6720    3.6440 O.2     5  VAL5       -0.2730
     24  CB        28.2140  -26.2990    3.5190 C.3     5  VAL5        0.0289
     25  CG1       28.3420  -26.2870    1.9370 C.3     5  VAL5        0.0023
     26  CG2       28.8800  -27.5810    4.1030 C.3     5  VAL5        0.0023
     27  N         28.9390  -22.8020    3.1190 N.am    6  PRO6       -0.2716
     28  CA        28.2550  -21.6440    2.5620 C.3     6  PRO6        0.1536
     29  C         27.1410  -22.0970    1.6000 C.2     6  PRO6        0.2598
     30  O         27.3350  -23.0540    0.8410 O.2     6  PRO6       -0.2715
     31  CB        29.3710  -20.9560    1.7760 C.3     6  PRO6        0.0310
     32  CG        30.6040  -21.2820    2.5180 C.3     6  PRO6        0.0237
     33  CD        30.4090  -22.7020    2.9630 C.3     6  PRO6        0.0939
     34  N         25.9750  -21.4550    1.6570 N.am    7  LEU7       -0.1964
     35  CA        25.0070  -21.5370    0.5340 C.3     7  LEU7        0.1728
     36  C         25.5880  -20.9550   -0.7780 C.2     7  LEU7        0.2617
     37  O         24.8370  -20.5080   -1.6350 O.2     7  LEU7       -0.2715
     38  CB        23.6870  -20.8110    0.8770 C.3     7  LEU7        0.0311
     39  CG        22.5350  -21.4440    1.6880 C.3     7  LEU7        0.0022
     40  CD1       22.5160  -22.9290    1.6710 C.3     7  LEU7        0.0001
     41  CD2       22.4840  -20.9950    3.0950 C.3     7  LEU7        0.0001
     42  N         26.9240  -21.0130   -0.8840 N.am    8  SER8       -0.1914
     43  CA        27.7880  -20.5210   -1.9630 C.3     8  SER8        0.2304
     44  C         27.2920  -20.5640   -3.4050 C.2     8  SER8        0.3869
     45  O         27.7680  -21.3740   -4.2140 O.co2   8  SER8       -0.2437
     46  CB        29.2010  -21.1740   -1.8730 C.3     8  SER8        0.2152
     47  OG        30.0890  -20.6500   -2.8630 O.3     8  SER8       -0.2179
     48  OXT       26.4440  -19.7630   -3.8080 O.co2   8  SER8       -0.2437
@<TRIPOS>BOND
     1    45    44   ar
     2    48    44   ar
     3    44    43    1
     4    47    46    1
     5    43    46    1
     6    43    42    1
     7    37    36    2
     8    42    36   am
     9    36    35    1
    10    35    38    1
    11    35    34    1
    12    30    29    2
    13    38    39    1
    14    29    34   am
    15    29    28    1
    16    40    39    1
    17    39    41    1
    18    31    32    1
    19    31    28    1
    20    25    24    1
    21    32    33    1
    22    28    27    1
    23    33    27    1
    24    27    22   am
    25    24    26    1
    26    24    21    1
    27    22    23    2
    28    22    21    1
    29    21    20    1
    30    20    13   am
    31    14    13    2
    32    13    12    1
    33    12    15    1
    34    12    11    1
    35    10     9    2
    36    15    16    1
    37     9    11   am
    38     9     8    1
    39     8     7    1
    40     4     3    2
    41    16    17    1
    42     3     7   am
    43     3     2    1
    44    17    18    1
    45     2     1    1
    46     2     5    1
    47    18    19    1
    48     5     6    1
