@<TRIPOS>MOLECULE
2zgm_LAT_A_1.pdb
 23 24 0 0 0
SMALL
GASTEIGER

@<TRIPOS>ATOM
      1  C1         9.5060   -8.0180   40.8820 C.3   167  LAT167      0.2695
      2  C2        10.7320   -7.9960   39.9460 C.3   167  LAT167      0.2406
      3  C3        10.4040   -7.1080   38.7420 C.3   167  LAT167      0.2198
      4  C4         9.1630   -7.6750   38.0200 C.3   167  LAT167      0.2144
      5  C5         7.9920   -7.7170   39.0530 C.3   167  LAT167      0.1835
      6  C6         6.7630   -8.2950   38.3670 C.3   167  LAT167      0.2142
      7  O1         9.8470   -8.8610   42.0000 O.3   167  LAT167     -0.3257
      8  O2        11.8810   -7.4560   40.6390 O.3   167  LAT167     -0.2149
      9  O3        11.5270   -7.0720   37.8460 O.3   167  LAT167     -0.2174
     10  O4         9.4520   -9.0030   37.5230 O.3   167  LAT167     -0.2176
     11  O5         8.3540   -8.5640   40.1890 O.3   167  LAT167     -0.3256
     12  O6         5.6630   -8.3480   39.2860 O.3   167  LAT167     -0.2176
     13  C1'        7.9870   -9.6400   45.6890 C.3   167  LAT167      0.3023
     14  C2'        7.5830  -10.5300   44.4890 C.3   167  LAT167      0.2433
     15  C3'        8.6700  -10.4210   43.4340 C.3   167  LAT167      0.2168
     16  C4'        8.7900   -8.9450   42.9960 C.3   167  LAT167      0.1804
     17  C5'        9.1300   -8.1060   44.2720 C.3   167  LAT167      0.1804
     18  C6'        9.2110   -6.6170   43.9020 C.3   167  LAT167      0.2141
     19  O1'        6.9690   -9.7430   46.6960 O.3   167  LAT167     -0.1869
     20  O2'        7.4800  -11.9000   44.8940 O.3   167  LAT167     -0.2148
     21  O3'        8.3320  -11.2280   42.3090 O.3   167  LAT167     -0.2175
     22  O5'        8.0900   -8.2560   45.2810 O.3   167  LAT167     -0.3237
     23  O6'        9.5130   -5.8360   45.0640 O.3   167  LAT167     -0.2176
@<TRIPOS>BOND
     1    10     4    1
     2     9     3    1
     3     4     3    1
     4     4     5    1
     5     6     5    1
     6     6    12    1
     7     3     2    1
     8     5    11    1
     9     2     8    1
    10     2     1    1
    11    11     1    1
    12     1     7    1
    13     7    16    1
    14    21    15    1
    15    16    15    1
    16    16    17    1
    17    15    14    1
    18    18    17    1
    19    18    23    1
    20    17    22    1
    21    14    20    1
    22    14    13    1
    23    22    13    1
    24    13    19    1
