@<TRIPOS>MOLECULE
2zgn_GAL_B_1.pdb
 12 12 0 0 0
SMALL
GASTEIGER

@<TRIPOS>ATOM
      1  C1         6.8600   14.2190   -0.6810 C.3   998  GAL998      0.3024
      2  C2         5.9810   14.9640    0.3290 C.3   998  GAL998      0.2434
      3  C3         6.6880   15.0840    1.6840 C.3   998  GAL998      0.2199
      4  C4         7.2320   13.7180    2.1480 C.3   998  GAL998      0.2144
      5  C5         8.0470   13.0510    1.0310 C.3   998  GAL998      0.1836
      6  C6         8.5190   11.6470    1.3820 C.3   998  GAL998      0.2142
      7  O1         6.1490   14.0070   -1.8530 O.3   998  GAL998     -0.1869
      8  O2         5.6830   16.2610   -0.1670 O.3   998  GAL998     -0.2148
      9  O3         5.7690   15.5870    2.6450 O.3   998  GAL998     -0.2174
     10  O4         6.1600   12.8690    2.5260 O.3   998  GAL998     -0.2176
     11  O5         7.2450   12.9410   -0.1590 O.3   998  GAL998     -0.3236
     12  O6         9.3120   11.0930    0.3400 O.3   998  GAL998     -0.2176
@<TRIPOS>BOND
     1     7     1    1
     2     1    11    1
     3     1     2    1
     4     8     2    1
     5    11     5    1
     6     2     3    1
     7    12     6    1
     8     5     6    1
     9     5     4    1
    10     3     4    1
    11     3     9    1
    12     4    10    1
