@<TRIPOS>MOLECULE
2zgo_LAT_A_1.pdb
 23 24 0 0 0
SMALL
GASTEIGER

@<TRIPOS>ATOM
      1  C1        13.4310   20.6400  -38.3570 C.3   167  LAT167      0.2695
      2  C2        12.5260   21.8170  -37.9500 C.3   167  LAT167      0.2406
      3  C3        13.3150   22.7340  -37.0130 C.3   167  LAT167      0.2198
      4  C4        13.7590   21.9250  -35.7820 C.3   167  LAT167      0.2144
      5  C5        14.6240   20.7360  -36.2880 C.3   167  LAT167      0.1835
      6  C6        15.0740   19.9000  -35.0920 C.3   167  LAT167      0.2142
      7  O1        12.6760   19.7890  -39.2360 O.3   167  LAT167     -0.3257
      8  O2        12.1290   22.5540  -39.1150 O.3   167  LAT167     -0.2149
      9  O3        12.4910   23.8340  -36.6070 O.3   167  LAT167     -0.2174
     10  O4        12.6090   21.4380  -35.0650 O.3   167  LAT167     -0.2176
     11  O5        13.8490   19.8890  -37.1890 O.3   167  LAT167     -0.3256
     12  O6        15.8700   18.8160  -35.5710 O.3   167  LAT167     -0.2176
     13  C1'       13.9550   16.7000  -41.7780 C.3   167  LAT167      0.3023
     14  C2'       13.6570   16.3260  -40.3080 C.3   167  LAT167      0.2433
     15  C3'       12.7660   17.4160  -39.7110 C.3   167  LAT167      0.2168
     16  C4'       13.5190   18.7580  -39.7950 C.3   167  LAT167      0.1804
     17  C5'       13.8260   19.0420  -41.3000 C.3   167  LAT167      0.1804
     18  C6'       14.5980   20.3650  -41.4280 C.3   167  LAT167      0.2141
     19  O1'       14.7910   15.6930  -42.3410 O.3   167  LAT167     -0.1869
     20  O2'       12.9650   15.0750  -40.2520 O.3   167  LAT167     -0.2148
     21  O3'       12.4780   17.1010  -38.3500 O.3   167  LAT167     -0.2175
     22  O5'       14.6490   17.9760  -41.8510 O.3   167  LAT167     -0.3237
     23  O6'       14.8820   20.6400  -42.7960 O.3   167  LAT167     -0.2176
@<TRIPOS>BOND
     1    23    18    1
     2    19    13    1
     3    22    13    1
     4    22    17    1
     5    13    14    1
     6    18    17    1
     7    17    16    1
     8    14    20    1
     9    14    15    1
    10    16    15    1
    11    16     7    1
    12    15    21    1
    13     7     1    1
    14     8     2    1
    15     1     2    1
    16     1    11    1
    17     2     3    1
    18    11     5    1
    19     3     9    1
    20     3     4    1
    21     5     4    1
    22     5     6    1
    23     4    10    1
    24    12     6    1
