@<TRIPOS>MOLECULE
2zgv_ADP_A_1.pdb
 27 29 0 0 0
SMALL
GASTEIGER

@<TRIPOS>ATOM
      1  PB         9.1700    0.6930   19.8190 P.3   417  ADP417      0.5373
      2  O1B       10.4520   -0.1330   19.8110 O.3   417  ADP417     -0.1143
      3  O2B        8.9120    1.5030   18.5690 O.2   417  ADP417     -0.2221
      4  O3B        7.8910    0.0340   20.3060 O.3   417  ADP417     -0.1143
      5  PA         9.7360    3.2600   20.9490 P.3   417  ADP417      0.2231
      6  O1A       11.0460    3.5130   21.6740 O.3   417  ADP417     -0.4370
      7  O2A        9.3320    3.8230   19.6080 O.2   417  ADP417     -0.5169
      8  O3A        9.5760    1.6610   21.0360 O.3   417  ADP417     -0.2261
      9  O5'        8.5530    3.6800   21.9650 O.3   417  ADP417     -0.3111
     10  C5'        7.2050    3.7170   21.5100 C.3   417  ADP417      0.1813
     11  C4'        6.3670    3.4550   22.7430 C.3   417  ADP417      0.1821
     12  O4'        6.7150    4.3950   23.7610 O.3   417  ADP417     -0.3135
     13  C3'        4.9020    3.6700   22.3930 C.3   417  ADP417      0.2184
     14  O3'        4.1870    2.4270   22.3990 O.3   417  ADP417     -0.2174
     15  C2'        4.3800    4.6730   23.4140 C.3   417  ADP417      0.2570
     16  O2'        3.2240    4.2030   24.1160 O.3   417  ADP417     -0.2130
     17  C1'        5.5230    4.8040   24.4110 C.3   417  ADP417      0.3186
     18  N9         5.4950    6.1690   24.9950 N.pl3 417  ADP417     -0.1439
     19  C8         5.1950    7.3060   24.3380 C.3   417  ADP417      0.3377
     20  N7         5.2040    8.3440   25.2010 N.2   417  ADP417     -0.2095
     21  C5         5.4670    7.8930   26.4270 C.2   417  ADP417      0.2526
     22  C6         5.6250    8.4770   27.7670 C.2   417  ADP417      0.4393
     23  N6         5.4820    9.7990   27.9940 N.pl3 417  ADP417      0.2180
     24  N1         5.9320    7.6350   28.7790 N.2   417  ADP417      0.0021
     25  C2         6.0720    6.3150   28.5810 C.3   417  ADP417      0.5254
     26  N3         5.9730    5.7190   27.3710 N.2   417  ADP417     -0.0055
     27  C4         5.6690    6.4400   26.2790 C.2   417  ADP417      0.3518
@<TRIPOS>BOND
     1     3     1    2
     2     7     5    2
     3     2     1    1
     4     1     4    1
     5     1     8    1
     6     5     8    1
     7     5     6    1
     8     5     9    1
     9    10     9    1
    10    10    11    1
    11    13    14    1
    12    13    11    1
    13    13    15    1
    14    11    12    1
    15    15    16    1
    16    15    17    1
    17    12    17    1
    18    19    18    1
    19    19    20    1
    20    17    18    1
    21    18    27    1
    22    20    21    2
    23    27    21    1
    24    27    26    2
    25    21    22    1
    26    26    25    1
    27    22    23    1
    28    22    24    2
    29    25    24    1
