@<TRIPOS>MOLECULE
2zgw_ADN_A_1.pdb
 19 21 0 0 0
SMALL
GASTEIGER

@<TRIPOS>ATOM
      1  O5'      -19.9920  -12.6580    0.1960 O.3   1301  ADN1301    -0.2176
      2  C5'      -19.0250  -12.0440    1.0470 C.3   1301  ADN1301     0.2143
      3  C4'      -17.7050  -11.8650    0.2920 C.3   1301  ADN1301     0.1851
      4  O4'      -17.8000  -10.7630   -0.6720 O.3   1301  ADN1301    -0.3134
      5  C3'      -16.5480  -11.5550    1.2550 C.3   1301  ADN1301     0.2186
      6  O3'      -15.4370  -12.4410    1.0640 O.3   1301  ADN1301    -0.2174
      7  C2'      -16.2160  -10.0900    0.9690 C.3   1301  ADN1301     0.2570
      8  O2'      -14.8430   -9.7530    1.2150 O.3   1301  ADN1301    -0.2130
      9  C1'      -16.6110   -9.9420   -0.5080 C.3   1301  ADN1301     0.3186
     10  N9       -16.8540   -8.5170   -0.7930 N.pl3 1301  ADN1301    -0.1439
     11  C8       -18.0010   -7.8070   -0.5680 C.3   1301  ADN1301     0.3377
     12  N7       -17.7760   -6.4470   -1.0700 N.2   1301  ADN1301    -0.2095
     13  C5       -16.5350   -6.3730   -1.5670 C.2   1301  ADN1301     0.2526
     14  C6       -15.7470   -5.3700   -2.1940 C.2   1301  ADN1301     0.4393
     15  N6       -16.2590   -4.1030   -2.4080 N.pl3 1301  ADN1301     0.2180
     16  N1       -14.4730   -5.6760   -2.6090 N.2   1301  ADN1301     0.0021
     17  C2       -13.9340   -6.9070   -2.4350 C.3   1301  ADN1301     0.5254
     18  N3       -14.6440   -7.8900   -1.8600 N.2   1301  ADN1301    -0.0055
     19  C4       -15.9240   -7.6820   -1.4040 C.2   1301  ADN1301     0.3518
@<TRIPOS>BOND
     1    16    17    1
     2    16    14    2
     3    17    18    1
     4    15    14    1
     5    14    13    1
     6    18    19    2
     7    13    19    1
     8    13    12    2
     9    19    10    1
    10    12    11    1
    11    10    11    1
    12    10     9    1
    13     4     9    1
    14     4     3    1
    15     9     7    1
    16     1     2    1
    17     3     2    1
    18     3     5    1
    19     7     8    1
    20     7     5    1
    21     6     5    1
