@<TRIPOS>MOLECULE
2zgw_BTN_A_1.pdb
 16 17 0 0 0
SMALL
GASTEIGER

@<TRIPOS>ATOM
      1  C11      -18.6970  -11.3140   -7.1520 C.2   1401  BTN1401     0.3649
      2  O11      -17.5080  -11.0910   -6.8510 O.co2 1401  BTN1401    -0.2457
      3  O12      -19.3430  -12.2910   -6.6580 O.co2 1401  BTN1401    -0.2457
      4  C10      -19.4320  -10.4360   -8.1180 C.3   1401  BTN1401     0.1141
      5  C9       -19.5890   -9.0230   -7.6670 C.3   1401  BTN1401     0.0118
      6  C8       -20.2580   -8.1460   -8.6940 C.3   1401  BTN1401     0.0015
      7  C7       -20.3970   -6.7140   -8.1990 C.3   1401  BTN1401     0.0129
      8  C2       -21.0620   -5.7400   -9.1740 C.3   1401  BTN1401     0.0729
      9  S1       -21.1880   -4.0750   -8.5400 S.3   1401  BTN1401    -0.1369
     10  C6       -22.0340   -3.6340  -10.0780 C.3   1401  BTN1401     0.0848
     11  C5       -23.1010   -4.7570  -10.1720 C.3   1401  BTN1401     0.1509
     12  N1       -24.2990   -4.4880   -9.3500 N.2   1401  BTN1401    -0.1859
     13  C3       -24.4540   -5.4680   -8.4290 C.1   1401  BTN1401     0.2386
     14  O3       -25.3660   -5.5320   -7.5760 O.2   1401  BTN1401    -0.2023
     15  N2       -23.4510   -6.4120   -8.5500 N.2   1401  BTN1401    -0.1860
     16  C4       -22.5290   -6.0800   -9.6210 C.3   1401  BTN1401     0.1500
@<TRIPOS>BOND
     1    11    10    1
     2    11    16    1
     3    11    12    1
     4    10     9    1
     5    16     8    1
     6    16    15    1
     7    12    13    2
     8     8     9    1
     9     8     7    1
    10     6     7    1
    11     6     5    1
    12    15    13    2
    13    13    14    2
    14     4     5    1
    15     4     1    1
    16     1     2   ar
    17     1     3   ar
