@<TRIPOS>MOLECULE
2zgx_29U_H_1.pdb
 24 25 0 0 0
SMALL
GASTEIGER

@<TRIPOS>ATOM
      1  N13       16.0930  -15.7440   23.0790 N.3   1601  29U1601    -0.1231
      2  C5        17.4220  -15.1030   23.1790 C.3   1601  29U1601     0.1678
      3  C14       17.4360  -13.7490   22.4880 C.2   1601  29U1601     0.2434
      4  O32       16.4680  -13.0330   22.7690 O.2   1601  29U1601    -0.2733
      5  C33       17.6350  -14.8790   24.7110 C.3   1601  29U1601     0.0284
      6  C48       18.9730  -14.4490   25.3430 C.3   1601  29U1601     0.0021
      7  N1        18.4130  -13.3300   21.6440 N.am  1601  29U1601    -0.2718
      8  C1        18.3270  -12.0220   21.0170 C.3   1601  29U1601     0.1535
      9  C7        17.0180  -11.9110   20.2720 C.2   1601  29U1601     0.2598
     10  O22       16.6340  -12.8750   19.6440 O.2   1601  29U1601    -0.2715
     11  C2        19.4930  -12.0770   19.9820 C.3   1601  29U1601     0.0310
     12  C3        20.4710  -13.0420   20.6980 C.3   1601  29U1601     0.0237
     13  C4        19.5280  -14.1680   21.1920 C.3   1601  29U1601     0.0939
     14  N23       16.3710  -10.7240   20.3370 N.am  1601  29U1601    -0.1992
     15  C24       15.0790  -10.6370   19.6650 C.3   1601  29U1601     0.1415
     16  C25       13.9920  -10.6390   20.7580 C.ar  1601  29U1601    -0.0006
     17  C30       13.5860  -11.8300   21.3540 C.ar  1601  29U1601    -0.0023
     18  C29       12.6060  -11.8450   22.3400 C.ar  1601  29U1601     0.0077
     19  C28       12.0120  -10.6500   22.7480 C.ar  1601  29U1601     0.0975
     20  C21       10.8810  -10.6450   23.8790 C.2   1601  29U1601     0.4766
     21  N46       10.2060  -11.7630   24.0990 N.pl3 1601  29U1601     0.2047
     22  N47       10.6480   -9.5500   24.5560 N.pl3 1601  29U1601     0.2047
     23  C27       12.4210   -9.4500   22.1480 C.ar  1601  29U1601     0.0077
     24  C26       13.4040   -9.4430   21.1600 C.ar  1601  29U1601    -0.0023
@<TRIPOS>BOND
     1    10     9    2
     2    15    14    1
     3    15    16    1
     4    11    12    1
     5    11     8    1
     6     9    14   am
     7     9     8    1
     8    12    13    1
     9    16    24   ar
    10    16    17   ar
    11     8     7    1
    12    24    23   ar
    13    13     7    1
    14    17    18   ar
    15     7     3   am
    16    23    19   ar
    17    18    19   ar
    18     3     4    2
    19     3     2    1
    20    19    20    1
    21     1     2    1
    22     2     5    1
    23    20    21    2
    24    20    22    1
    25     5     6    1
