@<TRIPOS>MOLECULE
2zgy_GDP_A_1.pdb
 28 30 0 0 0
SMALL
GASTEIGER

@<TRIPOS>ATOM
      1  PB        17.6090   -2.4100    8.7990 P.3   323  GDP323      0.5373
      2  O1B       18.7200   -1.5370    8.4660 O.3   323  GDP323     -0.1143
      3  O2B       17.6470   -3.5020    7.8110 O.2   323  GDP323     -0.2221
      4  O3B       17.6870   -2.6560   10.3150 O.3   323  GDP323     -0.1143
      5  O3A       16.6860   -1.1660    8.6750 O.3   323  GDP323     -0.2261
      6  PA        15.7300   -0.3110    7.8660 P.3   323  GDP323      0.2231
      7  O1A       16.1360   -0.2520    6.4350 O.2   323  GDP323     -0.5169
      8  O2A       15.9340    0.9040    8.6840 O.3   323  GDP323     -0.4370
      9  O5'       14.1750   -0.7440    7.9540 O.3   323  GDP323     -0.3111
     10  C5'       13.4150   -0.4520    9.0940 C.3   323  GDP323      0.1813
     11  C4'       11.9430   -0.7750    8.8110 C.3   323  GDP323      0.1799
     12  O4'       11.2880    0.4530    8.4070 O.3   323  GDP323     -0.3326
     13  C3'       11.6770   -1.8050    7.6900 C.3   323  GDP323      0.2158
     14  O3'       10.7510   -2.8020    8.0810 O.3   323  GDP323     -0.2175
     15  C2'       11.2230   -0.9780    6.4890 C.3   323  GDP323      0.2310
     16  O2'       10.3420   -1.6140    5.5470 O.3   323  GDP323     -0.2158
     17  C1'       10.5580    0.1960    7.1880 C.3   323  GDP323      0.2293
     18  N9        10.5140    1.4530    6.4190 N.pl3 323  GDP323     -0.2354
     19  C8        11.2480    1.8950    5.3690 C.3   323  GDP323      0.2246
     20  N7        10.9490    3.0750    4.9370 N.2   323  GDP323     -0.2322
     21  C5         9.9170    3.4560    5.7810 C.2   323  GDP323      0.2182
     22  C6         9.1530    4.6830    5.8180 C.1   323  GDP323      0.2372
     23  O6         9.2660    5.6660    5.0710 O.2   323  GDP323     -0.2069
     24  N1         8.1860    4.6850    6.8580 N.2   323  GDP323     -0.2485
     25  C2         7.9660    3.6330    7.7490 C.1   323  GDP323      0.2531
     26  N2         7.0130    3.8070    8.6650 N.pl3 323  GDP323     -0.0226
     27  N3         8.6810    2.4700    7.7020 N.2   323  GDP323     -0.3074
     28  C4         9.6370    2.4660    6.6930 C.2   323  GDP323      0.2300
@<TRIPOS>BOND
     1    20    19    1
     2    20    21    2
     3    23    22    2
     4    19    18    1
     5    16    15    1
     6    21    22    1
     7    21    28    1
     8    22    24    2
     9    18    28    1
    10    18    17    1
    11     7     6    2
    12    15    17    1
    13    15    13    1
    14    28    27    2
    15    24    25    2
    16    17    12    1
    17    13    14    1
    18    13    11    1
    19    27    25    2
    20    25    26    1
    21     3     1    2
    22     6     9    1
    23     6     5    1
    24     6     8    1
    25     9    10    1
    26    12    11    1
    27     2     1    1
    28     5     1    1
    29     1     4    1
    30    11    10    1
