@<TRIPOS>MOLECULE
2zgz_GNP_A_1.pdb
 32 34 0 0 0
SMALL
GASTEIGER

@<TRIPOS>ATOM
      1  PG        18.5030   -2.8410   11.3030 P.3   323  GNP323      0.4884
      2  O1G       18.0670   -2.9440   12.7090 O.3   323  GNP323     -0.1240
      3  O2G       19.3750   -3.9400   10.9730 O.2   323  GNP323     -0.2331
      4  O3G       19.4760   -1.6530   11.1910 O.3   323  GNP323     -0.1240
      5  N3B       17.2360   -2.5720   10.3330 N.3   323  GNP323     -0.0163
      6  PB        17.2970   -2.3700    8.7170 P.3   323  GNP323      0.4669
      7  O1B       18.2680   -1.3760    8.2830 O.3   323  GNP323     -0.1253
      8  O2B       17.3300   -3.5670    7.8790 O.2   323  GNP323     -0.2351
      9  O3A       15.8640   -1.7560    8.3850 O.3   323  GNP323     -0.2360
     10  PA        15.5190   -0.2870    7.8090 P.3   323  GNP323      0.2220
     11  O1A       16.0060   -0.1800    6.3970 O.2   323  GNP323     -0.5170
     12  O2A       15.8930    0.7840    8.7710 O.3   323  GNP323     -0.4370
     13  O5'       13.9280   -0.4130    7.7270 O.3   323  GNP323     -0.3111
     14  C5'       13.1510   -0.5350    8.9470 C.3   323  GNP323      0.1813
     15  C4'       11.6620   -0.8560    8.6580 C.3   323  GNP323      0.1799
     16  O4'       10.9560    0.3650    8.3050 O.3   323  GNP323     -0.3326
     17  C3'       11.4220   -1.8450    7.4940 C.3   323  GNP323      0.2158
     18  O3'       10.3940   -2.8130    7.7890 O.3   323  GNP323     -0.2175
     19  C2'       11.0760   -0.9130    6.3480 C.3   323  GNP323      0.2310
     20  O2'       10.2290   -1.4810    5.3610 O.3   323  GNP323     -0.2158
     21  C1'       10.2820    0.1820    7.0600 C.3   323  GNP323      0.2293
     22  N9        10.2520    1.4780    6.3290 N.pl3 323  GNP323     -0.2354
     23  C8        11.0270    1.9310    5.2700 C.3   323  GNP323      0.2246
     24  N7        10.7510    3.1260    4.8590 N.2   323  GNP323     -0.2322
     25  C5         9.6960    3.5360    5.7040 C.2   323  GNP323      0.2182
     26  C6         8.9350    4.7840    5.7670 C.1   323  GNP323      0.2372
     27  O6         9.0480    5.7950    5.0700 O.2   323  GNP323     -0.2069
     28  N1         7.9670    4.7730    6.7720 N.2   323  GNP323     -0.2485
     29  C2         7.7140    3.7130    7.6420 C.1   323  GNP323      0.2531
     30  N2         6.7430    3.8720    8.5530 N.pl3 323  GNP323     -0.0226
     31  N3         8.4150    2.5470    7.5900 N.2   323  GNP323     -0.3074
     32  C4         9.3870    2.5230    6.6060 C.2   323  GNP323      0.2300
@<TRIPOS>BOND
     1    24    23    1
     2    24    25    2
     3    27    26    2
     4    23    22    1
     5    20    19    1
     6    25    26    1
     7    25    32    1
     8    26    28    2
     9    22    32    1
    10    22    21    1
    11    19    21    1
    12    19    17    1
    13    11    10    2
    14    32    31    2
    15    28    29    2
    16    21    16    1
    17    17    18    1
    18    17    15    1
    19    31    29    2
    20    29    30    1
    21    13    10    1
    22    13    14    1
    23    10     9    1
    24    10    12    1
    25     8     6    2
    26     7     6    1
    27    16    15    1
    28     9     6    1
    29    15    14    1
    30     6     5    1
    31     5     1    1
    32     3     1    2
    33     4     1    1
    34     1     2    1
