@<TRIPOS>MOLECULE
2zh0_HIS_B_1.pdb
 11 11 0 0 0
SMALL
GASTEIGER

@<TRIPOS>ATOM
      1  N         -5.2270   41.3180   17.9710 N.3   2001  HIS2001    -0.1204
      2  CA        -5.8860   42.6240   18.0970 C.3   2001  HIS2001     0.1999
      3  C         -5.7550   43.4500   16.8240 C.2   2001  HIS2001     0.3822
      4  O         -6.6980   43.3690   16.0310 O.co2 2001  HIS2001    -0.2440
      5  CB        -7.2020   42.4400   18.8530 C.3   2001  HIS2001     0.0740
      6  CG        -7.0280   42.0780   20.2950 C.2   2001  HIS2001     0.0651
      7  ND1       -7.7190   41.0440   20.8890 N.2   2001  HIS2001    -0.2310
      8  CD2       -6.2410   42.6090   21.2590 C.3   2001  HIS2001     0.1683
      9  CE1       -7.3700   40.9580   22.1600 C.2   2001  HIS2001     0.1939
     10  NE2       -6.4740   41.8950   22.4100 N.2   2001  HIS2001    -0.2440
     11  OXT       -4.9440   44.3650   16.6640 O.co2 2001  HIS2001    -0.2440
@<TRIPOS>BOND
     1     4     3   ar
     2    11     3   ar
     3     3     2    1
     4     1     2    1
     5     2     5    1
     6     5     6    1
     7     6     7    2
     8     6     8    1
     9     7     9    1
    10     8    10    1
    11     9    10    2
