@<TRIPOS>MOLECULE
2zh6_ATP_A_1.pdb
 31 33 0 0 0
SMALL
GASTEIGER

@<TRIPOS>ATOM
      1  PG        12.2310    1.5120  -31.0690 P.3   501  ATP501      0.5373
      2  O1G       11.4610    2.6380  -30.5010 O.3   501  ATP501     -0.1143
      3  O2G       13.4400    1.0260  -30.3480 O.3   501  ATP501     -0.1143
      4  O3G       12.6580    1.9380  -32.5390 O.2   501  ATP501     -0.2221
      5  PB        11.3200   -0.8050  -32.4220 P.3   501  ATP501      0.2277
      6  O1B       10.5540   -1.9920  -31.9690 O.3   501  ATP501     -0.4368
      7  O2B       10.9710   -0.1780  -33.7230 O.2   501  ATP501     -0.5168
      8  O3B       11.2090    0.2890  -31.2520 O.3   501  ATP501     -0.2258
      9  PA        13.4800   -1.9220  -33.7740 P.3   501  ATP501      0.2189
     10  O1A       13.2530   -1.0280  -34.9370 O.2   501  ATP501     -0.5170
     11  O2A       14.8620   -2.3770  -33.4610 O.3   501  ATP501     -0.4371
     12  O3A       12.8590   -1.2290  -32.4730 O.3   501  ATP501     -0.2700
     13  O5'       12.5740   -3.2110  -34.0060 O.3   501  ATP501     -0.3112
     14  C5'       11.6310   -3.2530  -35.0790 C.3   501  ATP501      0.1813
     15  C4'       10.7000   -4.4260  -34.9040 C.3   501  ATP501      0.1821
     16  O4'       11.4260   -5.6610  -35.1390 O.3   501  ATP501     -0.3135
     17  C3'       10.1130   -4.5610  -33.5050 C.3   501  ATP501      0.2184
     18  O3'        8.9110   -3.8050  -33.3890 O.3   501  ATP501     -0.2174
     19  C2'        9.8570   -6.0570  -33.4070 C.3   501  ATP501      0.2570
     20  O2'        8.6830   -6.4330  -34.0920 O.3   501  ATP501     -0.2130
     21  C1'       11.0720   -6.6130  -34.1540 C.3   501  ATP501      0.3186
     22  N9        12.2430   -6.8090  -33.2980 N.pl3 501  ATP501     -0.1439
     23  C8        13.4470   -6.1530  -33.3800 C.3   501  ATP501      0.3377
     24  N7        14.3250   -6.5420  -32.4870 N.2   501  ATP501     -0.2095
     25  C5        13.6540   -7.5200  -31.7680 C.2   501  ATP501      0.2526
     26  C6        14.0430   -8.3300  -30.6940 C.2   501  ATP501      0.4393
     27  N6        15.2610   -8.2870  -30.1450 N.pl3 501  ATP501      0.2180
     28  N1        13.1310   -9.2030  -30.2020 N.2   501  ATP501      0.0021
     29  C2        11.9200   -9.2520  -30.7720 C.3   501  ATP501      0.5254
     30  N3        11.4410   -8.5480  -31.7920 N.2   501  ATP501     -0.0055
     31  C4        12.3680   -7.6900  -32.2510 C.2   501  ATP501      0.3518
@<TRIPOS>BOND
     1    16    15    1
     2    16    21    1
     3    14    15    1
     4    14    13    1
     5    10     9    2
     6    15    17    1
     7    21    19    1
     8    21    22    1
     9    20    19    1
    10    13     9    1
    11     9    11    1
    12     9    12    1
    13     7     5    2
    14    17    19    1
    15    17    18    1
    16    23    22    1
    17    23    24    1
    18    22    31    1
    19     4     1    2
    20    24    25    2
    21    12     5    1
    22     5     6    1
    23     5     8    1
    24    31    30    2
    25    31    25    1
    26    30    29    1
    27    25    26    1
    28     8     1    1
    29     1     2    1
    30     1     3    1
    31    29    28    1
    32    26    28    2
    33    26    27    1
