@<TRIPOS>MOLECULE
2zha_CTP_A_1.pdb
 29 30 0 0 0
SMALL
GASTEIGER

@<TRIPOS>ATOM
      1  N1        -7.1020   13.0550   32.9810 N.am  501  CTP501     -0.1778
      2  C2        -8.2070   12.8340   32.1540 C.1   501  CTP501      0.2756
      3  N3        -8.5010   13.7410   31.1900 N.2   501  CTP501     -0.3024
      4  C4        -7.7380   14.8300   31.0410 C.2   501  CTP501      0.2346
      5  C5        -6.6020   15.0700   31.8630 C.2   501  CTP501      0.0687
      6  C6        -6.3210   14.1660   32.8080 C.2   501  CTP501      0.0836
      7  O2        -8.8910   11.8110   32.3230 O.2   501  CTP501     -0.1925
      8  N4        -8.0710   15.7060   30.0860 N.pl3 501  CTP501     -0.0921
      9  C1'       -6.7910   12.0980   34.0480 C.3   501  CTP501      0.2400
     10  C2'       -6.5510   10.6610   33.5760 C.3   501  CTP501      0.2319
     11  O2'       -6.8770    9.7320   34.5890 O.3   501  CTP501     -0.2157
     12  C3'       -5.0670   10.6960   33.2660 C.3   501  CTP501      0.2158
     13  C4'       -4.5150   11.6520   34.2970 C.3   501  CTP501      0.1799
     14  O4'       -5.5990   12.5400   34.6580 O.3   501  CTP501     -0.3320
     15  O3'       -4.3910    9.4580   33.4110 O.3   501  CTP501     -0.2175
     16  C5'       -3.4330   12.4240   33.6300 C.3   501  CTP501      0.1813
     17  O5'       -2.8520   13.3510   34.5020 O.3   501  CTP501     -0.3112
     18  PA        -1.7380   14.3310   33.9390 P.3   501  CTP501      0.2189
     19  O1A       -0.7100   14.4660   35.0120 O.3   501  CTP501     -0.4371
     20  O2A       -2.4480   15.5420   33.4470 O.2   501  CTP501     -0.5170
     21  O3A       -1.1160   13.5720   32.6570 O.3   501  CTP501     -0.2700
     22  PB        -0.5740   12.0580   32.6970 P.3   501  CTP501      0.2277
     23  O1B       -1.6590   11.1430   32.2570 O.2   501  CTP501     -0.5168
     24  O2B        0.1020   11.8110   33.9930 O.3   501  CTP501     -0.4368
     25  O3B        0.5190   11.9800   31.5400 O.3   501  CTP501     -0.2258
     26  PG         1.6020   13.1300   31.3550 P.3   501  CTP501      0.5373
     27  O1G        2.7750   12.5910   30.6070 O.2   501  CTP501     -0.2221
     28  O2G        0.9070   14.3430   30.8470 O.3   501  CTP501     -0.1143
     29  O3G        2.0860   13.4110   32.8450 O.3   501  CTP501     -0.1143
@<TRIPOS>BOND
     1     8     4    1
     2    27    26    2
     3    28    26    1
     4     4     3    2
     5     4     5    1
     6     3     2    2
     7    26    25    1
     8    26    29    1
     9    25    22    1
    10     5     6    2
    11     2     7    2
    12     2     1   am
    13    23    22    2
    14    21    22    1
    15    21    18    1
    16    22    24    1
    17     6     1    1
    18     1     9    1
    19    12    15    1
    20    12    10    1
    21    12    13    1
    22    20    18    2
    23    10     9    1
    24    10    11    1
    25    16    13    1
    26    16    17    1
    27    18    17    1
    28    18    19    1
    29     9    14    1
    30    13    14    1
