@<TRIPOS>MOLECULE
2zhc_ADP_A_1.pdb
 39 41 0 0 0
SMALL
GASTEIGER

@<TRIPOS>ATOM
      1  PB        -6.7940  -14.6490  361.6810 P.3   500  ADP500      0.5373
      2  O1B       -7.5860  -13.7650  360.7590 O.2   500  ADP500     -0.2221
      3  O2B       -7.4570  -15.4450  362.7850 O.3   500  ADP500     -0.1143
      4  O3B       -5.8050  -13.9990  362.5990 O.3   500  ADP500     -0.1143
      5  PA        -5.0830  -16.7040  361.4630 P.3   500  ADP500      0.2224
      6  O1A       -4.9980  -16.5130  362.9500 O.3   500  ADP500     -0.4370
      7  O2A       -5.4890  -18.0430  361.0060 O.2   500  ADP500     -0.5170
      8  O3A       -5.9640  -15.6620  360.7880 O.3   500  ADP500     -0.2261
      9  O5'       -3.6570  -16.3960  360.8580 O.3   500  ADP500     -0.3245
     10  C5'       -3.4110  -16.6800  359.4640 C.3   500  ADP500      0.0836
     11  C4'       -1.9650  -16.3310  359.0480 C.3   500  ADP500      0.1131
     12  O4'       -0.9960  -17.3030  359.5800 O.3   500  ADP500     -0.3474
     13  C3'       -1.7900  -16.4240  357.5110 C.3   500  ADP500      0.1133
     14  O3'       -0.8230  -15.5050  356.9660 O.3   500  ADP500     -0.3864
     15  C2'       -1.4150  -17.8900  357.3850 C.3   500  ADP500      0.1266
     16  O2'       -0.9260  -18.2470  356.1120 O.3   500  ADP500     -0.3849
     17  C1'       -0.4090  -18.0120  358.4970 C.3   500  ADP500      0.1617
     18  N9        -0.1140  -19.4090  358.8400 N.pl3 500  ADP500     -0.2234
     19  C8        -0.9360  -20.5010  358.6720 C.2   500  ADP500      0.1451
     20  N7        -0.4100  -21.6270  359.0680 N.2   500  ADP500     -0.3871
     21  C5         0.8460  -21.2640  359.5280 C.2   500  ADP500      0.2211
     22  C6         1.9110  -22.0280  360.0460 C.2   500  ADP500      0.2227
     23  N6         1.8310  -23.3670  360.1630 N.pl3 500  ADP500     -0.3300
     24  N1         3.0540  -21.3800  360.3920 N.2   500  ADP500     -0.3296
     25  C2         3.0860  -20.0540  360.2230 C.1   500  ADP500      0.0930
     26  N3         2.1670  -19.2260  359.7190 N.2   500  ADP500     -0.3287
     27  C4         1.0480  -19.9020  359.3980 C.2   500  ADP500      0.2354
     28 H5'1       -4.1090  -16.0830  358.8350 H     500  ADP500      0.0591
     29 H5'2       -3.5990  -17.7580  359.2540 H     500  ADP500      0.0591
     30  H4'       -1.6970  -15.3090  359.3940 H     500  ADP500      0.0647
     31  H3'       -2.7750  -16.2400  357.0340 H     500  ADP500      0.0647
     32 HO3'       -0.4990  -15.7980  356.0860 H     500  ADP500      0.2100
     33  H2'       -2.3190  -18.5020  357.6050 H     500  ADP500      0.0663
     34 HO2'       -0.2690  -17.6000  355.7780 H     500  ADP500      0.2101
     35  H1'        0.5280  -17.4690  358.2310 H     500  ADP500      0.0841
     36  H8        -1.9380  -20.4180  358.2470 H     500  ADP500      0.1149
     37 HN61        0.9840  -23.8350  359.9130 H     500  ADP500      0.1448
     38 HN62        2.6190  -23.8850  360.4740 H     500  ADP500      0.1448
     39  H2         4.0250  -19.5780  360.5160 H     500  ADP500      0.1751
@<TRIPOS>BOND
     1    34    16    1
     2    32    14    1
     3    16    15    1
     4    14    13    1
     5    31    13    1
     6    15    13    1
     7    15    33    1
     8    15    17    1
     9    13    11    1
    10    35    17    1
    11    36    19    1
    12    17    18    1
    13    17    12    1
    14    19    18    1
    15    19    20    2
    16    28    10    1
    17    18    27    1
    18    11    30    1
    19    11    10    1
    20    11    12    1
    21    20    21    2
    22    29    10    1
    23    27    21    1
    24    27    26    2
    25    10     9    1
    26    21    22    1
    27    26    25    2
    28    37    23    1
    29    22    23    1
    30    22    24    2
    31    23    38    1
    32    25    24    2
    33    25    39    1
    34     2     1    2
    35     8     5    1
    36     8     1    1
    37     9     5    1
    38     7     5    2
    39     5     6    1
    40     1     4    1
    41     1     3    1
