@<TRIPOS>MOLECULE
2zhd_12U_A_1.pdb
 29 31 0 0 0
SMALL
GASTEIGER

@<TRIPOS>ATOM
      1  C14       17.4230   -9.7030   11.7420 C.2   501  12U501      0.2437
      2  O32       17.8010   -8.8700   10.9340 O.2   501  12U501     -0.2733
      3  C5        17.7890  -11.1410   11.5990 C.3   501  12U501      0.1737
      4  N21       17.2390  -11.8500   10.4290 N.3   501  12U501     -0.2100
      5  C49       16.9590  -13.2740   10.5860 C.3   501  12U501      0.0733
      6  C48       15.9750  -13.7450   10.3360 C.3   501  12U501      0.0174
      7  C47       15.9890  -13.9030    8.8040 C.3   501  12U501      0.0014
      8  C46       16.3890  -15.2750    8.1630 C.3   501  12U501      0.0000
      9  C52       17.8860  -15.7070    8.2040 C.3   501  12U501      0.0000
     10  C51       18.6580  -14.5710    9.0040 C.3   501  12U501      0.0014
     11  C50       18.1340  -14.3400   10.5230 C.3   501  12U501      0.0174
     12  N1        16.6870   -9.2090   12.7120 N.am  501  12U501     -0.2718
     13  C1        15.8240   -8.3090   12.5460 C.3   501  12U501      0.1535
     14  C7        16.3210   -6.9350   12.4730 C.2   501  12U501      0.2598
     15  O22       17.3250   -6.6080   13.0840 O.2   501  12U501     -0.2715
     16  C2        14.8310   -8.3620   13.7160 C.3   501  12U501      0.0310
     17  C3        15.2750   -9.4780   14.6200 C.3   501  12U501      0.0237
     18  C4        16.6480   -9.8150   14.0550 C.3   501  12U501      0.0939
     19  N23       15.7680   -5.9600   11.8220 N.am  501  12U501     -0.1992
     20  C24       16.2460   -4.6070   11.8240 C.3   501  12U501      0.1415
     21  C25       17.0600   -4.3850   10.5740 C.ar  501  12U501     -0.0006
     22  C30       18.2340   -4.9360   10.1920 C.ar  501  12U501     -0.0023
     23  C29       18.8100   -4.5670    8.9630 C.ar  501  12U501      0.0077
     24  C28       18.3060   -3.6580    8.0300 C.ar  501  12U501      0.0975
     25  C9        19.0880   -3.3960    6.7500 C.2   501  12U501      0.4766
     26  N10       18.4950   -2.7710    5.7490 N.pl3 501  12U501      0.2047
     27  N11       20.3510   -3.8110    6.6800 N.pl3 501  12U501      0.2047
     28  C27       17.1150   -3.0970    8.4150 C.ar  501  12U501      0.0077
     29  C26       16.5270   -3.4600    9.6500 C.ar  501  12U501     -0.0023
@<TRIPOS>BOND
     1    26    25    2
     2    27    25    1
     3    25    24    1
     4    24    28   ar
     5    24    23   ar
     6     8     9    1
     7     8     7    1
     8     9    10    1
     9    28    29   ar
    10     7     6    1
    11    23    22   ar
    12    10    11    1
    13    29    21   ar
    14    22    21   ar
    15     6     5    1
    16     4     5    1
    17     4     3    1
    18    11     5    1
    19    21    20    1
    20     2     1    2
    21     3     1    1
    22     1    12   am
    23    19    20    1
    24    19    14   am
    25    14    13    1
    26    14    15    2
    27    13    12    1
    28    13    16    1
    29    12    18    1
    30    16    17    1
    31    18    17    1
