@<TRIPOS>MOLECULE
2zhe_13U_H_1.pdb
 30 32 0 0 0
SMALL
GASTEIGER

@<TRIPOS>ATOM
      1  C14       18.2430  -13.9280   22.1660 C.2   501  13U501      0.2475
      2  O32       17.1880  -13.4200   22.5380 O.2   501  13U501     -0.2730
      3  C5        18.9540  -15.2440   22.5110 C.3   501  13U501      0.1740
      4  N21       18.6940  -15.9310   23.7460 N.3   501  13U501     -0.2100
      5  C49       19.3280  -15.7800   25.0400 C.3   501  13U501      0.0733
      6  C48       18.9650  -14.4650   25.7180 C.3   501  13U501      0.0174
      7  C47       19.9900  -13.6660   26.5180 C.3   501  13U501      0.0014
      8  C46       21.0850  -12.6780   26.1310 C.3   501  13U501      0.0000
      9  C45       22.0250  -13.0280   24.9810 C.3   501  13U501      0.0000
     10  C44       22.6460  -14.4130   25.0840 C.3   501  13U501      0.0000
     11  C43       22.0100  -15.6440   24.4540 C.3   501  13U501      0.0014
     12  C42       20.7440  -16.3250   24.9450 C.3   501  13U501      0.0174
     13  N1        18.8880  -13.1280   21.2940 N.am  501  13U501     -0.2492
     14  C1        18.3950  -11.8690   20.8600 C.3   501  13U501      0.1619
     15  C7        17.0160  -11.7880   20.2780 C.2   501  13U501      0.2604
     16  O22       16.5400  -12.7740   19.7280 O.2   501  13U501     -0.2715
     17  C2        19.3960  -11.4210   19.8140 C.3   501  13U501      0.0570
     18  C3        20.5420  -12.3960   19.7010 C.2   501  13U501     -0.0077
     19  C4        20.1080  -13.5720   20.5460 C.2   501  13U501      0.0634
     20  N23       16.2460  -10.7420   20.3240 N.am  501  13U501     -0.1991
     21  C24       14.9120  -10.6950   19.8670 C.3   501  13U501      0.1415
     22  C25       13.8910  -10.6370   20.9430 C.ar  501  13U501     -0.0006
     23  C30       13.2900   -9.4270   21.2700 C.ar  501  13U501     -0.0023
     24  C29       12.3420   -9.3730   22.2710 C.ar  501  13U501      0.0077
     25  C28       11.9550  -10.4990   22.9780 C.ar  501  13U501      0.0975
     26  C21       10.9160  -10.4030   24.0650 C.2   501  13U501      0.4766
     27  N46       10.1430  -11.4420   24.3300 N.pl3 501  13U501      0.2047
     28  N47       10.7710   -9.2800   24.7590 N.pl3 501  13U501      0.2047
     29  C27       12.5570  -11.7000   22.6460 C.ar  501  13U501      0.0077
     30  C26       13.5060  -11.7630   21.6470 C.ar  501  13U501     -0.0023
@<TRIPOS>BOND
     1    18    17    1
     2    18    19    2
     3    16    15    2
     4    17    14    1
     5    21    20    1
     6    21    22    1
     7    15    20   am
     8    15    14    1
     9    19    13    1
    10    14    13    1
    11    22    23   ar
    12    22    30   ar
    13    23    24   ar
    14    13     1   am
    15    30    29   ar
    16     1     3    1
    17     1     2    2
    18    24    25   ar
    19     3     4    1
    20    29    25   ar
    21    25    26    1
    22     4     5    1
    23    26    27    2
    24    26    28    1
    25    11    12    1
    26    11    10    1
    27    12     5    1
    28     9    10    1
    29     9     8    1
    30     5     6    1
    31     6     7    1
    32     8     7    1
