@<TRIPOS>MOLECULE
2zhf_49U_H_1.pdb
 22 23 0 0 0
SMALL
GASTEIGER

@<TRIPOS>ATOM
      1  C21       17.5430  -15.0570   24.6230 C.3   501  49U501      0.0101
      2  C5        17.5870  -15.0460   23.0760 C.3   501  49U501      0.0853
      3  C14       17.5990  -13.5670   22.4860 C.2   501  49U501      0.2259
      4  O32       16.6090  -12.8480   22.7420 O.2   501  49U501     -0.2749
      5  N1        18.6330  -13.1380   21.7460 N.am  501  49U501     -0.2730
      6  C1        18.3840  -11.8580   21.0420 C.3   501  49U501      0.1535
      7  C7        17.1260  -11.8270   20.1950 C.2   501  49U501      0.2598
      8  O22       16.7490  -12.7440   19.4550 O.2   501  49U501     -0.2715
      9  C2        19.5780  -11.6040   20.1340 C.3   501  49U501      0.0310
     10  C3        20.0900  -13.0060   19.8840 C.3   501  49U501      0.0237
     11  C4        19.7250  -13.8560   21.0980 C.3   501  49U501      0.0939
     12  N23       16.3470  -10.7490   20.2670 N.am  501  49U501     -0.1992
     13  C24       14.9840  -10.8490   19.8210 C.3   501  49U501      0.1415
     14  C25       13.9690  -10.8050   20.8680 C.ar  501  49U501     -0.0006
     15  C30       13.6030   -9.6030   21.3640 C.ar  501  49U501     -0.0023
     16  C29       12.6480   -9.5160   22.3550 C.ar  501  49U501      0.0077
     17  C28       12.0500  -10.6410   22.8580 C.ar  501  49U501      0.0975
     18  C9        11.0050  -10.5850   23.9370 C.2   501  49U501      0.4766
     19  N46       10.3020  -11.6740   24.2130 N.pl3 501  49U501      0.2047
     20  N47       10.7710   -9.4770   24.6180 N.pl3 501  49U501      0.2047
     21  C27       12.4290  -11.8650   22.3470 C.ar  501  49U501      0.0077
     22  C26       13.3880  -11.9670   21.3500 C.ar  501  49U501     -0.0023
@<TRIPOS>BOND
     1     8     7    2
     2    13    12    1
     3    13    14    1
     4    10     9    1
     5    10    11    1
     6     9     6    1
     7     7    12   am
     8     7     6    1
     9    14    22   ar
    10    14    15   ar
    11     6     5    1
    12    11     5    1
    13    22    21   ar
    14    15    16   ar
    15     5     3   am
    16    21    17   ar
    17    16    17   ar
    18     3     4    2
    19     3     2    1
    20    17    18    1
    21     2     1    1
    22    18    19    2
    23    18    20    1
