@<TRIPOS>MOLECULE
2zhk_GAL_A_1.pdb
 11 11 0 0 0
SMALL
GASTEIGER

@<TRIPOS>ATOM
      1  C1        13.9700   38.1220   11.5470 C.3   1006  GAL1006     0.1777
      2  C2        14.2240   38.4450   13.0250 C.3   1006  GAL1006     0.2141
      3  C3        14.9470   37.3240   13.7930 C.3   1006  GAL1006     0.2173
      4  C4        14.4940   35.9320   13.3540 C.3   1006  GAL1006     0.2142
      5  C5        14.6020   35.8370   11.8430 C.3   1006  GAL1006     0.1810
      6  C6        14.4540   34.3690   11.3970 C.3   1006  GAL1006     0.2141
      7  O2        14.9360   39.6600   13.1720 O.3   1006  GAL1006    -0.2176
      8  O3        14.6250   37.4910   15.1590 O.3   1006  GAL1006    -0.2175
      9  O4        13.1270   35.7130   13.6790 O.3   1006  GAL1006    -0.2176
     10  O5        13.6350   36.7550   11.3260 O.3   1006  GAL1006    -0.3481
     11  O6        14.0470   34.2700   10.0550 O.3   1006  GAL1006    -0.2176
@<TRIPOS>BOND
     1    11     6    1
     2    10     1    1
     3    10     5    1
     4     6     5    1
     5     1     2    1
     6     5     4    1
     7     2     7    1
     8     2     3    1
     9     4     9    1
    10     4     3    1
    11     3     8    1
