@<TRIPOS>MOLECULE
2zhl_GAL_A_1.pdb
 11 11 0 0 0
SMALL
GASTEIGER

@<TRIPOS>ATOM
      1  C1        10.1970   55.8060   10.5720 C.3   1493  GAL1493     0.2997
      2  C2        10.4900   56.1840   12.0250 C.3   1493  GAL1493     0.2134
      3  C3        11.5770   57.2780   12.1080 C.3   1493  GAL1493     0.0738
      4  C4        12.7600   56.8130   11.2570 C.3   1493  GAL1493     0.1843
      5  C5        12.3250   56.4440    9.8280 C.3   1493  GAL1493     0.1810
      6  C6        13.4870   55.9970    8.9420 C.3   1493  GAL1493     0.2141
      7  O1         9.2650   54.7410   10.5700 O.3   1493  GAL1493    -0.1870
      8  O2         9.2830   56.6150   12.6190 O.3   1493  GAL1493    -0.2175
      9  O4        13.3720   55.6830   11.8610 O.3   1493  GAL1493    -0.2204
     10  O5        11.3610   55.4070    9.8900 O.3   1493  GAL1493    -0.3238
     11  O6        12.9680   55.7350    7.6540 O.3   1493  GAL1493    -0.2176
@<TRIPOS>BOND
     1    11     6    1
     2     6     5    1
     3     5    10    1
     4     5     4    1
     5    10     1    1
     6     7     1    1
     7     1     2    1
     8     4     9    1
     9     4     3    1
    10     2     3    1
    11     2     8    1
