@<TRIPOS>MOLECULE
2zhm_GAL_A_1.pdb
 11 11 0 0 0
SMALL
GASTEIGER

@<TRIPOS>ATOM
      1  C1        -7.6760  -12.2580   10.4840 C.3   1006  GAL1006     0.2997
      2  C2        -7.3260  -11.8490   11.9170 C.3   1006  GAL1006     0.2134
      3  C3        -6.2600  -10.7520   11.9780 C.3   1006  GAL1006     0.0738
      4  C4        -5.0800  -11.1740   11.1030 C.3   1006  GAL1006     0.1843
      5  C5        -5.5530  -11.5500    9.6820 C.3   1006  GAL1006     0.1810
      6  C6        -4.3930  -11.9700    8.7920 C.3   1006  GAL1006     0.2141
      7  O1        -8.5130  -13.3970   10.5510 O.3   1006  GAL1006    -0.1870
      8  O2        -8.5070  -11.4360   12.5560 O.3   1006  GAL1006    -0.2175
      9  O4        -4.4010  -12.2590   11.7060 O.3   1006  GAL1006    -0.2204
     10  O5        -6.5270  -12.5790    9.7140 O.3   1006  GAL1006    -0.3238
     11  O6        -4.8870  -12.2680    7.5090 O.3   1006  GAL1006    -0.2176
@<TRIPOS>BOND
     1    11     6    1
     2     6     5    1
     3     5    10    1
     4     5     4    1
     5    10     1    1
     6     1     7    1
     7     1     2    1
     8     4     9    1
     9     4     3    1
    10     2     3    1
    11     2     8    1
