@<TRIPOS>MOLECULE
2zhn_GAL_A_1.pdb
 10 10 0 0 0
SMALL
GASTEIGER

@<TRIPOS>ATOM
      1  C1         3.0150    5.1760   38.2940 C.3   1172  GAL1172     0.1750
      2  C2         4.2190    6.0340   38.6730 C.3   1172  GAL1172     0.1840
      3  C3         3.7520    7.4390   39.0430 C.3   1172  GAL1172     0.0710
      4  C4         2.8310    8.0060   37.9610 C.3   1172  GAL1172     0.1841
      5  C5         1.6930    7.0190   37.6790 C.3   1172  GAL1172     0.1784
      6  C6         0.7230    7.4940   36.6030 C.3   1172  GAL1172     0.2140
      7  O2         4.9250    5.4640   39.7650 O.3   1172  GAL1172    -0.2204
      8  O4         3.5800    8.2420   36.7770 O.3   1172  GAL1172    -0.2204
      9  O5         2.2360    5.7770   37.2760 O.3   1172  GAL1172    -0.3483
     10  O6        -0.2760    6.5150   36.3540 O.3   1172  GAL1172    -0.2176
@<TRIPOS>BOND
     1    10     6    1
     2     6     5    1
     3     8     4    1
     4     9     5    1
     5     9     1    1
     6     5     4    1
     7     4     3    1
     8     1     2    1
     9     2     3    1
    10     2     7    1
