@<TRIPOS>MOLECULE
2zhq_27U_H_1.pdb
 28 30 0 0 0
SMALL
GASTEIGER

@<TRIPOS>ATOM
      1  C3        17.7780  -13.9760   22.7110 C.2   501  27U501      0.2263
      2  O1        16.8790  -13.2430   23.0840 O.2   501  27U501     -0.2748
      3  C2        17.8640  -15.3540   23.3240 C.3   501  27U501      0.0900
      4  C1        18.1770  -15.3070   24.8340 C.3   501  27U501      0.0359
      5  C17       19.5850  -14.7420   25.0780 C.ar  501  27U501     -0.0217
      6  C18       20.7160  -15.4040   24.5840 C.ar  501  27U501     -0.0043
      7  C19       21.9930  -14.8350   24.6660 C.ar  501  27U501     -0.0003
      8  C20       22.1550  -13.5830   25.2510 C.ar  501  27U501     -0.0000
      9  C21       21.0310  -12.9140   25.7480 C.ar  501  27U501     -0.0003
     10  C22       19.7560  -13.4810   25.6650 C.ar  501  27U501     -0.0043
     11  N1        18.6700  -13.5220   21.7990 N.am  501  27U501     -0.2729
     12  C7        18.5050  -12.1810   21.2430 C.3   501  27U501      0.1535
     13  C8        17.1590  -12.0950   20.5470 C.2   501  27U501      0.2598
     14  O2        16.7380  -13.1240   20.0330 O.2   501  27U501     -0.2715
     15  C6        19.6440  -12.2190   20.1880 C.3   501  27U501      0.0310
     16  C5        20.7410  -13.0170   20.9440 C.3   501  27U501      0.0237
     17  C4        19.9360  -14.2030   21.5350 C.3   501  27U501      0.0939
     18  N2        16.3970  -10.9920   20.6960 N.am  501  27U501     -0.1992
     19  C9        15.1090  -10.9130   19.9790 C.3   501  27U501      0.1415
     20  C10       13.9910  -10.8870   21.0340 C.ar  501  27U501     -0.0006
     21  C15       13.5430   -9.6820   21.5670 C.ar  501  27U501     -0.0023
     22  C14       12.5240   -9.6460   22.5280 C.ar  501  27U501      0.0077
     23  C13       11.9390  -10.8380   22.9690 C.ar  501  27U501      0.0975
     24  C16       10.8370  -10.7980   24.0120 C.2   501  27U501      0.4766
     25  N3        10.5480   -9.6490   24.5580 N.pl3 501  27U501      0.2047
     26  N4        10.1950  -11.8850   24.3550 N.pl3 501  27U501      0.2047
     27  C12       12.3890  -12.0470   22.4310 C.ar  501  27U501      0.0077
     28  C11       13.4050  -12.0770   21.4740 C.ar  501  27U501     -0.0023
@<TRIPOS>BOND
     1    19    18    1
     2    19    20    1
     3    14    13    2
     4    15    16    1
     5    15    12    1
     6    13    18   am
     7    13    12    1
     8    16    17    1
     9    20    28   ar
    10    20    21   ar
    11    12    11    1
    12    28    27   ar
    13    17    11    1
    14    21    22   ar
    15    11     1   am
    16    27    23   ar
    17    22    23   ar
    18     1     2    2
    19     1     3    1
    20    23    24    1
    21     3     4    1
    22    24    26    2
    23    24    25    1
    24     6     7   ar
    25     6     5   ar
    26     7     8   ar
    27     4     5    1
    28     5    10   ar
    29     8     9   ar
    30    10     9   ar
