@<TRIPOS>MOLECULE
2zhw_12U_H_1.pdb
 22 23 0 0 0
SMALL
GASTEIGER

@<TRIPOS>ATOM
      1  C14       18.1440  -13.8660   21.9340 C.2   501  12U501      0.2454
      2  O32       17.4340  -13.0650   22.5450 O.2   501  12U501     -0.2732
      3  C5        18.0900  -15.2040   22.5530 C.3   501  12U501      0.1940
      4  N21       17.2420  -15.6010   23.6140 N.3   501  12U501     -0.1210
      5  N1        18.7770  -13.3610   20.8870 N.am  501  12U501     -0.2717
      6  C1        18.1780  -12.9510   19.6280 C.3   501  12U501      0.1535
      7  C7        16.8340  -12.4260   19.8980 C.2   501  12U501      0.2598
      8  O22       15.8560  -13.1840   19.8660 O.2   501  12U501     -0.2715
      9  C2        19.0760  -11.8160   19.2160 C.3   501  12U501      0.0310
     10  C3        20.4870  -12.3630   19.5010 C.3   501  12U501      0.0237
     11  C4        20.2540  -13.1660   20.8180 C.3   501  12U501      0.0939
     12  N23       16.5410  -11.1670   20.1840 N.am  501  12U501     -0.1992
     13  C24       15.3020  -10.7180   19.6070 C.3   501  12U501      0.1415
     14  C25       14.2650  -10.8830   20.6790 C.ar  501  12U501     -0.0006
     15  C30       13.8120  -11.9780   21.3730 C.ar  501  12U501     -0.0023
     16  C29       12.8030  -11.9710   22.3790 C.ar  501  12U501      0.0077
     17  C28       12.1220  -10.8600   22.8150 C.ar  501  12U501      0.0975
     18  C9        11.0400  -10.7280   23.8660 C.2   501  12U501      0.4766
     19  N10       10.3650  -11.7850   24.3080 N.pl3 501  12U501      0.2047
     20  N11       10.7700   -9.5120   24.3500 N.pl3 501  12U501      0.2047
     21  C27       12.5750   -9.7540   22.1180 C.ar  501  12U501      0.0077
     22  C26       13.5750   -9.7570   21.1200 C.ar  501  12U501     -0.0023
@<TRIPOS>BOND
     1     9    10    1
     2     9     6    1
     3    10    11    1
     4    13    12    1
     5    13    14    1
     6     6     7    1
     7     6     5    1
     8     8     7    2
     9     7    12   am
    10    14    22   ar
    11    14    15   ar
    12    11     5    1
    13     5     1   am
    14    22    21   ar
    15    15    16   ar
    16     1     2    2
    17     1     3    1
    18    21    17   ar
    19    16    17   ar
    20     3     4    1
    21    17    18    1
    22    18    19    2
    23    18    20    1
