@<TRIPOS>MOLECULE
2zhz_ATP_B_1.pdb
 31 33 0 0 0
SMALL
GASTEIGER

@<TRIPOS>ATOM
      1  PG        -5.3990  -12.6420   35.2050 P.3   201  ATP201      0.5373
      2  O1G       -5.5420  -11.1610   34.9410 O.3   201  ATP201     -0.1143
      3  O2G       -5.8790  -13.0740   36.5600 O.3   201  ATP201     -0.1143
      4  O3G       -6.1200  -13.4880   34.1740 O.2   201  ATP201     -0.2221
      5  PB        -2.7560  -12.7530   33.8930 P.3   201  ATP201      0.2277
      6  O1B       -3.4500  -12.0970   32.7400 O.2   201  ATP201     -0.5168
      7  O2B       -1.5300  -12.0410   34.4240 O.3   201  ATP201     -0.4368
      8  O3B       -3.7960  -13.0160   35.1470 O.3   201  ATP201     -0.2258
      9  PA        -3.2730  -15.4480   32.9070 P.3   201  ATP201      0.2189
     10  O1A       -4.0650  -14.9310   31.7530 O.2   201  ATP201     -0.5170
     11  O2A       -3.9840  -16.1040   34.0800 O.3   201  ATP201     -0.4371
     12  O3A       -2.2900  -14.2680   33.4930 O.3   201  ATP201     -0.2700
     13  O5'       -2.2250  -16.4890   32.2760 O.3   201  ATP201     -0.3112
     14  C5'       -1.2680  -17.1460   33.0850 C.3   201  ATP201      0.1813
     15  C4'        0.0560  -17.3300   32.3310 C.3   201  ATP201      0.1821
     16  O4'       -0.0750  -17.1330   30.9040 O.3   201  ATP201     -0.3135
     17  C3'        1.1320  -16.3760   32.8360 C.3   201  ATP201      0.2184
     18  O3'        2.1720  -17.1020   33.5100 O.3   201  ATP201     -0.2174
     19  C2'        1.6340  -15.6150   31.6170 C.3   201  ATP201      0.2570
     20  O2'        3.0470  -15.8160   31.4370 O.3   201  ATP201     -0.2130
     21  C1'        0.8350  -16.1280   30.4220 C.3   201  ATP201      0.3186
     22  N9         0.0750  -15.0240   29.7270 N.pl3 201  ATP201     -0.1439
     23  C8        -0.7340  -14.1010   30.3150 C.3   201  ATP201      0.3377
     24  N7        -1.2670  -13.2480   29.4070 N.2   201  ATP201     -0.2095
     25  C5        -0.8090  -13.6070   28.1990 C.2   201  ATP201      0.2526
     26  C6        -0.9750  -13.1260   26.7870 C.2   201  ATP201      0.4393
     27  N6        -1.7680  -12.0540   26.5020 N.pl3 201  ATP201      0.2180
     28  N1        -0.3010  -13.8000   25.7880 N.2   201  ATP201      0.0021
     29  C2         0.5000  -14.8760   26.0490 C.3   201  ATP201      0.5254
     30  N3         0.6940  -15.3650   27.3120 N.2   201  ATP201     -0.0055
     31  C4         0.0820  -14.7850   28.4070 C.2   201  ATP201      0.3518
@<TRIPOS>BOND
     1    28    29    1
     2    28    26    2
     3    29    30    1
     4    27    26    1
     5    26    25    1
     6    30    31    2
     7    25    31    1
     8    25    24    2
     9    31    22    1
    10    24    23    1
    11    22    23    1
    12    22    21    1
    13    21    16    1
    14    21    19    1
    15    16    15    1
    16    20    19    1
    17    19    17    1
    18    10     9    2
    19    13     9    1
    20    13    14    1
    21    15    17    1
    22    15    14    1
    23     6     5    2
    24    17    18    1
    25     9    12    1
    26     9    11    1
    27    12     5    1
    28     5     7    1
    29     5     8    1
    30     4     1    2
    31     2     1    1
    32     8     1    1
    33     1     3    1
