@<TRIPOS>MOLECULE
2zi2_24U_H_1.pdb
 23 24 0 0 0
SMALL
GASTEIGER

@<TRIPOS>ATOM
      1  C17       18.8550  -14.3330   25.2430 C.3   801  24U801      0.0005
      2  C33       17.6290  -15.1390   24.7300 C.3   801  24U801      0.0096
      3  C15       17.6220  -15.1620   23.1700 C.3   801  24U801      0.0853
      4  C14       17.5710  -13.7290   22.6540 C.2   801  24U801      0.2259
      5  O32       16.5880  -13.0890   23.0250 O.2   801  24U801     -0.2749
      6  N1        18.5500  -13.2430   21.8500 N.am  801  24U801     -0.2730
      7  C1        18.3870  -11.9570   21.1740 C.3   801  24U801      0.1535
      8  C7        17.0310  -11.9970   20.5010 C.2   801  24U801      0.2598
      9  O22       16.6600  -13.0480   19.9910 O.2   801  24U801     -0.2715
     10  C2        19.5020  -12.0240   20.0870 C.3   801  24U801      0.0310
     11  C3        20.5190  -13.0100   20.7200 C.3   801  24U801      0.0237
     12  C4        19.5840  -14.1140   21.2690 C.3   801  24U801      0.0939
     13  N23       16.2850  -10.8670   20.5190 N.am  801  24U801     -0.1992
     14  C24       14.9820  -10.9860   19.8310 C.3   801  24U801      0.1415
     15  C25       13.8940  -10.9370   20.9120 C.ar  801  24U801     -0.0006
     16  C26       13.4030  -12.1380   21.4480 C.ar  801  24U801     -0.0023
     17  C27       12.4200  -12.0950   22.4250 C.ar  801  24U801      0.0077
     18  C28       11.9230  -10.8720   22.8710 C.ar  801  24U801      0.0975
     19  C21       10.7820  -10.8610   24.0070 C.2   801  24U801      0.4766
     20  N47       10.1670  -11.9790   24.2530 N.pl3 801  24U801      0.2047
     21  N46       10.5190   -9.7450   24.6320 N.pl3 801  24U801      0.2047
     22  C29       12.4040   -9.6810   22.3460 C.ar  801  24U801      0.0077
     23  C30       13.3910   -9.7180   21.3650 C.ar  801  24U801     -0.0023
@<TRIPOS>BOND
     1    14    13    1
     2    14    15    1
     3     9     8    2
     4    10    11    1
     5    10     7    1
     6     8    13   am
     7     8     7    1
     8    11    12    1
     9    15    23   ar
    10    15    16   ar
    11     7     6    1
    12    12     6    1
    13    23    22   ar
    14    16    17   ar
    15     6     4   am
    16    22    18   ar
    17    17    18   ar
    18     4     5    2
    19     4     3    1
    20    18    19    1
    21     3     2    1
    22    19    20    2
    23    19    21    1
    24     2     1    1
