@<TRIPOS>MOLECULE
2zi3_3D1_A_1.pdb
 18 20 0 0 0
SMALL
GASTEIGER

@<TRIPOS>ATOM
      1  O5'       46.8180   61.9770   97.5180 O.3   302  3D1302     -0.2176
      2  C5'       48.1120   61.4580   97.8560 C.3   302  3D1302      0.2142
      3  C4'       49.1620   62.5320   97.6030 C.3   302  3D1302      0.1824
      4  O4'       48.6100   63.8460   97.6120 O.3   302  3D1302     -0.3154
      5  C1'       48.8940   64.4740   98.8590 C.3   302  3D1302      0.2874
      6  N9        47.6030   64.8140   99.4520 N.pl3 302  3D1302     -0.1460
      7  C4        47.4220   65.9520  100.1010 C.2   302  3D1302      0.3518
      8  N3        48.2950   66.9560  100.4050 N.2   302  3D1302     -0.0055
      9  C2        47.8680   68.1250  101.1720 C.3   302  3D1302      0.5254
     10  N1        46.4390   68.1020  101.5420 N.2   302  3D1302      0.0021
     11  C6        45.5980   67.0870  101.2280 C.2   302  3D1302      0.4393
     12  N6        44.2910   67.0720  101.5690 N.pl3 302  3D1302      0.2180
     13  C5        46.0900   65.9560  100.4750 C.2   302  3D1302      0.2526
     14  N7        45.4880   64.8380  100.0240 N.2   302  3D1302     -0.2095
     15  C8        46.4500   64.1320   99.3920 C.3   302  3D1302      0.3377
     16  C2'       49.6780   63.5100   99.7190 C.3   302  3D1302      0.1151
     17  C3'       50.2260   62.5610   98.6790 C.3   302  3D1302      0.1884
     18  O3'       51.4050   63.1480   98.1040 O.3   302  3D1302     -0.2202
@<TRIPOS>BOND
     1     1     2    1
     2     3     4    1
     3     3     2    1
     4     3    17    1
     5     4     5    1
     6    18    17    1
     7    17    16    1
     8     5     6    1
     9     5    16    1
    10    15     6    1
    11    15    14    1
    12     6     7    1
    13    14    13    2
    14     7     8    2
    15     7    13    1
    16     8     9    1
    17    13    11    1
    18     9    10    1
    19    11    10    2
    20    11    12    1
