@<TRIPOS>MOLECULE
2zi3_ADP_A_1.pdb
 27 29 0 0 0
SMALL
GASTEIGER

@<TRIPOS>ATOM
      1  PB        48.0130   55.2040   99.1990 P.3   301  ADP301      0.5373
      2  O1B       46.8560   54.8760   98.3140 O.2   301  ADP301     -0.2221
      3  O2B       47.6420   55.1390  100.6650 O.3   301  ADP301     -0.1143
      4  O3B       48.7940   56.4450   98.8450 O.3   301  ADP301     -0.1143
      5  PA        49.1790   53.0920   97.5630 P.3   301  ADP301      0.2231
      6  O1A       48.2500   51.9110   97.4850 O.3   301  ADP301     -0.4370
      7  O2A       49.2810   54.0630   96.4240 O.2   301  ADP301     -0.5169
      8  O3A       49.0260   53.9600   98.9320 O.3   301  ADP301     -0.2261
      9  O5'       50.5410   52.2690   97.7580 O.3   301  ADP301     -0.3111
     10  C5'       51.8020   52.9050   97.8210 C.3   301  ADP301      0.1813
     11  C4'       52.8300   51.8920   97.3140 C.3   301  ADP301      0.1821
     12  O4'       53.0660   50.8060   98.2460 O.3   301  ADP301     -0.3135
     13  C3'       52.4250   51.2610   95.9870 C.3   301  ADP301      0.2184
     14  O3'       53.6330   50.9580   95.3340 O.3   301  ADP301     -0.2174
     15  C2'       51.8880   49.9180   96.3940 C.3   301  ADP301      0.2570
     16  O2'       52.1260   49.0020   95.3570 O.3   301  ADP301     -0.2130
     17  C1'       52.7550   49.5570   97.6060 C.3   301  ADP301      0.3186
     18  N9        52.0550   48.7380   98.6230 N.pl3 301  ADP301     -0.1439
     19  C8        50.8210   48.9340   99.1470 C.3   301  ADP301      0.3377
     20  N7        50.5280   48.0080  100.1050 N.2   301  ADP301     -0.2095
     21  C5        51.6240   47.2430  100.1860 C.2   301  ADP301      0.2526
     22  C6        51.9660   46.0960  101.0290 C.2   301  ADP301      0.4393
     23  N6        51.0970   45.7070  101.8550 N.pl3 301  ADP301      0.2180
     24  N1        53.1590   45.5270  100.8780 N.2   301  ADP301      0.0021
     25  C2        54.1860   46.0030   99.9310 C.3   301  ADP301      0.5254
     26  N3        53.7810   47.1540   99.1280 N.2   301  ADP301     -0.0055
     27  C4        52.5470   47.7110   99.2910 C.2   301  ADP301      0.3518
@<TRIPOS>BOND
     1    14    13    1
     2    16    15    1
     3    13    15    1
     4    13    11    1
     5    15    17    1
     6     7     5    2
     7    11    10    1
     8    11    12    1
     9     6     5    1
    10     5     9    1
    11     5     8    1
    12    17    12    1
    13    17    18    1
    14     9    10    1
    15     2     1    2
    16    18    19    1
    17    18    27    1
    18     4     1    1
    19     8     1    1
    20    26    27    2
    21    26    25    1
    22    19    20    1
    23     1     3    1
    24    27    21    1
    25    25    24    1
    26    20    21    2
    27    21    22    1
    28    24    22    2
    29    22    23    1
