@<TRIPOS>MOLECULE
2zi4_ADP_A_1.pdb
 27 29 0 0 0
SMALL
GASTEIGER

@<TRIPOS>ATOM
      1  PB        32.6720    2.3520   18.9410 P.3   301  ADP301      0.5373
      2  O1B       31.8120    3.0840   19.9170 O.3   301  ADP301     -0.1143
      3  O2B       32.2630    2.5940   17.5340 O.2   301  ADP301     -0.2221
      4  O3B       32.9300    0.8970   19.2360 O.3   301  ADP301     -0.1143
      5  PA        34.7660    3.9180   20.1980 P.3   301  ADP301      0.2231
      6  O1A       34.2970    5.3380   20.1220 O.2   301  ADP301     -0.5169
      7  O2A       34.6730    3.1450   21.5050 O.3   301  ADP301     -0.4370
      8  O3A       34.1330    3.0530   18.9900 O.3   301  ADP301     -0.2261
      9  O5'       36.2780    3.9860   19.6980 O.3   301  ADP301     -0.3111
     10  C5'       37.1610    2.9020   19.7070 C.3   301  ADP301      0.1813
     11  C4'       38.5460    3.4270   20.1050 C.3   301  ADP301      0.1821
     12  O4'       39.0930    4.2450   19.0770 O.3   301  ADP301     -0.3135
     13  C3'       38.4740    4.3040   21.3250 C.3   301  ADP301      0.2184
     14  O3'       39.7330    4.1220   21.8910 O.3   301  ADP301     -0.2174
     15  C2'       38.3930    5.7290   20.8080 C.3   301  ADP301      0.2570
     16  O2'       39.1840    6.5970   21.5960 O.3   301  ADP301     -0.2130
     17  C1'       39.1300    5.6350   19.4900 C.3   301  ADP301      0.3186
     18  N9        38.6320    6.4420   18.3500 N.pl3 301  ADP301     -0.1439
     19  C8        37.3860    6.4230   17.8000 C.3   301  ADP301      0.3377
     20  N7        37.3510    7.2670   16.7230 N.2   301  ADP301     -0.2095
     21  C5        38.5830    7.7830   16.5710 C.2   301  ADP301      0.2526
     22  C6        39.2130    8.7000   15.5990 C.2   301  ADP301      0.4393
     23  N6        38.5550    9.1950   14.6240 N.pl3 301  ADP301      0.2180
     24  N1        40.4930    8.9950   15.7640 N.2   301  ADP301      0.0021
     25  C2        41.3320    8.4510   16.8190 C.3   301  ADP301      0.5254
     26  N3        40.6430    7.5440   17.7140 N.2   301  ADP301     -0.0055
     27  C4        39.3380    7.2410   17.5670 C.2   301  ADP301      0.3518
@<TRIPOS>BOND
     1    23    22    1
     2    22    24    2
     3    22    21    1
     4    24    25    1
     5    21    20    2
     6    21    27    1
     7    20    19    1
     8    25    26    1
     9     3     1    2
    10    27    26    2
    11    27    18    1
    12    19    18    1
    13    18    17    1
    14     1     8    1
    15     1     4    1
    16     1     2    1
    17     8     5    1
    18    12    17    1
    19    12    11    1
    20    17    15    1
    21     9    10    1
    22     9     5    1
    23    10    11    1
    24    11    13    1
    25     6     5    2
    26     5     7    1
    27    15    13    1
    28    15    16    1
    29    13    14    1
