@<TRIPOS>MOLECULE
2zi4_3L1_A_1.pdb
 18 20 0 0 0
SMALL
GASTEIGER

@<TRIPOS>ATOM
      1  N6        23.5300   -7.6090   17.9840 N.pl3 401  3L1401      0.2180
      2  C6        24.7900   -7.8130   18.1490 C.2   401  3L1401      0.4393
      3  N1        25.4380   -8.9420   17.9570 N.2   401  3L1401      0.0021
      4  C2        26.8340   -9.2180   18.1030 C.3   401  3L1401      0.5254
      5  N3        27.6170   -8.0980   18.4940 N.2   401  3L1401     -0.0055
      6  C4        26.9810   -6.9000   18.7080 C.2   401  3L1401      0.3518
      7  C5        25.6590   -6.7050   18.5470 C.2   401  3L1401      0.2526
      8  N7        25.3850   -5.4180   18.8570 N.2   401  3L1401     -0.2095
      9  C8        26.5970   -4.8370   19.1580 C.3   401  3L1401      0.3377
     10  N9        27.5950   -5.7910   19.0620 N.pl3 401  3L1401     -0.1460
     11  C1'       29.0070   -5.6530   19.3400 C.3   401  3L1401      0.2874
     12  O4'       29.2370   -4.2660   19.5800 O.3   401  3L1401     -0.3154
     13  C2'       29.3620   -6.2970   20.6540 C.3   401  3L1401      0.1151
     14  C3'       30.5900   -5.5020   21.0560 C.3   401  3L1401      0.1884
     15  O3'       31.7920   -6.0680   20.5540 O.3   401  3L1401     -0.2202
     16  C4'       30.4500   -4.1590   20.3470 C.3   401  3L1401      0.1824
     17  C5'       30.3920   -2.9970   21.3270 C.3   401  3L1401      0.2142
     18  O5'       29.7810   -1.8090   20.7850 O.3   401  3L1401     -0.2176
@<TRIPOS>BOND
     1     3     4    1
     2     3     2    2
     3     1     2    1
     4     4     5    1
     5     2     7    1
     6     5     6    2
     7     7     6    1
     8     7     8    2
     9     6    10    1
    10     8     9    1
    11    10     9    1
    12    10    11    1
    13    11    12    1
    14    11    13    1
    15    12    16    1
    16    16    14    1
    17    16    17    1
    18    15    14    1
    19    13    14    1
    20    18    17    1
