@<TRIPOS>MOLECULE
2zi5_3L1_A_1.pdb
 18 20 0 0 0
SMALL
GASTEIGER

@<TRIPOS>ATOM
      1  N6       114.2610   25.6260   -8.5480 N.pl3 1401  3L11401     0.2180
      2  C6       113.7550   24.4520   -8.7390 C.2   1401  3L11401     0.4393
      3  N1       114.4630   23.3300   -8.8230 N.2   1401  3L11401     0.0021
      4  C2       114.0170   21.9980   -8.9710 C.3   1401  3L11401     0.5254
      5  N3       112.5950   21.8400   -9.0540 N.2   1401  3L11401    -0.0055
      6  C4       111.8240   22.9630   -8.9760 C.2   1401  3L11401     0.3518
      7  C5       112.3090   24.2200   -8.8000 C.2   1401  3L11401     0.2526
      8  N7       111.2450   25.0480   -8.8270 N.2   1401  3L11401    -0.2095
      9  C8       110.1350   24.2470   -8.9840 C.3   1401  3L11401     0.3377
     10  N9       110.5150   22.9420   -9.0940 N.pl3 1401  3L11401    -0.1460
     11  C1'      109.6660   21.7780   -9.3080 C.3   1401  3L11401     0.2874
     12  O4'      109.1860   21.4630   -7.9760 O.3   1401  3L11401    -0.3154
     13  C2'      108.4960   21.9410  -10.2420 C.3   1401  3L11401     0.1151
     14  C3'      107.5060   20.9760   -9.5990 C.3   1401  3L11401     0.1884
     15  O3'      107.7110   19.6270  -10.0210 O.3   1401  3L11401    -0.2202
     16  C4'      107.7980   21.0610   -8.0910 C.3   1401  3L11401     0.1824
     17  C5'      106.9370   22.0590   -7.3410 C.3   1401  3L11401     0.2142
     18  O5'      107.1220   23.4050   -7.8050 O.3   1401  3L11401    -0.2176
@<TRIPOS>BOND
     1    13    14    1
     2    13    11    1
     3    15    14    1
     4    14    16    1
     5    11    10    1
     6    11    12    1
     7    10     9    1
     8    10     6    1
     9     5     6    2
    10     5     4    1
    11     9     8    1
    12     6     7    1
    13     4     3    1
    14     8     7    2
    15     3     2    2
    16     7     2    1
    17     2     1    1
    18    16    12    1
    19    16    17    1
    20    18    17    1
