@<TRIPOS>MOLECULE
2zi5_UDP_A_1.pdb
 25 26 0 0 0
SMALL
GASTEIGER

@<TRIPOS>ATOM
      1  N1       113.5170    5.7420  -15.4660 N.am  1301  UDP1301    -0.1766
      2  C2       113.3570    4.5650  -16.1950 C.1   1301  UDP1301     0.2845
      3  N3       114.1630    4.3410  -17.2780 N.2   1301  UDP1301    -0.2452
      4  C4       115.2840    5.1140  -17.4670 C.1   1301  UDP1301     0.2182
      5  C5       115.4610    6.3020  -16.7430 C.2   1301  UDP1301     0.1242
      6  C6       114.5210    6.6100  -15.7580 C.2   1301  UDP1301     0.0929
      7  O2       112.4520    3.7870  -15.9720 O.2   1301  UDP1301    -0.1918
      8  O4       116.0700    4.7870  -18.3480 O.2   1301  UDP1301    -0.2085
      9  C1'      112.6380    5.9740  -14.3200 C.3   1301  UDP1301     0.2401
     10  C2'      113.3270    6.0040  -12.9920 C.3   1301  UDP1301     0.2319
     11  O2'      113.4950    4.7520  -12.4180 O.3   1301  UDP1301    -0.2157
     12  C3'      112.4890    6.9210  -12.1500 C.3   1301  UDP1301     0.2158
     13  C4'      111.7430    7.7570  -13.1650 C.3   1301  UDP1301     0.1799
     14  O4'      112.0080    7.2310  -14.4690 O.3   1301  UDP1301    -0.3320
     15  O3'      111.5450    6.2110  -11.4170 O.3   1301  UDP1301    -0.2175
     16  C5'      112.2230    9.2190  -13.0530 C.3   1301  UDP1301     0.1813
     17  O5'      113.6320    9.2690  -13.4640 O.3   1301  UDP1301    -0.3111
     18  PA       114.5980   10.1850  -12.5870 P.3   1301  UDP1301     0.2231
     19  O1A      114.2640   10.4040  -11.1780 O.3   1301  UDP1301    -0.4370
     20  O2A      115.9920    9.7920  -12.7590 O.2   1301  UDP1301    -0.5169
     21  O3A      114.3670   11.5830  -13.4250 O.3   1301  UDP1301    -0.2261
     22  PB       114.8790   13.0730  -12.9460 P.3   1301  UDP1301     0.5373
     23  O1B      115.7720   12.7920  -11.8180 O.3   1301  UDP1301    -0.1143
     24  O2B      113.6960   13.8620  -12.5080 O.3   1301  UDP1301    -0.1143
     25  O3B      115.3240   13.7070  -14.1700 O.2   1301  UDP1301    -0.2221
@<TRIPOS>BOND
     1     8     4    2
     2     4     3    2
     3     4     5    1
     4     3     2    2
     5     5     6    2
     6     2     7    2
     7     2     1   am
     8     6     1    1
     9     1     9    1
    10    14     9    1
    11    14    13    1
    12     9    10    1
    13    25    22    2
    14    17    16    1
    15    17    18    1
    16    21    22    1
    17    21    18    1
    18    13    16    1
    19    13    12    1
    20    10    11    1
    21    10    12    1
    22    22    24    1
    23    22    23    1
    24    20    18    2
    25    18    19    1
    26    12    15    1
