@<TRIPOS>MOLECULE
2zi6_UDP_A_1.pdb
 25 26 0 0 0
SMALL
GASTEIGER

@<TRIPOS>ATOM
      1  N1       113.4650    5.8010  -15.4020 N.am  1301  UDP1301    -0.1766
      2  C2       113.2900    4.6440  -16.1720 C.1   1301  UDP1301     0.2845
      3  N3       114.0460    4.3780  -17.2790 N.2   1301  UDP1301    -0.2452
      4  C4       115.0860    5.2440  -17.5380 C.1   1301  UDP1301     0.2182
      5  C5       115.2310    6.4460  -16.8370 C.2   1301  UDP1301     0.1242
      6  C6       114.4280    6.6990  -15.7290 C.2   1301  UDP1301     0.0929
      7  O2       112.4230    3.8400  -15.9050 O.2   1301  UDP1301    -0.1918
      8  O4       115.7820    5.0060  -18.5210 O.2   1301  UDP1301    -0.2085
      9  C1'      112.5750    6.0350  -14.2740 C.3   1301  UDP1301     0.2401
     10  C2'      113.1240    6.0170  -12.8880 C.3   1301  UDP1301     0.2319
     11  O2'      113.2210    4.7200  -12.3630 O.3   1301  UDP1301    -0.2157
     12  C3'      112.0820    6.7590  -12.0810 C.3   1301  UDP1301     0.2158
     13  C4'      111.4840    7.6920  -13.1080 C.3   1301  UDP1301     0.1799
     14  O4'      111.8770    7.2480  -14.4040 O.3   1301  UDP1301    -0.3320
     15  O3'      111.0810    5.8730  -11.6870 O.3   1301  UDP1301    -0.2175
     16  C5'      112.0880    9.0860  -12.8180 C.3   1301  UDP1301     0.1813
     17  O5'      113.5380    8.9270  -12.9330 O.3   1301  UDP1301    -0.3111
     18  PA       114.4640   10.0100  -12.2410 P.3   1301  UDP1301     0.2231
     19  O1A      114.2980   10.2090  -10.7980 O.3   1301  UDP1301    -0.4370
     20  O2A      115.8430    9.7440  -12.6630 O.2   1301  UDP1301    -0.5169
     21  O3A      114.0400   11.3730  -13.0100 O.3   1301  UDP1301    -0.2261
     22  PB       114.6650   12.8770  -12.6520 P.3   1301  UDP1301     0.5373
     23  O1B      115.6950   12.6050  -11.6140 O.3   1301  UDP1301    -0.1143
     24  O2B      113.5690   13.6840  -12.0520 O.3   1301  UDP1301    -0.1143
     25  O3B      114.9990   13.3630  -13.9430 O.2   1301  UDP1301    -0.2221
@<TRIPOS>BOND
     1     8     4    2
     2     4     3    2
     3     4     5    1
     4     3     2    2
     5     5     6    2
     6     2     7    2
     7     2     1   am
     8     6     1    1
     9     1     9    1
    10    14     9    1
    11    14    13    1
    12     9    10    1
    13    25    22    2
    14    13    16    1
    15    13    12    1
    16    21    22    1
    17    21    18    1
    18    17    16    1
    19    17    18    1
    20    10    11    1
    21    10    12    1
    22    20    18    2
    23    22    24    1
    24    22    23    1
    25    18    19    1
    26    12    15    1
