@<TRIPOS>MOLECULE
2zi6_3D1_A_1.pdb
 18 20 0 0 0
SMALL
GASTEIGER

@<TRIPOS>ATOM
      1  O5'      110.9600   19.1510   -8.3610 O.3   1302  3D11302    -0.2176
      2  C5'      109.8210   19.0380   -7.4810 C.3   1302  3D11302     0.2142
      3  C4'      108.7770   20.0700   -7.9150 C.3   1302  3D11302     0.1824
      4  O4'      109.3880   21.3790   -7.7600 O.3   1302  3D11302    -0.3154
      5  C1'      109.1170   22.1110   -8.9880 C.3   1302  3D11302     0.2874
      6  N9       110.2030   23.0970   -9.0280 N.pl3 1302  3D11302    -0.1460
      7  C4       111.4990   22.9050   -8.9100 C.2   1302  3D11302     0.3518
      8  N3       112.0890   21.6780   -8.7900 N.2   1302  3D11302    -0.0055
      9  C2       113.5170   21.5870   -8.7140 C.3   1302  3D11302     0.5254
     10  N1       114.1740   22.8350   -8.5580 N.2   1302  3D11302     0.0021
     11  C6       113.6550   24.0610   -8.6560 C.2   1302  3D11302     0.4393
     12  N6       114.3550   25.1440   -8.5790 N.pl3 1302  3D11302     0.2180
     13  C5       112.2010   24.0690   -8.8270 C.2   1302  3D11302     0.2526
     14  N7       111.2900   25.0570   -8.9130 N.2   1302  3D11302    -0.2095
     15  C8       110.0600   24.4490   -9.0450 C.3   1302  3D11302     0.3377
     16  C2'      109.1430   21.0830  -10.1000 C.3   1302  3D11302     0.1151
     17  C3'      108.4650   19.9130   -9.4170 C.3   1302  3D11302     0.1884
     18  O3'      107.0520   19.8590   -9.5830 O.3   1302  3D11302    -0.2202
@<TRIPOS>BOND
     1    16    17    1
     2    16     5    1
     3    18    17    1
     4    17     3    1
     5    15     6    1
     6    15    14    1
     7     6     5    1
     8     6     7    1
     9     5     4    1
    10    14    13    2
    11     7    13    1
    12     7     8    2
    13    13    11    1
    14     8     9    1
    15     9    10    1
    16    11    12    1
    17    11    10    2
    18     1     2    1
    19     3     4    1
    20     3     2    1
