@<TRIPOS>MOLECULE
2zi7_GNG_A_1.pdb
 19 21 0 0 0
SMALL
GASTEIGER

@<TRIPOS>ATOM
      1  O5'       -2.0020   -6.3420   -7.1000 O.3   502  GNG502     -0.2176
      2  C5'       -3.0010   -5.3080   -6.9900 C.3   502  GNG502      0.2141
      3  C4'       -2.5170   -4.0140   -6.3570 C.3   502  GNG502      0.1802
      4  O4'       -2.0990   -4.1940   -4.9450 O.3   502  GNG502     -0.3346
      5  C1'       -0.7540   -3.7180   -4.8030 C.3   502  GNG502      0.1981
      6  N9        -0.0560   -4.8030   -4.1270 N.pl3 502  GNG502     -0.2374
      7  C8        -0.0800   -6.1580   -4.3180 C.3   502  GNG502      0.2245
      8  N7         0.6660   -6.8250   -3.4920 N.2   502  GNG502     -0.2322
      9  C5         1.1820   -5.7670   -2.7120 C.2   502  GNG502      0.2182
     10  C4         0.7250   -4.5400   -3.0780 C.2   502  GNG502      0.2299
     11  N3         1.0190   -3.2870   -2.5660 N.2   502  GNG502     -0.3074
     12  C2         1.8650   -3.4050   -1.5240 C.1   502  GNG502      0.2531
     13  N1         2.3640   -4.6140   -1.0620 N.2   502  GNG502     -0.2485
     14  C6         2.0550   -5.8880   -1.6130 C.1   502  GNG502      0.2372
     15  O6         2.5250   -6.9320   -1.1800 O.2   502  GNG502     -0.2069
     16  N2         2.3090   -2.3840   -0.7970 N.pl3 502  GNG502     -0.0226
     17  C2'       -0.1720   -3.2610   -6.1100 C.3   502  GNG502      0.0865
     18  C3'       -1.4220   -3.0950   -6.9300 C.3   502  GNG502      0.1858
     19  O3'       -1.8860   -1.7870   -6.6350 O.3   502  GNG502     -0.2203
@<TRIPOS>BOND
     1     1     2    1
     2     2     3    1
     3    18    19    1
     4    18     3    1
     5    18    17    1
     6     3     4    1
     7    17     5    1
     8     4     5    1
     9     5     6    1
    10     7     6    1
    11     7     8    1
    12     6    10    1
    13     8     9    2
    14    10     9    1
    15    10    11    2
    16     9    14    1
    17    11    12    2
    18    14    15    2
    19    14    13    2
    20    12    13    2
    21    12    16    1
