@<TRIPOS>MOLECULE
2zi7_UDP_A_1.pdb
 25 26 0 0 0
SMALL
GASTEIGER

@<TRIPOS>ATOM
      1  N1        -3.9950   -4.9030  -20.3610 N.am  301  UDP301     -0.1766
      2  C2        -4.1420   -4.7400  -21.7560 C.1   301  UDP301      0.2845
      3  N3        -3.5430   -5.5910  -22.6370 N.2   301  UDP301     -0.2452
      4  C4        -2.7770   -6.5960  -22.1060 C.1   301  UDP301      0.2182
      5  C5        -2.5930   -6.7980  -20.7170 C.2   301  UDP301      0.1242
      6  C6        -3.2300   -5.9170  -19.8540 C.2   301  UDP301      0.0929
      7  O2        -4.8010   -3.8230  -22.2240 O.2   301  UDP301     -0.1918
      8  O4        -2.2260   -7.3340  -22.8940 O.2   301  UDP301     -0.2085
      9  C1'       -4.6980   -3.9860  -19.4550 C.3   301  UDP301      0.2401
     10  C2'       -5.7350   -4.6710  -18.5820 C.3   301  UDP301      0.2319
     11  O2'       -6.9700   -4.6950  -19.1860 O.3   301  UDP301     -0.2157
     12  C3'       -5.8360   -3.7820  -17.3710 C.3   301  UDP301      0.2158
     13  C4'       -4.4280   -3.2590  -17.2440 C.3   301  UDP301      0.1799
     14  O4'       -3.8290   -3.3430  -18.5430 O.3   301  UDP301     -0.3320
     15  O3'       -6.5820   -2.6830  -17.8130 O.3   301  UDP301     -0.2175
     16  C5'       -3.5340   -4.0090  -16.2400 C.3   301  UDP301      0.1813
     17  O5'       -3.6290   -5.4880  -16.5500 O.3   301  UDP301     -0.3111
     18  PA        -3.9870   -6.3530  -15.3490 P.3   301  UDP301      0.2231
     19  O1A       -5.0090   -5.9430  -14.4380 O.3   301  UDP301     -0.4370
     20  O2A       -4.1000   -7.8180  -15.7770 O.2   301  UDP301     -0.5169
     21  O3A       -2.6170   -6.2990  -14.4800 O.3   301  UDP301     -0.2261
     22  PB        -2.1430   -6.7780  -12.9860 P.3   301  UDP301      0.5373
     23  O1B       -2.9180   -7.9390  -12.4890 O.3   301  UDP301     -0.1143
     24  O2B       -2.0500   -5.6550  -12.0400 O.3   301  UDP301     -0.1143
     25  O3B       -0.7690   -7.1050  -13.3310 O.2   301  UDP301     -0.2221
@<TRIPOS>BOND
     1     8     4    2
     2     3     4    2
     3     3     2    2
     4     7     2    2
     5     4     5    1
     6     2     1   am
     7     5     6    2
     8     1     6    1
     9     1     9    1
    10     9    10    1
    11     9    14    1
    12    11    10    1
    13    10    12    1
    14    14    13    1
    15    15    12    1
    16    12    13    1
    17    13    16    1
    18    17    16    1
    19    17    18    1
    20    20    18    2
    21    18    21    1
    22    18    19    1
    23    21    22    1
    24    25    22    2
    25    22    23    1
    26    22    24    1
