@<TRIPOS>MOLECULE
2zi8_SDT_A_1.pdb
 23 25 0 0 0
SMALL
GASTEIGER

@<TRIPOS>ATOM
      1  OAD       77.8970   35.5400   13.9510 O.2   702  SDT702     -0.2961
      2  CAP       77.5280   34.4370   13.5220 C.2   702  SDT702      0.1499
      3  CAI       76.0990   33.9090   13.6550 C.3   702  SDT702      0.0645
      4  CAL       76.1670   32.5280   12.9270 C.3   702  SDT702      0.0086
      5  CAV       77.6500   32.1420   13.0400 C.3   702  SDT702      0.0139
      6  CAW       78.4200   33.4540   12.7820 C.3   702  SDT702      0.0523
      7  CAB       78.4180   33.9120   11.3040 C.3   702  SDT702      0.0074
      8  CAN       79.8420   33.3270   13.3710 C.3   702  SDT702      0.0147
      9  CAJ       80.5730   32.0690   12.8570 C.3   702  SDT702      0.0649
     10  CAU       78.2030   30.9490   12.2360 C.3   702  SDT702      0.0584
     11  CAO       79.6920   30.8450   12.5870 C.2   702  SDT702      0.1503
     12  OAC       80.2630   29.7760   12.6550 O.2   702  SDT702     -0.2961
     13  CAM       77.3720   29.6380   12.3610 C.3   702  SDT702      0.0121
     14  CAK       77.1280   29.1740   13.7990 C.3   702  SDT702      0.0298
     15  CAT       76.1440   28.0160   13.9850 C.ar  702  SDT702      0.0161
     16  CAS       76.6580   26.7210   14.2570 C.ar  702  SDT702      0.2299
     17  OAF       78.0280   26.5070   14.2840 O.3   702  SDT702     -0.2835
     18  CAR       75.7790   25.6160   14.4890 C.ar  702  SDT702      0.2339
     19  OAE       76.2680   24.3940   14.7350 O.3   702  SDT702     -0.2832
     20  CAH       74.4090   25.7240   14.4640 C.ar  702  SDT702      0.0451
     21  CAG       73.9030   27.0110   14.2080 C.ar  702  SDT702     -0.0011
     22  CAQ       74.7190   28.1380   13.9830 C.ar  702  SDT702     -0.0225
     23  CAA       73.9630   29.4160   13.7150 C.3   702  SDT702      0.0308
@<TRIPOS>BOND
     1     7     6    1
     2    10    13    1
     3    10    11    1
     4    10     5    1
     5    13    14    1
     6    11    12    2
     7    11     9    1
     8     6     5    1
     9     6     8    1
    10     6     2    1
    11     9     8    1
    12     4     5    1
    13     4     3    1
    14     2     3    1
    15     2     1    2
    16    23    22    1
    17    14    15    1
    18    22    15   ar
    19    22    21   ar
    20    15    16   ar
    21    21    20   ar
    22    16    17    1
    23    16    18   ar
    24    20    18   ar
    25    18    19    1
