@<TRIPOS>MOLECULE
2zi9_ADP_A_1.pdb
 27 29 0 0 0
SMALL
GASTEIGER

@<TRIPOS>ATOM
      1  PB        52.2720   55.0890   99.7500 P.3   301  ADP301      0.5373
      2  O1B       51.2840   55.0660   98.6210 O.2   301  ADP301     -0.2221
      3  O2B       51.7130   54.6900  101.1060 O.3   301  ADP301     -0.1143
      4  O3B       53.1690   56.3020   99.8520 O.3   301  ADP301     -0.1143
      5  PA        53.3640   52.9900   98.0260 P.3   301  ADP301      0.2231
      6  O1A       52.1630   52.0400   98.0330 O.3   301  ADP301     -0.4370
      7  O2A       53.6070   53.7560   96.7500 O.2   301  ADP301     -0.5169
      8  O3A       53.3440   53.9450   99.3390 O.3   301  ADP301     -0.2261
      9  O5'       54.6920   52.2140   98.4410 O.3   301  ADP301     -0.3111
     10  C5'       55.9810   52.8370   98.5250 C.3   301  ADP301      0.1813
     11  C4'       57.0700   51.9040   97.9770 C.3   301  ADP301      0.1821
     12  O4'       57.3240   50.8030   98.8570 O.3   301  ADP301     -0.3135
     13  C3'       56.6250   51.2580   96.6650 C.3   301  ADP301      0.2184
     14  O3'       57.7650   50.8750   95.9290 O.3   301  ADP301     -0.2174
     15  C2'       55.8690   50.0210   97.1230 C.3   301  ADP301      0.2570
     16  O2'       55.6860   49.0570   96.0980 O.3   301  ADP301     -0.2130
     17  C1'       56.7550   49.5910   98.2840 C.3   301  ADP301      0.3186
     18  N9        55.9960   48.8550   99.2990 N.pl3 301  ADP301     -0.1439
     19  C8        54.7230   49.0230   99.7450 C.3   301  ADP301      0.3377
     20  N7        54.4420   48.1110  100.7320 N.2   301  ADP301     -0.2095
     21  C5        55.5580   47.3550  100.8800 C.2   301  ADP301      0.2526
     22  C6        55.9830   46.2080  101.7350 C.2   301  ADP301      0.4393
     23  N6        55.2060   45.6850  102.5870 N.pl3 301  ADP301      0.2180
     24  N1        57.2210   45.7270  101.5990 N.2   301  ADP301      0.0021
     25  C2        58.2010   46.2440  100.6650 C.3   301  ADP301      0.5254
     26  N3        57.7100   47.3610   99.8610 N.2   301  ADP301     -0.0055
     27  C4        56.4680   47.8530   99.9930 C.2   301  ADP301      0.3518
@<TRIPOS>BOND
     1    14    13    1
     2    16    15    1
     3    13    15    1
     4    13    11    1
     5     7     5    2
     6    15    17    1
     7    11    10    1
     8    11    12    1
     9     5     6    1
    10     5     9    1
    11     5     8    1
    12    17    12    1
    13    17    18    1
    14     9    10    1
    15     2     1    2
    16    18    19    1
    17    18    27    1
    18     8     1    1
    19    19    20    1
    20     1     4    1
    21     1     3    1
    22    26    27    2
    23    26    25    1
    24    27    21    1
    25    25    24    1
    26    20    21    2
    27    21    22    1
    28    24    22    2
    29    22    23    1
