@<TRIPOS>MOLECULE
2zi9_CL9_A_1.pdb
 19 21 0 0 0
SMALL
GASTEIGER

@<TRIPOS>ATOM
      1  C2        51.6650   67.6120  101.4690 C.1   401  CL9401      0.2076
      2  C4        51.1760   65.6650  100.3950 C.2   401  CL9401      0.2210
      3  C5        49.8550   65.7780  100.7980 C.2   401  CL9401      0.1706
      4  C6        49.4590   66.8530  101.5490 C.2   401  CL9401      0.2532
      5  C8        50.0840   63.9800   99.6460 C.3   401  CL9401      0.2238
      6 CL         52.8630   68.8510  101.8870 Cl    401  CL9401      0.0245
      7  N3        52.0790   66.5860  100.7300 N.2   401  CL9401     -0.3137
      8  N9        51.2930   64.5520   99.7070 N.pl3 401  CL9401     -0.2380
      9  N7        49.1890   64.7290  100.3280 N.2   401  CL9401     -0.2401
     10  N6        48.1820   66.9720  101.9520 N.pl3 401  CL9401     -0.0904
     11  N1        50.3830   67.7690  101.8770 N.2   401  CL9401     -0.3106
     12  C1'       52.5180   64.0730   99.0510 C.3   401  CL9401      0.1981
     13  C2'       53.5000   63.3740   99.9500 C.3   401  CL9401      0.0865
     14  C3'       54.1710   62.4450   98.9660 C.3   401  CL9401      0.1858
     15  O3'       55.2510   63.1770   98.3830 O.3   401  CL9401     -0.2203
     16  C4'       53.1500   62.1830   97.8750 C.3   401  CL9401      0.1802
     17  O4'       52.1190   63.1200   98.0760 O.3   401  CL9401     -0.3346
     18  C5'       52.4660   60.8420   97.9520 C.3   401  CL9401      0.2141
     19  O5'       51.2860   61.0880   98.7010 O.3   401  CL9401     -0.2176
@<TRIPOS>BOND
     1    16    18    1
     2    16    17    1
     3    16    14    1
     4    18    19    1
     5    17    12    1
     6    15    14    1
     7    14    13    1
     8    12     8    1
     9    12    13    1
    10     5     8    1
    11     5     9    1
    12     8     2    1
    13     9     3    2
    14     2     7    2
    15     2     3    1
    16     7     1    2
    17     3     4    1
    18     1    11    2
    19     1     6    1
    20     4    11    2
    21     4    10    1
