@<TRIPOS>MOLECULE
2zia_UDP_A_1.pdb
 25 26 0 0 0
SMALL
GASTEIGER

@<TRIPOS>ATOM
      1  N1         3.2190    8.5730   47.5440 N.am  301  UDP301     -0.1766
      2  C2         3.8390    8.8070   48.7800 C.1   301  UDP301      0.2845
      3  N3         5.0340    8.2260   49.1110 N.2   301  UDP301     -0.2452
      4  C4         5.5980    7.3960   48.1780 C.1   301  UDP301      0.2182
      5  C5         5.0100    7.1290   46.9270 C.2   301  UDP301      0.1242
      6  C6         3.7970    7.7510   46.6290 C.2   301  UDP301      0.0929
      7  O2         3.3270    9.5300   49.5820 O.2   301  UDP301     -0.1918
      8  O4         6.6660    6.8740   48.4570 O.2   301  UDP301     -0.2085
      9  C1'        1.9490    9.2080   47.2260 C.3   301  UDP301      0.2401
     10  C2'        2.0030   10.1660   46.0670 C.3   301  UDP301      0.2319
     11  O2'        2.3340   11.4340   46.5050 O.3   301  UDP301     -0.2157
     12  C3'        0.5740   10.1910   45.5470 C.3   301  UDP301      0.2158
     13  C4'        0.1480    8.7660   45.8550 C.3   301  UDP301      0.1799
     14  O4'        0.9990    8.2180   46.8700 O.3   301  UDP301     -0.3320
     15  O3'       -0.1510   11.0150   46.3910 O.3   301  UDP301     -0.2175
     16  C5'        0.1640    7.9380   44.5490 C.3   301  UDP301      0.1813
     17  O5'        1.5790    7.9130   44.0280 O.3   301  UDP301     -0.3111
     18  PA         1.7370    8.2360   42.4860 P.3   301  UDP301      0.2231
     19  O1A        0.9450    9.3160   41.8620 O.2   301  UDP301     -0.5169
     20  O2A        3.1140    8.3430   42.1170 O.3   301  UDP301     -0.4370
     21  O3A        1.2250    6.8180   41.8600 O.3   301  UDP301     -0.2261
     22  PB         0.9930    6.2740   40.3320 P.3   301  UDP301      0.5373
     23  O1B        1.6800    7.1490   39.3860 O.2   301  UDP301     -0.2221
     24  O2B       -0.4800    6.1960   40.1380 O.3   301  UDP301     -0.1143
     25  O3B        1.3990    4.8850   40.4330 O.3   301  UDP301     -0.1143
@<TRIPOS>BOND
     1    23    22    2
     2    24    22    1
     3    22    25    1
     4    22    21    1
     5    21    18    1
     6    19    18    2
     7    20    18    1
     8    18    17    1
     9    17    16    1
    10    16    13    1
    11    12    13    1
    12    12    10    1
    13    12    15    1
    14    13    14    1
    15    10    11    1
    16    10     9    1
    17     6     5    2
    18     6     1    1
    19    14     9    1
    20     5     4    1
    21     9     1    1
    22     1     2   am
    23     4     8    2
    24     4     3    2
    25     2     3    2
    26     2     7    2
