@<TRIPOS>MOLECULE
2zia_CL9_A_1.pdb
 19 21 0 0 0
SMALL
GASTEIGER

@<TRIPOS>ATOM
      1  C2        -8.4550    1.9730   32.6030 C.1   401  CL9401      0.2076
      2  C4        -6.6890    3.1840   33.1760 C.2   401  CL9401      0.2210
      3  C5        -6.0290    2.6890   32.0760 C.2   401  CL9401      0.1706
      4  C6        -6.6630    1.7890   31.2090 C.2   401  CL9401      0.2532
      5  C8        -4.7530    4.0860   33.1770 C.3   401  CL9401      0.2238
      6 CL        -10.0480    1.5600   33.0620 Cl    401  CL9401      0.0245
      7  N3        -7.9280    2.8250   33.4620 N.2   401  CL9401     -0.3137
      8  N9        -5.8990    4.0030   33.8370 N.pl3 401  CL9401     -0.2380
      9  N7        -4.8200    3.2550   32.1200 N.2   401  CL9401     -0.2401
     10  N6        -6.0930    1.2660   30.1040 N.pl3 401  CL9401     -0.0904
     11  N1        -7.9090    1.4670   31.4860 N.2   401  CL9401     -0.3106
     12  C1'       -6.3600    4.7180   35.0300 C.3   401  CL9401      0.1981
     13  C2'       -5.8350    4.2170   36.3660 C.3   401  CL9401      0.0865
     14  C3'       -5.7250    5.5110   37.1560 C.3   401  CL9401      0.1858
     15  O3'       -6.9970    5.6880   37.7820 O.3   401  CL9401     -0.2203
     16  C4'       -5.5200    6.6140   36.1390 C.3   401  CL9401      0.1802
     17  O4'       -5.9210    6.0830   34.8600 O.3   401  CL9401     -0.3346
     18  C5'       -4.0850    7.0940   36.0260 C.3   401  CL9401      0.2141
     19  O5'       -3.2720    5.9340   35.9540 O.3   401  CL9401     -0.2176
@<TRIPOS>BOND
     1    10     4    1
     2     4    11    2
     3     4     3    1
     4    11     1    2
     5     3     9    2
     6     3     2    1
     7     9     5    1
     8     1     6    1
     9     1     7    2
    10     2     7    2
    11     2     8    1
    12     5     8    1
    13     8    12    1
    14    17    12    1
    15    17    16    1
    16    12    13    1
    17    19    18    1
    18    18    16    1
    19    16    14    1
    20    13    14    1
    21    14    15    1
