@<TRIPOS>MOLECULE
2zid_GLC_A_1.pdb
 11 11 0 0 0
SMALL
GASTEIGER

@<TRIPOS>ATOM
      1  C1        13.1800    2.3590   10.2670 C.3   877  GLC877      0.1777
      2  C2        12.6470    3.7880   10.1740 C.3   877  GLC877      0.2141
      3  C3        13.4010    4.4790    9.0410 C.3   877  GLC877      0.2173
      4  C4        14.8820    4.5460    9.4320 C.3   877  GLC877      0.2142
      5  C5        15.4450    3.1440    9.7460 C.3   877  GLC877      0.1810
      6  C6        16.7610    3.2680   10.4850 C.3   877  GLC877      0.2141
      7  O2        11.2490    3.7850    9.9280 O.3   877  GLC877     -0.2176
      8  O3        12.8790    5.7810    8.8190 O.3   877  GLC877     -0.2175
      9  O4        15.6380    5.1290    8.3770 O.3   877  GLC877     -0.2176
     10  O5        14.5670    2.3910   10.6250 O.3   877  GLC877     -0.3481
     11  O6        16.5710    3.8760   11.7600 O.3   877  GLC877     -0.2176
@<TRIPOS>BOND
     1     9     4    1
     2     8     3    1
     3     3     4    1
     4     3     2    1
     5     4     5    1
     6     5     6    1
     7     5    10    1
     8     7     2    1
     9     2     1    1
    10     1    10    1
    11     6    11    1
