@<TRIPOS>MOLECULE
2zif_SAM_A_1.pdb
 27 29 0 0 0
SMALL
GASTEIGER

@<TRIPOS>ATOM
      1  N         20.8660   24.8210   74.5340 N.3   298  SAM298     -0.1159
      2  CA        19.5740   25.3540   74.9840 C.3   298  SAM298      0.2168
      3  C         18.9710   24.5510   76.1480 C.2   298  SAM298      0.3860
      4  O         17.8670   24.8870   76.5870 O.co2 298  SAM298     -0.2437
      5  OXT       19.6340   23.6070   76.5930 O.co2 298  SAM298     -0.2437
      6  CB        18.5250   25.3690   73.8410 C.2   298  SAM298      0.0097
      7  CG        17.4130   26.3820   73.1220 C.2   298  SAM298      0.0191
      8  SD        16.5250   25.9000   71.5850 S.3   298  SAM298     -0.1536
      9  CE        17.8460   25.7190   70.3450 C.3   298  SAM298      0.0636
     10  C5'       15.5520   27.3490   71.1220 C.3   298  SAM298      0.0847
     11  C4'       14.3400   27.6230   72.0270 C.3   298  SAM298      0.1625
     12  O4'       13.6610   28.7960   71.6280 O.3   298  SAM298     -0.3153
     13  C3'       13.2810   26.5040   72.0860 C.3   298  SAM298      0.2168
     14  O3'       13.2050   25.8890   73.3660 O.3   298  SAM298     -0.2175
     15  C2'       12.0230   27.1670   71.5290 C.3   298  SAM298      0.2569
     16  O2'       10.8520   26.8110   72.2670 O.3   298  SAM298     -0.2130
     17  C1'       12.2790   28.6460   71.8320 C.3   298  SAM298      0.3185
     18  N9        11.6400   29.6250   70.9350 N.pl3 298  SAM298     -0.1439
     19  C8        11.2300   29.6480   69.6440 C.3   298  SAM298      0.3377
     20  N7        10.7800   30.8450   69.2470 N.2   298  SAM298     -0.2095
     21  C5        10.8990   31.6840   70.3580 C.2   298  SAM298      0.2526
     22  C6        10.6470   33.0130   70.6820 C.2   298  SAM298      0.4393
     23  N6        10.1360   33.8840   69.7740 N.pl3 298  SAM298      0.2180
     24  N1        10.9100   33.4980   71.9460 N.2   298  SAM298      0.0021
     25  C2        11.4190   32.6720   72.8860 C.3   298  SAM298      0.5254
     26  N3        11.6930   31.3730   72.6540 N.2   298  SAM298     -0.0055
     27  C4        11.4330   30.9070   71.4040 C.2   298  SAM298      0.3518
@<TRIPOS>BOND
     1    20    19    1
     2    20    21    2
     3    19    18    1
     4    23    22    1
     5     9     8    1
     6    21    22    1
     7    21    27    1
     8    22    24    2
     9    18    27    1
    10    18    17    1
    11    10     8    1
    12    10    11    1
    13    27    26    2
    14    15    17    1
    15    15    13    1
    16    15    16    1
    17     8     7    1
    18    12    17    1
    19    12    11    1
    20    24    25    1
    21    11    13    1
    22    13    14    1
    23    26    25    1
    24     7     6    2
    25     6     2    1
    26     1     2    1
    27     2     3    1
    28     3     4   ar
    29     3     5   ar
