@<TRIPOS>MOLECULE
2zim_YLY_A_1.pdb
 40 43 0 0 0
SMALL
GASTEIGER

@<TRIPOS>ATOM
      1  C4        14.7900   36.4490   33.9700 C.2     1  YLY1        0.3518
      2  C5        14.8750   36.4340   35.3510 C.2     1  YLY1        0.2526
      3  C6        15.8700   35.6530   35.9380 C.2     1  YLY1        0.4393
      4  C8        13.2130   37.7700   34.7830 C.3     1  YLY1        0.3377
      5  N1        16.7040   34.9650   35.1470 N.2     1  YLY1        0.0021
      6  N3        15.6430   35.7270   33.2040 N.2     1  YLY1       -0.0055
      7  CAA        9.4450   50.1840   30.8550 C.3     1  YLY1        0.0020
      8  CBF        8.1040   50.8840   30.7760 C.3     1  YLY1        0.0264
      9  CAP        8.0580   51.9860   31.8020 C.3     1  YLY1        0.0207
     10  CAJ        7.6040   51.1870   33.0050 C.3     1  YLY1        0.0893
     11  NAS        7.4460   49.9450   32.7470 N.3     1  YLY1       -0.2102
     12  CBK        7.1800   49.8360   31.3210 C.3     1  YLY1        0.1503
     13  CBA        7.2020   48.4860   30.6790 C.2     1  YLY1        0.2572
     14  OAD        7.5840   48.2910   29.5140 O.2     1  YLY1       -0.2718
     15  NAW        6.5800   47.5830   31.4270 N.am    1  YLY1       -0.2043
     16  CAO        6.0310   46.3730   30.8240 C.3     1  YLY1        0.1152
     17  CAM        6.6440   45.0870   31.4130 C.3     1  YLY1        0.0235
     18  CAN        8.1850   45.1190   31.4450 C.3     1  YLY1        0.0039
     19  CB         8.8850   44.0340   32.2750 C.3     1  YLY1        0.0305
     20  CA         8.7360   44.1060   33.8130 C.3     1  YLY1        0.1903
     21  N          9.2800   45.3380   34.3680 N.3     1  YLY1       -0.1210
     22  C          9.5120   42.9320   34.3490 C.2     1  YLY1        0.3385
     23  O         10.5120   43.1130   35.0420 O.2     1  YLY1       -0.2482
     24  OAY        9.0190   41.5980   33.9870 O.3     1  YLY1       -0.4091
     25  PBN        9.4670   40.1590   34.5450 P.3     1  YLY1        0.2723
     26  OAI        8.5220   39.2240   33.9420 O.2     1  YLY1       -0.5082
     27  OAF        9.7510   40.2310   36.0120 O.3     1  YLY1       -0.4273
     28  O5'       10.8420   40.1520   33.6930 O.3     1  YLY1       -0.3024
     29  C5'       10.7670   40.1110   32.2500 C.3     1  YLY1        0.1823
     30  C4'       11.5770   38.9400   31.6920 C.3     1  YLY1        0.1822
     31  O4'       12.9200   38.9430   32.2130 O.3     1  YLY1       -0.3135
     32  C3'       11.0250   37.5910   32.1270 C.3     1  YLY1        0.2184
     33  O3'        9.9550   37.1500   31.3000 O.3     1  YLY1       -0.2174
     34  C2'       12.2160   36.6770   31.9390 C.3     1  YLY1        0.2570
     35  O2'       12.2800   36.3310   30.5700 O.3     1  YLY1       -0.2130
     36  C1'       13.3690   37.5760   32.2600 C.3     1  YLY1        0.3186
     37  N9        13.7770   37.2870   33.6510 N.pl3   1  YLY1       -0.1439
     38  N7        13.8890   37.2460   35.8430 N.2     1  YLY1       -0.2095
     39  C2        16.5900   34.9930   33.8070 C.3     1  YLY1        0.5254
     40  N6        16.0190   35.6410   37.2740 N.pl3   1  YLY1        0.2180
@<TRIPOS>BOND
     1    14    13    2
     2    35    34    1
     3    13    12    1
     4    13    15   am
     5     8     7    1
     6     8    12    1
     7     8     9    1
     8    16    17    1
     9    16    15    1
    10    33    32    1
    11    12    11    1
    12    17    18    1
    13    18    19    1
    14    30    32    1
    15    30    31    1
    16    30    29    1
    17     9    10    1
    18    34    32    1
    19    34    36    1
    20    31    36    1
    21    29    28    1
    22    36    37    1
    23    19    20    1
    24    11    10    1
    25     6    39    1
    26     6     1    2
    27    37     1    1
    28    37     4    1
    29    28    25    1
    30    39     5    1
    31    20    22    1
    32    20    21    1
    33    26    25    2
    34     1     2    1
    35    24    22    1
    36    24    25    1
    37    22    23    2
    38    25    27    1
    39     4    38    1
    40     5     3    2
    41     2    38    2
    42     2     3    1
    43     3    40    1
