@<TRIPOS>MOLECULE
2zin_ANP_A_1.pdb
 31 33 0 0 0
SMALL
GASTEIGER

@<TRIPOS>ATOM
      1  PG        -9.2980   34.2520   -7.9010 P.3   501  ANP501      0.4884
      2  O1G      -10.2440   34.3780   -9.0330 O.2   501  ANP501     -0.2331
      3  O2G       -9.7600   33.1100   -6.8680 O.3   501  ANP501     -0.1240
      4  O3G       -7.8280   33.8060   -8.3830 O.3   501  ANP501     -0.1240
      5  PB        -8.9200   37.0070   -7.8710 P.3   501  ANP501      0.4669
      6  O1B       -9.8750   37.3190   -8.9540 O.2   501  ANP501     -0.2351
      7  O2B       -7.5580   37.5790   -7.7950 O.3   501  ANP501     -0.1253
      8  N3B       -9.1120   35.6210   -7.0350 N.3   501  ANP501     -0.0163
      9  PA        -9.4240   39.4590   -6.3850 P.3   501  ANP501      0.2220
     10  O1A       -8.1350   39.6530   -5.6840 O.3   501  ANP501     -0.4370
     11  O2A       -9.6790   40.2810   -7.5900 O.2   501  ANP501     -0.5170
     12  O3A       -9.6210   37.8850   -6.7050 O.3   501  ANP501     -0.2360
     13  O5'      -10.6140   39.7570   -5.3380 O.3   501  ANP501     -0.3111
     14  C5'      -10.4040   39.7400   -3.9230 C.3   501  ANP501      0.1813
     15  C4'      -11.2150   38.6280   -3.2520 C.3   501  ANP501      0.1821
     16  O4'      -12.5900   38.6570   -3.6680 O.3   501  ANP501     -0.3135
     17  C3'      -10.7260   37.2370   -3.6520 C.3   501  ANP501      0.2184
     18  O3'       -9.5940   36.8960   -2.8460 O.3   501  ANP501     -0.2174
     19  C2'      -11.9380   36.4120   -3.2190 C.3   501  ANP501      0.2570
     20  O2'      -11.9770   36.2340   -1.8000 O.3   501  ANP501     -0.2130
     21  C1'      -13.0980   37.3100   -3.6550 C.3   501  ANP501      0.3186
     22  N9       -13.5560   36.9690   -5.0230 N.pl3 501  ANP501     -0.1439
     23  C8       -13.0250   37.3950   -6.1700 C.3   501  ANP501      0.3377
     24  N7       -13.7360   36.9250   -7.1940 N.2   501  ANP501     -0.2095
     25  C5       -14.7270   36.1880   -6.6970 C.2   501  ANP501      0.2526
     26  C6       -15.7670   35.4480   -7.2500 C.2   501  ANP501      0.4393
     27  N6       -15.9420   35.4100   -8.5680 N.pl3 501  ANP501      0.2180
     28  N1       -16.6020   34.7840   -6.4350 N.2   501  ANP501      0.0021
     29  C2       -16.4560   34.8210   -5.1200 C.3   501  ANP501      0.5254
     30  N3       -15.4810   35.5180   -4.5610 N.2   501  ANP501     -0.0055
     31  C4       -14.6090   36.2090   -5.3130 C.2   501  ANP501      0.3518
@<TRIPOS>BOND
     1     2     1    2
     2     6     5    2
     3    27    26    1
     4     4     1    1
     5     1     8    1
     6     1     3    1
     7     5     7    1
     8     5     8    1
     9     5    12    1
    10    11     9    2
    11    26    25    1
    12    26    28    2
    13    24    25    2
    14    24    23    1
    15    12     9    1
    16    25    31    1
    17    28    29    1
    18     9    10    1
    19     9    13    1
    20    23    22    1
    21    13    14    1
    22    31    22    1
    23    31    30    2
    24    29    30    1
    25    22    21    1
    26    14    15    1
    27    16    21    1
    28    16    15    1
    29    21    19    1
    30    17    15    1
    31    17    19    1
    32    17    18    1
    33    19    20    1
