@<TRIPOS>MOLECULE
2zin_LBY_A_1.pdb
 17 16 0 0 0
SMALL
GASTEIGER

@<TRIPOS>ATOM
      1  C1        -8.9360   50.1350   -2.3600 C.3   601  LBY601      0.0437
      2  CT        -7.4690   50.1900   -2.7950 C.3   601  LBY601      0.1379
      3  C2        -6.6550   51.0230   -1.8000 C.3   601  LBY601      0.0437
      4  C3        -7.3640   50.8200   -4.1840 C.3   601  LBY601      0.0437
      5  O2        -6.9580   48.8520   -2.8660 O.3   601  LBY601     -0.4408
      6  CZ        -6.9050   48.2690   -1.6350 C.2   601  LBY601      0.4209
      7  O1        -7.3190   48.8860   -0.6560 O.2   601  LBY601     -0.2246
      8  NZ        -6.4740   47.0160   -1.5330 N.am  601  LBY601     -0.1687
      9  CE        -6.0820   46.2240   -2.7040 C.3   601  LBY601      0.1187
     10  CD        -7.0780   45.0650   -2.7920 C.3   601  LBY601      0.0236
     11  CG        -7.0750   44.4440   -4.1880 C.3   601  LBY601      0.0039
     12  CB        -8.2570   43.4890   -4.3660 C.3   601  LBY601      0.0307
     13  CA        -8.3790   43.0870   -5.8370 C.3   601  LBY601      0.1943
     14  C         -8.4920   44.3600   -6.6800 C.2   601  LBY601      0.3819
     15  OXT       -9.3850   45.1740   -6.3590 O.co2 601  LBY601     -0.2441
     16  O         -7.6740   44.5000   -7.6140 O.co2 601  LBY601     -0.2441
     17  N         -7.1790   42.3380   -6.2390 N.3   601  LBY601     -0.1208
@<TRIPOS>BOND
     1    16    14   ar
     2    14    15   ar
     3    14    13    1
     4    17    13    1
     5    13    12    1
     6    12    11    1
     7    11    10    1
     8     4     2    1
     9     5     2    1
    10     5     6    1
    11     2     1    1
    12     2     3    1
    13    10     9    1
    14     9     8    1
    15     6     8   am
    16     6     7    2
