@<TRIPOS>MOLECULE
2zio_AYB_A_1.pdb
 38 40 0 0 0
SMALL
GASTEIGER

@<TRIPOS>ATOM
      1  C4        14.3600   35.8010    4.5170 C.2   601  AYB601      0.3518
      2  C5        14.6200   35.7640    5.8790 C.2   601  AYB601      0.2526
      3  C6        15.6180   34.9110    6.3330 C.2   601  AYB601      0.4393
      4  C8        13.0450   37.1840    5.5200 C.3   601  AYB601      0.3377
      5  N1        16.2860   34.1590    5.4460 N.2   601  AYB601      0.0021
      6  N3        15.0680   35.0210    3.6880 N.2   601  AYB601     -0.0055
      7  CAA        6.6720   51.9000    1.6540 C.3   601  AYB601      0.0040
      8  CAJ        7.6520   51.0990    2.2300 C.3   601  AYB601      0.0475
      9  CAO        7.3020   50.1690    3.2020 C.3   601  AYB601      0.2102
     10  OAW        7.1680   48.8700    2.6080 O.3   601  AYB601     -0.4335
     11  CBA        6.6870   47.9950    3.5320 C.2   601  AYB601      0.4211
     12  OAD        6.4230   48.4120    4.6590 O.2   601  AYB601     -0.2246
     13  NAV        6.4780   46.7310    3.1730 N.am  601  AYB601     -0.1687
     14  CAP        6.7370   46.2360    1.8130 C.3   601  AYB601      0.1187
     15  CAM        6.3450   44.7590    1.7350 C.3   601  AYB601      0.0236
     16  CAN        7.5990   43.8820    1.7400 C.3   601  AYB601      0.0039
     17  CB         7.6870   42.9180    2.9260 C.3   601  AYB601      0.0305
     18  CA         8.8330   43.2750    3.8760 C.3   601  AYB601      0.1903
     19  N          9.9960   43.7400    3.1070 N.3   601  AYB601     -0.1210
     20  C          9.2280   42.0680    4.7300 C.2   601  AYB601      0.3385
     21  O         10.2720   42.0790    5.3800 O.2   601  AYB601     -0.2482
     22  OAY        8.3570   41.0230    4.6880 O.3   601  AYB601     -0.4091
     23  PBL        8.8230   39.8430    5.6860 P.3   601  AYB601      0.2723
     24  OAI        9.6580   40.4050    6.7740 O.3   601  AYB601     -0.4273
     25  OAF        7.8220   38.6240    5.9930 O.2   601  AYB601     -0.5082
     26  O5'        9.9900   39.1940    4.7890 O.3   601  AYB601     -0.3024
     27  C5'        9.8640   39.2090    3.3650 C.3   601  AYB601      0.1823
     28  C4'       10.8250   38.1990    2.7370 C.3   601  AYB601      0.1822
     29  O4'       12.1800   38.3650    3.1820 O.3   601  AYB601     -0.3135
     30  C3'       10.5070   36.7820    3.2080 C.3   601  AYB601      0.2184
     31  O3'        9.3000   36.3460    2.5770 O.3   601  AYB601     -0.2174
     32  C2'       11.7290   36.1300    2.5640 C.3   601  AYB601      0.2570
     33  O2'       11.6340   36.2020    1.1390 O.3   601  AYB601     -0.2130
     34  C1'       12.8290   37.0900    3.0210 C.3   601  AYB601      0.3186
     35  N9        13.3870   36.6890    4.3320 N.pl3 601  AYB601     -0.1439
     36  N7        13.7950   36.6250    6.4680 N.2   601  AYB601     -0.2095
     37  C2        16.0090   34.2210    4.1550 C.3   601  AYB601      0.5254
     38  N6        15.9140   34.8540    7.6280 N.pl3 601  AYB601      0.2180
@<TRIPOS>BOND
     1    33    32    1
     2     7     8    1
     3    15    16    1
     4    15    14    1
     5    16    17    1
     6    14    13    1
     7     8     9    1
     8    32    34    1
     9    32    30    1
    10    31    30    1
    11    10     9    1
    12    10    11    1
    13    28    29    1
    14    28    30    1
    15    28    27    1
    16    17    18    1
    17    34    29    1
    18    34    35    1
    19    19    18    1
    20    13    11   am
    21    27    26    1
    22    11    12    2
    23     6    37    1
    24     6     1    2
    25    18    20    1
    26    37     5    1
    27    35     1    1
    28    35     4    1
    29     1     2    1
    30    22    20    1
    31    22    23    1
    32    20    21    2
    33    26    23    1
    34     5     3    2
    35     4    36    1
    36    23    25    2
    37    23    24    1
    38     2     3    1
    39     2    36    2
    40     3    38    1
