@<TRIPOS>MOLECULE
2ziq_26U_H_1.pdb
 25 26 0 0 0
SMALL
GASTEIGER

@<TRIPOS>ATOM
      1  C15       19.0120  -14.9240   23.2470 C.3   701  26U701      0.0856
      2  C33       19.4150  -14.5590   24.7030 C.3   701  26U701      0.0096
      3  C17       20.5980  -13.5750   24.9030 C.3   701  26U701      0.0005
      4  C12       21.9850  -14.1370   24.4860 C.3   701  26U701      0.0000
      5  C49       20.6740  -12.9550   26.3300 C.3   701  26U701      0.0000
      6  C14       18.3400  -13.8000   22.4840 C.2   701  26U701      0.2297
      7  O32       17.2650  -13.3520   22.8550 O.2   701  26U701     -0.2745
      8  N1        18.8810  -13.2880   21.4270 N.am  701  26U701     -0.2504
      9  C1        18.3780  -12.0150   20.9900 C.3   701  26U701      0.1618
     10  C7        16.9860  -12.1250   20.3640 C.2   701  26U701      0.2604
     11  O22       16.7040  -13.2170   19.9040 O.2   701  26U701     -0.2715
     12  C2        19.4130  -11.7270   19.8710 C.3   701  26U701      0.0570
     13  C3        20.4230  -12.8830   19.8270 C.2   701  26U701     -0.0077
     14  C4        20.1350  -13.8650   20.9650 C.2   701  26U701      0.0634
     15  N23       16.2750  -11.0630   20.3720 N.am  701  26U701     -0.1991
     16  C24       14.9520  -11.2010   19.7600 C.3   701  26U701      0.1415
     17  C25       13.8720  -11.0980   20.8590 C.ar  701  26U701     -0.0006
     18  C30       13.3990  -12.2420   21.4860 C.ar  701  26U701     -0.0023
     19  C29       12.4290  -12.1800   22.4770 C.ar  701  26U701      0.0077
     20  C28       11.9020  -10.9430   22.8680 C.ar  701  26U701      0.0975
     21  C21       10.8360  -10.8950   23.9570 C.2   701  26U701      0.4766
     22  N46       10.2130  -11.9940   24.2030 N.pl3 701  26U701      0.2047
     23  N47       10.6300   -9.7750   24.5530 N.pl3 701  26U701      0.2047
     24  C27       12.3730   -9.7940   22.2420 C.ar  701  26U701      0.0077
     25  C26       13.3500   -9.8530   21.2440 C.ar  701  26U701     -0.0023
@<TRIPOS>BOND
     1    16    15    1
     2    16    17    1
     3    13    12    1
     4    13    14    2
     5    12     9    1
     6    11    10    2
     7    10    15   am
     8    10     9    1
     9    17    25   ar
    10    17    18   ar
    11    14     8    1
    12     9     8    1
    13    25    24   ar
    14     8     6   am
    15    18    19   ar
    16    24    20   ar
    17    19    20   ar
    18     6     7    2
    19     6     1    1
    20    20    21    1
    21     1     2    1
    22    21    22    2
    23    21    23    1
    24     4     3    1
    25     2     3    1
    26     3     5    1
