@<TRIPOS>MOLECULE
2zir_FPP_B_1.pdb
 24 23 0 0 0
SMALL
GASTEIGER

@<TRIPOS>ATOM
      1  C1        23.1450  124.2560   -2.0090 C.3   902  FPP902      0.1747
      2  O1        23.0990  125.4520   -1.2540 O.3   902  FPP902     -0.3089
      3  C2        21.7840  123.6300   -1.9830 C.2   902  FPP902     -0.0024
      4  C3        20.9220  123.6320   -3.0040 C.2   902  FPP902     -0.0454
      5  C4        21.2310  124.3110   -4.3160 C.3   902  FPP902      0.0261
      6  C5        19.5500  122.9650   -2.9570 C.3   902  FPP902      0.0264
      7  C6        19.1530  122.3430   -1.5890 C.3   902  FPP902      0.0297
      8  C7        17.6460  121.9180   -1.5190 C.2   902  FPP902     -0.0342
      9  C8        16.8460  122.0410   -0.4440 C.2   902  FPP902     -0.0478
     10  C10       17.3250  122.6490    0.8320 C.3   902  FPP902      0.0260
     11  C9        15.4020  121.6200   -0.2980 C.3   902  FPP902      0.0263
     12  C11       14.7740  121.0610   -1.5590 C.3   902  FPP902      0.0297
     13  C12       13.3720  120.5750   -1.2770 C.2   902  FPP902     -0.0342
     14  C13       12.2560  121.0320   -1.8710 C.2   902  FPP902     -0.0478
     15  C14       10.9490  120.3350   -1.6500 C.3   902  FPP902      0.0260
     16  C15       12.1520  122.2110   -2.8060 C.3   902  FPP902      0.0260
     17  PA        24.2720  125.9850   -0.2230 P.3   902  FPP902      0.2233
     18  O1A       25.6320  125.5030   -0.6290 O.2   902  FPP902     -0.5169
     19  O2A       24.1660  127.4940   -0.1200 O.3   902  FPP902     -0.4370
     20  O3A       23.8530  125.2720    1.1790 O.3   902  FPP902     -0.2261
     21  PB        24.8110  124.2690    2.0390 P.3   902  FPP902      0.5373
     22  O1B       24.8710  122.9150    1.2830 O.2   902  FPP902     -0.2221
     23  O2B       24.0850  124.1690    3.3840 O.3   902  FPP902     -0.1143
     24  O3B       26.1950  124.9020    2.1220 O.3   902  FPP902     -0.1143
@<TRIPOS>BOND
     1     5     4    1
     2     4     6    1
     3     4     3    2
     4     6     7    1
     5    16    14    1
     6     1     3    1
     7     1     2    1
     8    14    15    1
     9    14    13    2
    10     7     8    1
    11    12    13    1
    12    12    11    1
    13     8     9    2
    14     2    17    1
    15    18    17    2
    16     9    11    1
    17     9    10    1
    18    17    19    1
    19    17    20    1
    20    20    21    1
    21    22    21    2
    22    21    24    1
    23    21    23    1
