@<TRIPOS>MOLECULE
2zir_NH7_B_1.pdb
 39 44 0 0 0
SMALL
GASTEIGER

@<TRIPOS>ATOM
      1  C2        20.1290  126.2860    3.1920 C.ar  903  NH7903      0.1784
      2  C7        18.5840  128.2370    0.4490 C.3   903  NH7903      0.2296
      3  C10       17.5550  129.3660    0.6880 C.ar  903  NH7903      0.1596
      4  C11       17.6780  130.5520    1.3350 C.ar  903  NH7903      0.0392
      5  C12       16.3950  131.1460    1.3930 C.ar  903  NH7903      0.0375
      6  C13       15.8700  132.2980    2.0000 C.ar  903  NH7903      0.0077
      7  C14       14.5020  132.5540    1.8360 C.ar  903  NH7903      0.0566
      8  C15       13.6560  131.6980    1.0540 C.ar  903  NH7903      0.0076
      9  C16       14.1680  130.5620    0.4200 C.ar  903  NH7903      0.0347
     10  C21       17.8860  127.2620   -0.4810 C.ar  903  NH7903      0.0173
     11  C22       16.8980  126.4260    0.0410 C.ar  903  NH7903     -0.0003
     12  C24       16.4890  125.5450   -2.1780 C.ar  903  NH7903      0.0577
     13  C31       13.3760  129.6620   -0.4390 C.ar  903  NH7903      0.0029
     14  C32       12.5300  130.1480   -1.4570 C.ar  903  NH7903      0.0001
     15  C33       11.7890  129.2910   -2.2730 C.ar  903  NH7903      0.0000
     16  C34       11.8830  127.9140   -2.0620 C.ar  903  NH7903      0.0000
     17  C35       12.7220  127.4060   -1.0530 C.ar  903  NH7903      0.0000
     18  N1        19.9700  126.5650    1.8640 N.ar  903  NH7903     -0.3078
     19  N3        19.3670  127.0880    3.9130 N.ar  903  NH7903     -0.2226
     20  C4        18.7080  127.8960    3.0540 C.ar  903  NH7903      0.1165
     21  C5        19.0440  127.6100    1.7660 C.ar  903  NH7903      0.0963
     22  C6        20.6580  125.8530    0.7810 C.3   903  NH7903      0.1318
     23  O8        19.7140  128.8350   -0.2050 O.3   903  NH7903     -0.2073
     24  O9        16.2560  129.2510    0.2010 O.2   903  NH7903     -0.4546
     25  C17       15.5480  130.3190    0.6520 C.ar  903  NH7903      0.1449
     26  C23       16.1950  125.5630   -0.8050 C.ar  903  NH7903      0.0112
     27  C25       17.4840  126.3740   -2.7280 C.ar  903  NH7903      0.0112
     28  C26       18.1740  127.2290   -1.8640 C.ar  903  NH7903     -0.0003
     29 CL27       15.5510  124.4920   -3.1680 Cl    903  NH7903     -0.0822
     30  C36       13.4610  128.2670   -0.2390 C.ar  903  NH7903      0.0001
     31  C41       13.9430  133.7330    2.4940 C.2   903  NH7903      0.2798
     32  O42       12.7590  133.7790    2.8510 O.2   903  NH7903     -0.2670
     33  N43       14.7920  134.7940    2.7190 N.am  903  NH7903     -0.1236
     34  N44       14.3260  136.0240    3.3410 N.3   903  NH7903     -0.1790
     35  C45       13.6870  136.8730    2.3150 C.3   903  NH7903      0.1260
     36  C46       13.2640  138.2010    2.9230 C.3   903  NH7903      0.1613
     37  O47       14.3360  138.8000    3.6250 O.3   903  NH7903     -0.3507
     38  C48       14.8290  138.0010    4.6930 C.3   903  NH7903      0.1613
     39  C49       15.4020  136.7130    4.1040 C.3   903  NH7903      0.1260
@<TRIPOS>BOND
     1    29    12    1
     2    27    12   ar
     3    27    28   ar
     4    15    16   ar
     5    15    14   ar
     6    12    26   ar
     7    16    17   ar
     8    28    10   ar
     9    14    13   ar
    10    17    30   ar
    11    26    11   ar
    12    10    11   ar
    13    10     2    1
    14    13    30   ar
    15    13     9    1
    16    23     2    1
    17    24    25   ar
    18    24     3   ar
    19     9    25   ar
    20     9     8   ar
    21     2     3    1
    22     2    21    1
    23    25     5   ar
    24     3     4   ar
    25    22    18    1
    26     8     7   ar
    27     4     5   ar
    28     5     6   ar
    29    21    18   ar
    30    21    20   ar
    31     7     6   ar
    32     7    31    1
    33    18     1   ar
    34    35    36    1
    35    35    34    1
    36    31    33   am
    37    31    32    2
    38    33    34    1
    39    36    37    1
    40    20    19   ar
    41     1    19   ar
    42    34    39    1
    43    37    38    1
    44    39    38    1
