@<TRIPOS>MOLECULE
2zis_NH8_B_1.pdb
 36 40 0 0 0
SMALL
GASTEIGER

@<TRIPOS>ATOM
      1  C2        72.3250   80.6270    3.1800 C.ar  903  NH8903      0.1784
      2  C7        70.0400   80.2090    0.3360 C.3   903  NH8903      0.2296
      3  C10       68.5900   79.8560    0.5940 C.ar  903  NH8903      0.1596
      4  C11       67.5660   80.5170    1.2180 C.ar  903  NH8903      0.0393
      5  C12       66.4880   79.6060    1.3360 C.ar  903  NH8903      0.0390
      6  C13       65.2310   79.6100    1.9900 C.ar  903  NH8903      0.0272
      7  C14       64.4410   78.4620    1.8550 C.ar  903  NH8903      0.1431
      8  C15       64.8190   77.3350    1.0550 C.ar  903  NH8903      0.0271
      9  C16       66.0310   77.3300    0.3560 C.ar  903  NH8903      0.0362
     10  C21       70.5340   79.1100   -0.5600 C.ar  903  NH8903      0.0173
     11  C22       71.0230   77.9170   -0.0210 C.ar  903  NH8903     -0.0004
     12  C24       71.3260   77.0650   -2.2710 C.ar  903  NH8903      0.0684
     13  C27       71.7180   75.9860   -3.1160 C.1   903  NH8903      0.1004
     14  C31       66.4520   76.2520   -0.5700 C.ar  903  NH8903      0.0037
     15  C32       65.6160   75.8330   -1.6230 C.ar  903  NH8903      0.0001
     16  C33       66.0020   74.8330   -2.5090 C.ar  903  NH8903      0.0007
     17  C34       67.2500   74.2280   -2.3550 C.ar  903  NH8903      0.0103
     18  C35       68.1160   74.6180   -1.3150 C.ar  903  NH8903      0.0684
     19  N1        72.0670   80.7000    1.8420 N.ar  903  NH8903     -0.3078
     20  N3        71.2980   80.2020    3.8610 N.ar  903  NH8903     -0.2226
     21  C4        70.3750   80.0030    2.9390 C.ar  903  NH8903      0.1165
     22  C5        70.7670   80.2870    1.6640 C.ar  903  NH8903      0.0963
     23  C6        73.0490   81.1130    0.8100 C.3   903  NH8903      0.1318
     24  O8        70.1390   81.4770   -0.3000 O.3   903  NH8903     -0.2073
     25  O9        68.1400   78.6400    0.1510 O.2   903  NH8903     -0.4546
     26  C17       66.8670   78.4700    0.5940 C.ar  903  NH8903      0.1450
     27  C23       71.4240   76.8950   -0.8840 C.ar  903  NH8903      0.0101
     28  C25       70.8350   78.2710   -2.8030 C.ar  903  NH8903      0.0101
     29  C26       70.4320   79.2970   -1.9420 C.ar  903  NH8903     -0.0004
     30  N28       71.9850   75.0900   -3.7780 N.1   903  NH8903     -0.1908
     31  C36       67.7100   75.6280   -0.4290 C.ar  903  NH8903      0.0104
     32  C37       69.4040   73.9850   -1.1810 C.1   903  NH8903      0.1004
     33  N38       70.4400   73.4910   -1.1080 N.1   903  NH8903     -0.1908
     34  N41       63.1590   78.4120    2.5800 N.pl3 903  NH8903      0.0577
     35  O42       62.5660   79.4880    2.7930 O.2   903  NH8903     -0.1261
     36  O43       62.7030   77.3080    2.9550 O.2   903  NH8903     -0.1261
@<TRIPOS>BOND
     1    30    13    3
     2    13    12    1
     3    28    12   ar
     4    28    29   ar
     5    16    17   ar
     6    16    15   ar
     7    17    18   ar
     8    12    27   ar
     9    29    10   ar
    10    15    14   ar
    11    18    32    1
    12    18    31   ar
    13    32    33    3
    14    27    11   ar
    15    14    31   ar
    16    14     9    1
    17    10    11   ar
    18    10     2    1
    19    24     2    1
    20    25     3   ar
    21    25    26   ar
    22     2     3    1
    23     2    22    1
    24     9    26   ar
    25     9     8   ar
    26     3     4   ar
    27    26     5   ar
    28    23    19    1
    29     8     7   ar
    30     4     5   ar
    31     5     6   ar
    32    22    19   ar
    33    22    21   ar
    34    19     1   ar
    35     7     6   ar
    36     7    34    1
    37    34    35    2
    38    34    36    2
    39    21    20   ar
    40     1    20   ar
