@<TRIPOS>MOLECULE
2zis_FPP_B_1.pdb
 24 23 0 0 0
SMALL
GASTEIGER

@<TRIPOS>ATOM
      1  C1        75.9050   82.0710   -1.9810 C.3   902  FPP902      0.1747
      2  O1        74.7120   82.6540   -1.4610 O.3   902  FPP902     -0.3089
      3  C2        75.8860   80.5730   -1.9230 C.2   902  FPP902     -0.0024
      4  C3        75.4410   79.7630   -2.8890 C.2   902  FPP902     -0.0454
      5  C4        74.7970   80.2550   -4.1670 C.3   902  FPP902      0.0261
      6  C5        75.5510   78.2440   -2.7630 C.3   902  FPP902      0.0264
      7  C6        74.9440   77.6640   -1.4650 C.3   902  FPP902      0.0297
      8  C7        74.8990   76.1340   -1.4830 C.2   902  FPP902     -0.0342
      9  C8        74.5960   75.3950   -0.3990 C.2   902  FPP902     -0.0478
     10  C10       74.3320   75.9760    0.9470 C.3   902  FPP902      0.0260
     11  C9        74.4490   73.8910   -0.2800 C.3   902  FPP902      0.0263
     12  C11       74.3140   73.1920   -1.6130 C.3   902  FPP902      0.0297
     13  C12       74.0840   71.7300   -1.3890 C.2   902  FPP902     -0.0342
     14  C13       73.1430   71.0040   -2.0100 C.2   902  FPP902     -0.0478
     15  C14       73.0720   69.5110   -1.7950 C.3   902  FPP902      0.0260
     16  C15       72.1040   71.5410   -2.9590 C.3   902  FPP902      0.0260
     17  PA        74.8800   83.8620   -0.3520 P.3   902  FPP902      0.2233
     18  O1A       75.8450   84.9020   -0.8520 O.2   902  FPP902     -0.5169
     19  O2A       73.5170   84.4270    0.0200 O.3   902  FPP902     -0.4370
     20  O3A       75.5570   83.0280    0.9050 O.3   902  FPP902     -0.2261
     21  PB        76.7260   83.6260    1.8820 P.3   902  FPP902      0.5373
     22  O1B       78.0530   83.2150    1.2730 O.2   902  FPP902     -0.2221
     23  O2B       76.4730   82.9980    3.2300 O.3   902  FPP902     -0.1143
     24  O3B       76.5320   85.1300    1.8960 O.3   902  FPP902     -0.1143
@<TRIPOS>BOND
     1     5     4    1
     2    16    14    1
     3     4     6    1
     4     4     3    2
     5     6     7    1
     6    14    15    1
     7    14    13    2
     8     1     3    1
     9     1     2    1
    10    12    13    1
    11    12    11    1
    12     8     7    1
    13     8     9    2
    14     2    17    1
    15    18    17    2
    16     9    11    1
    17     9    10    1
    18    17    19    1
    19    17    20    1
    20    20    21    1
    21    22    21    2
    22    21    24    1
    23    21    23    1
