@<TRIPOS>MOLECULE
2zit_NAD_B_1.pdb
 44 48 0 0 0
SMALL
GASTEIGER

@<TRIPOS>ATOM
      1  PA         3.3390   -5.0010   93.9860 P.3   700  NAD700      0.2189
      2  O1A        1.9380   -4.6130   94.3580 O.2   700  NAD700     -0.5170
      3  O2A        4.2470   -5.5340   95.0530 O.3   700  NAD700     -0.4371
      4  O5B        3.9980   -3.7030   93.3140 O.3   700  NAD700     -0.3112
      5  C5B        3.1540   -2.9760   92.4230 C.3   700  NAD700      0.1813
      6  C4B        3.7610   -2.7090   91.0480 C.3   700  NAD700      0.1821
      7  O4B        4.1390   -1.3410   90.8760 O.3   700  NAD700     -0.3135
      8  C3B        4.9760   -3.5590   90.6910 C.3   700  NAD700      0.2184
      9  O3B        4.5960   -4.7090   89.9230 O.3   700  NAD700     -0.2174
     10  C2B        5.8660   -2.6080   89.9020 C.3   700  NAD700      0.2570
     11  O2B        6.1400   -3.1260   88.5980 O.3   700  NAD700     -0.2130
     12  C1B        5.0550   -1.3240   89.7830 C.3   700  NAD700      0.3186
     13  N9A        5.9060   -0.1040   89.7250 N.pl3 700  NAD700     -0.1439
     14  C8A        5.8230    0.8570   88.7920 C.3   700  NAD700      0.3377
     15  N7A        6.7350    1.8140   89.0650 N.2   700  NAD700     -0.2095
     16  C5A        7.3900    1.4500   90.1830 C.2   700  NAD700      0.2526
     17  C6A        8.4160    2.0380   90.9140 C.2   700  NAD700      0.4393
     18  N6A        8.9540    3.2250   90.5300 N.pl3 700  NAD700      0.2180
     19  N1A        8.8690    1.4120   92.0220 N.2   700  NAD700      0.0021
     20  C2A        8.3430    0.2430   92.4120 C.3   700  NAD700      0.5254
     21  N3A        7.3520   -0.3440   91.7230 N.2   700  NAD700     -0.0055
     22  C4A        6.8520    0.2440   90.6050 C.2   700  NAD700      0.3518
     23  O3         3.2910   -6.0510   92.7660 O.3   700  NAD700     -0.2703
     24  PN         4.5090   -7.0560   92.4440 P.3   700  NAD700      0.2189
     25  O1N        5.7100   -6.7050   93.2750 O.3   700  NAD700     -0.4371
     26  O2N        4.6540   -7.1560   90.9500 O.2   700  NAD700     -0.5170
     27  O5D        3.8900   -8.4280   92.9930 O.3   700  NAD700     -0.3112
     28  C5D        3.8390   -8.6330   94.4010 C.3   700  NAD700      0.1813
     29  C4D        3.6650  -10.1050   94.7530 C.3   700  NAD700      0.1799
     30  O4D        4.2290  -10.9170   93.7250 O.3   700  NAD700     -0.3327
     31  C3D        4.4250  -10.4010   96.0340 C.3   700  NAD700      0.2158
     32  O3D        3.5310  -10.5980   97.1320 O.3   700  NAD700     -0.2175
     33  C2D        5.2300  -11.6530   95.7540 C.3   700  NAD700      0.2309
     34  O2D        4.7180  -12.7580   96.5120 O.3   700  NAD700     -0.2158
     35  C1D        5.0820  -11.9250   94.2670 C.3   700  NAD700      0.2263
     36  N1N        6.3890  -11.8340   93.6060 N.pl3 700  NAD700     -0.2787
     37  C2N        6.5620  -10.9640   92.6030 C.3   700  NAD700      0.1244
     38  C3N        7.7820  -10.8610   91.9430 C.2   700  NAD700      0.0544
     39  C7N        7.9350   -9.8710   90.8240 C.2   700  NAD700      0.2818
     40  O7N        8.8960   -9.9470   90.0760 O.2   700  NAD700     -0.2670
     41  N7N        6.9960   -8.9430   90.6640 N.am  700  NAD700     -0.0839
     42  C4N        8.8340  -11.6850   92.3220 C.2   700  NAD700      0.0033
     43  C5N        8.6330  -12.5850   93.3570 C.2   700  NAD700      0.0157
     44  C6N        7.3890  -12.6440   93.9780 C.2   700  NAD700      0.0633
@<TRIPOS>BOND
     1    11    10    1
     2    14    15    1
     3    14    13    1
     4    15    16    2
     5    13    12    1
     6    13    22    1
     7    12    10    1
     8    12     7    1
     9    10     8    1
    10     9     8    1
    11    40    39    2
    12    16    22    1
    13    16    17    1
    14    18    17    1
    15    22    21    2
    16    41    39   am
    17     8     6    1
    18    39    38    1
    19     7     6    1
    20    17    19    2
    21    26    24    2
    22     6     5    1
    23    21    20    1
    24    38    42    2
    25    38    37    1
    26    19    20    1
    27    42    43    1
    28     5     4    1
    29    24    23    1
    30    24    27    1
    31    24    25    1
    32    37    36    1
    33    23     1    1
    34    27    28    1
    35     4     1    1
    36    43    44    2
    37    36    44    1
    38    36    35    1
    39    30    35    1
    40    30    29    1
    41     1     2    2
    42     1     3    1
    43    35    33    1
    44    28    29    1
    45    29    31    1
    46    33    31    1
    47    33    34    1
    48    31    32    1
