@<TRIPOS>MOLECULE
2ziy_RET_A_1.pdb
 20 20 0 0 0
SMALL
GASTEIGER

@<TRIPOS>ATOM
      1  C1        42.7930    5.1870   12.5060 C.3   380  RET380      0.0183
      2  C2        41.7400    5.7790   11.5210 C.3   380  RET380      0.0044
      3  C3        42.0140    7.2540   11.3080 C.3   380  RET380      0.0047
      4  C4        41.9730    8.0730   12.5180 C.3   380  RET380      0.0217
      5  C5        42.6440    7.4630   13.7410 C.2   380  RET380     -0.0479
      6  C6        43.0270    6.0680   13.7660 C.2   380  RET380     -0.0307
      7  C7        43.7410    5.3170   14.8870 C.2   380  RET380     -0.0052
      8  C8        44.2590    6.0260   15.8170 C.2   380  RET380     -0.0046
      9  C9        45.0060    5.7520   17.0300 C.2   380  RET380     -0.0219
     10  C10       45.4630    6.7530   17.7760 C.2   380  RET380     -0.0043
     11  C11       46.3710    6.6970   18.9360 C.2   380  RET380     -0.0007
     12  C12       46.7670    7.7030   19.7060 C.2   380  RET380     -0.0046
     13  C13       46.4450    9.1370   19.8080 C.2   380  RET380     -0.0261
     14  C14       46.8980    9.8390   20.8140 C.2   380  RET380     -0.0300
     15  C15       46.5340   11.2150   20.9240 C.3   380  RET380      0.0304
     16  C16       42.2410    3.8540   12.7900 C.3   380  RET380      0.0043
     17  C17       44.2320    5.0290   11.8680 C.3   380  RET380      0.0043
     18  C18       42.8940    8.4340   14.8680 C.3   380  RET380      0.0260
     19  C19       45.2790    4.3290   17.3120 C.3   380  RET380      0.0310
     20  C20       45.5190    9.7550   18.7730 C.3   380  RET380      0.0307
@<TRIPOS>BOND
     1     3     2    1
     2     3     4    1
     3     2     1    1
     4    17     1    1
     5     1    16    1
     6     1     6    1
     7     4     5    1
     8     5     6    2
     9     5    18    1
    10     6     7    1
    11     7     8    2
    12     8     9    1
    13     9    19    1
    14     9    10    2
    15    10    11    1
    16    20    13    1
    17    11    12    2
    18    12    13    1
    19    13    14    2
    20    14    15    1
