@<TRIPOS>MOLECULE
2ziz_NAD_A_1.pdb
 44 48 0 0 0
SMALL
GASTEIGER

@<TRIPOS>ATOM
      1  PA         8.4730    3.0100   61.1290 P.3   550  NAD550      0.2189
      2  O1A        8.0340    3.6470   62.4450 O.3   550  NAD550     -0.4371
      3  O2A        9.7970    2.3040   60.8710 O.2   550  NAD550     -0.5170
      4  O5B        8.2150    3.9860   59.8750 O.3   550  NAD550     -0.3112
      5  C5B        7.1420    4.9570   59.8730 C.3   550  NAD550      0.1813
      6  C4B        7.6210    6.3010   59.3480 C.3   550  NAD550      0.1821
      7  O4B        6.4800    7.1660   59.1470 O.3   550  NAD550     -0.3135
      8  C3B        8.5510    7.0070   60.3380 C.3   550  NAD550      0.2184
      9  O3B        9.9010    7.1160   59.7770 O.3   550  NAD550     -0.2174
     10  C2B        7.8750    8.3640   60.6780 C.3   550  NAD550      0.2570
     11  O2B        8.8420    9.4520   60.7530 O.3   550  NAD550     -0.2130
     12  C1B        6.8280    8.4880   59.5300 C.3   550  NAD550      0.3186
     13  N9A        5.5620    9.3020   59.7620 N.pl3 550  NAD550     -0.1439
     14  C8A        4.7500    9.3610   60.8640 C.3   550  NAD550      0.3377
     15  N7A        3.7750   10.2290   60.5900 N.2   550  NAD550     -0.2095
     16  C5A        3.9550   10.7560   59.3320 C.2   550  NAD550      0.2526
     17  C6A        3.3150   11.7150   58.4500 C.2   550  NAD550      0.4393
     18  N6A        2.1630   12.4440   58.7890 N.pl3 550  NAD550      0.2180
     19  N1A        3.9020   11.9560   57.2250 N.2   550  NAD550      0.0021
     20  C2A        4.9880   11.3440   56.7700 C.3   550  NAD550      0.5254
     21  N3A        5.6020   10.4610   57.5990 N.2   550  NAD550     -0.0055
     22  C4A        5.1450   10.1520   58.8260 C.2   550  NAD550      0.3518
     23  O3         7.2720    1.9340   61.0030 O.3   550  NAD550     -0.2703
     24  PN         7.1890    0.8510   59.8250 P.3   550  NAD550      0.2189
     25  O1N        7.6060    1.3350   58.4570 O.2   550  NAD550     -0.5170
     26  O2N        7.8980   -0.3300   60.4210 O.3   550  NAD550     -0.4371
     27  O5D        5.5940    0.6020   59.8630 O.3   550  NAD550     -0.3112
     28  C5D        4.7270    1.4330   59.0940 C.3   550  NAD550      0.1813
     29  C4D        3.3180    0.7930   59.2030 C.3   550  NAD550      0.1799
     30  O4D        3.1920   -0.3480   58.3660 O.3   550  NAD550     -0.3327
     31  C3D        3.0040    0.2890   60.5870 C.3   550  NAD550      0.2158
     32  O3D        1.6330    0.6390   60.8670 O.3   550  NAD550     -0.2175
     33  C2D        3.0570   -1.2380   60.5000 C.3   550  NAD550      0.2309
     34  O2D        2.0550   -1.7520   61.3650 O.3   550  NAD550     -0.2158
     35  C1D        2.7070   -1.5260   59.0590 C.3   550  NAD550      0.2263
     36  N1N        3.2700   -2.7000   58.4050 N.pl3 550  NAD550     -0.2787
     37  C2N        2.5810   -3.2140   57.4090 C.3   550  NAD550      0.1244
     38  C3N        3.1030   -4.3100   56.7150 C.2   550  NAD550      0.0544
     39  C7N        2.2920   -4.8740   55.5930 C.2   550  NAD550      0.2818
     40  O7N        2.6470   -6.0600   55.0780 O.2   550  NAD550     -0.2670
     41  N7N        1.3300   -4.1910   55.1030 N.am  550  NAD550     -0.0839
     42  C4N        4.3440   -4.8930   57.0390 C.2   550  NAD550      0.0033
     43  C5N        5.0580   -4.3370   58.0940 C.2   550  NAD550      0.0157
     44  C6N        4.4870   -3.2320   58.7440 C.2   550  NAD550      0.0633
@<TRIPOS>BOND
     1    40    39    2
     2    41    39   am
     3    39    38    1
     4    38    42    2
     5    38    37    1
     6    20    19    1
     7    20    21    1
     8    42    43    1
     9    19    17    2
    10    37    36    1
    11    21    22    2
    12    43    44    2
    13    30    35    1
    14    30    29    1
    15    36    44    1
    16    36    35    1
    17    17    18    1
    18    17    16    1
    19    25    24    2
    20    22    16    1
    21    22    13    1
    22    35    33    1
    23    28    29    1
    24    28    27    1
    25     7     6    1
    26     7    12    1
    27    29    31    1
    28    16    15    2
    29     6     5    1
    30     6     8    1
    31    12    13    1
    32    12    10    1
    33    13    14    1
    34     9     8    1
    35    24    27    1
    36    24    26    1
    37    24    23    1
    38     5     4    1
    39     4     1    1
    40     8    10    1
    41    33    31    1
    42    33    34    1
    43    31    32    1
    44    15    14    1
    45    10    11    1
    46     3     1    2
    47    23     1    1
    48     1     2    1
