@<TRIPOS>MOLECULE
2ziz_AD3_A_1.pdb
 19 21 0 0 0
SMALL
GASTEIGER

@<TRIPOS>ATOM
      1  O5'       -0.4060   -5.8650   60.2690 O.3   500  AD3500     -0.2176
      2  C5'        0.6640   -5.7550   59.2840 C.3   500  AD3500      0.2142
      3  C4'        1.5640   -7.0070   59.3890 C.3   500  AD3500      0.1828
      4  O4'        1.1370   -7.9170   58.3960 O.3   500  AD3500     -0.3325
      5  C3'        3.0560   -6.8770   59.0770 C.3   500  AD3500      0.2159
      6  O3'        3.7990   -6.7700   60.2840 O.3   500  AD3500     -0.2175
      7  C2'        3.4600   -8.1830   58.4130 C.3   500  AD3500      0.2309
      8  O2'        4.2040   -9.0120   59.3040 O.3   500  AD3500     -0.2158
      9  C1'        2.1610   -8.9260   58.2800 C.3   500  AD3500      0.2275
     10  N9         2.1200   -9.6770   56.9920 N.pl3 500  AD3500     -0.2617
     11  C8         2.4730   -9.2670   55.7140 C.3   500  AD3500      0.2220
     12  N7         2.2490  -10.2590   54.8160 N.2   500  AD3500     -0.2394
     13  C5         1.7720  -11.3050   55.5450 C.2   500  AD3500      0.1813
     14  C6         1.3810  -12.5710   55.2440 C.2   500  AD3500      0.4292
     15  N6         1.4970  -12.9410   53.9360 N.pl3 500  AD3500      0.2176
     16  N1         0.9090  -13.3860   56.2550 N.2   500  AD3500     -0.0517
     17  C2         0.7800  -13.0490   57.5690 C.3   500  AD3500      0.2912
     18  C3         1.1800  -11.7800   57.9690 C.2   500  AD3500      0.0474
     19  C4         1.6910  -10.9110   56.9740 C.2   500  AD3500      0.0761
@<TRIPOS>BOND
     1    15    14    1
     2    12    13    2
     3    12    11    1
     4    14    13    1
     5    14    16    2
     6    13    19    1
     7    11    10    1
     8    16    17    1
     9    19    10    1
    10    19    18    2
    11    10     9    1
    12    17    18    1
    13     9     4    1
    14     9     7    1
    15     4     3    1
    16     7     5    1
    17     7     8    1
    18     5     3    1
    19     5     6    1
    20     2     3    1
    21     2     1    1
