@<TRIPOS>MOLECULE
2zj0_2FA_A_1.pdb
 20 22 0 0 0
SMALL
GASTEIGER

@<TRIPOS>ATOM
      1  O5'       57.0880   -6.3410   45.8950 O.3   500  2FA500     -0.2176
      2  C5'       56.5470   -5.9320   44.6560 C.3   500  2FA500      0.2142
      3  C4'       56.8080   -7.1780   43.7660 C.3   500  2FA500      0.1828
      4  O4'       55.8620   -8.1280   44.1490 O.3   500  2FA500     -0.3325
      5  C1'       55.6710   -9.0260   43.0700 C.3   500  2FA500      0.2293
      6  N9        54.3350   -9.7390   42.9450 N.pl3 500  2FA500     -0.2359
      7  C4        54.1690  -10.9620   43.4300 C.2   500  2FA500      0.2224
      8  N3        55.0100  -11.8250   44.0550 N.2   500  2FA500     -0.3001
      9  C2        54.5160  -13.0450   44.4570 C.1   500  2FA500      0.2998
     10  F         55.4100  -13.8400   45.0610 F     500  2FA500     -0.0976
     11  N1        53.2910  -13.5540   44.1340 N.2   500  2FA500     -0.2971
     12  C6        52.4080  -12.8040   43.4770 C.2   500  2FA500      0.2545
     13  N6        51.0960  -13.3210   43.2360 N.pl3 500  2FA500     -0.0903
     14  C5        52.8070  -11.4040   43.1310 C.2   500  2FA500      0.1707
     15  N7        52.2240  -10.3260   42.5120 N.2   500  2FA500     -0.2401
     16  C8        53.1580   -9.3610   42.4050 C.3   500  2FA500      0.2238
     17  C2'       56.0520   -8.3440   41.7750 C.3   500  2FA500      0.2310
     18  O2'       56.7950   -9.2670   40.9440 O.3   500  2FA500     -0.2158
     19  C3'       56.8150   -7.1360   42.2370 C.3   500  2FA500      0.2159
     20  O3'       58.1610   -7.3280   41.7710 O.3   500  2FA500     -0.2175
@<TRIPOS>BOND
     1    18    17    1
     2    20    19    1
     3    17    19    1
     4    17     5    1
     5    19     3    1
     6    16    15    1
     7    16     6    1
     8    15    14    2
     9     6     5    1
    10     6     7    1
    11     5     4    1
    12    14     7    1
    13    14    12    1
    14    13    12    1
    15     7     8    2
    16    12    11    2
    17     3     4    1
    18     3     2    1
    19     8     9    2
    20    11     9    2
    21     9    10    1
    22     2     1    1
