@<TRIPOS>MOLECULE
2zj0_NAD_A_1.pdb
 44 48 0 0 0
SMALL
GASTEIGER

@<TRIPOS>ATOM
      1  PA        59.2240    2.8160   37.0860 P.3   550  NAD550      0.2189
      2  O1A       60.5390    3.2710   37.6600 O.3   550  NAD550     -0.4371
      3  O2A       59.2120    2.1360   35.6840 O.2   550  NAD550     -0.5170
      4  O5B       58.1140    3.9690   37.2000 O.3   550  NAD550     -0.3112
      5  C5B       57.8340    4.6810   38.4130 C.3   550  NAD550      0.1813
      6  C4B       57.4980    6.0520   37.9320 C.3   550  NAD550      0.1821
      7  O4B       57.3060    6.8910   39.0620 O.3   550  NAD550     -0.3135
      8  C3B       58.6290    6.7250   37.1430 C.3   550  NAD550      0.2184
      9  O3B       58.4340    6.6800   35.7380 O.3   550  NAD550     -0.2174
     10  C2B       58.8480    8.1560   37.7320 C.3   550  NAD550      0.2570
     11  O2B       59.0670    9.1670   36.7310 O.3   550  NAD550     -0.2130
     12  C1B       57.5590    8.2380   38.5680 C.3   550  NAD550      0.3186
     13  N9A       57.7440    9.0960   39.7550 N.pl3 550  NAD550     -0.1439
     14  C8A       58.8670    9.2310   40.5620 C.3   550  NAD550      0.3377
     15  N7A       58.5650   10.1280   41.5360 N.2   550  NAD550     -0.2095
     16  C5A       57.2940   10.6440   41.2520 C.2   550  NAD550      0.2526
     17  C6A       56.4120   11.5480   41.8120 C.2   550  NAD550      0.4393
     18  N6A       56.7290   12.2620   42.9200 N.pl3 550  NAD550      0.2180
     19  N1A       55.1870   11.7620   41.2620 N.2   550  NAD550      0.0021
     20  C2A       54.7960   11.0710   40.1760 C.3   550  NAD550      0.5254
     21  N3A       55.5910   10.1460   39.6130 N.2   550  NAD550     -0.0055
     22  C4A       56.7820    9.9130   40.1160 C.2   550  NAD550      0.3518
     23  O3        58.7500    1.7630   38.2290 O.3   550  NAD550     -0.2703
     24  PN        57.8160    0.4600   38.1130 P.3   550  NAD550      0.2189
     25  O1N       56.4650    1.0030   37.5650 O.3   550  NAD550     -0.4371
     26  O2N       58.5500   -0.6760   37.4760 O.2   550  NAD550     -0.5170
     27  O5D       57.7060    0.0550   39.6550 O.3   550  NAD550     -0.3112
     28  C5D       57.1040    1.0160   40.5410 C.3   550  NAD550      0.1813
     29  C4D       57.0230    0.4800   41.9580 C.3   550  NAD550      0.1799
     30  O4D       56.1600   -0.6400   41.9860 O.3   550  NAD550     -0.3327
     31  C3D       58.3460   -0.0190   42.4460 C.3   550  NAD550      0.2158
     32  O3D       58.2960    0.4210   43.7930 O.3   550  NAD550     -0.2175
     33  C2D       58.2610   -1.5450   42.3160 C.3   550  NAD550      0.2309
     34  O2D       59.0380   -2.2800   43.2740 O.3   550  NAD550     -0.2158
     35  C1D       56.7870   -1.7710   42.6010 C.3   550  NAD550      0.2263
     36  N1N       56.1510   -2.9050   41.9780 N.pl3 550  NAD550     -0.2787
     37  C2N       55.0730   -3.3910   42.5370 C.3   550  NAD550      0.1244
     38  C3N       54.3850   -4.4830   41.9670 C.2   550  NAD550      0.0544
     39  C7N       53.1750   -5.0170   42.6360 C.2   550  NAD550      0.2818
     40  O7N       52.6780   -6.1310   42.1960 O.2   550  NAD550     -0.2670
     41  N7N       52.6100   -4.4180   43.5990 N.am  550  NAD550     -0.0839
     42  C4N       54.7980   -5.0740   40.8140 C.2   550  NAD550      0.0033
     43  C5N       55.9740   -4.5300   40.2650 C.2   550  NAD550      0.0157
     44  C6N       56.6280   -3.4620   40.8680 C.2   550  NAD550      0.0633
@<TRIPOS>BOND
     1     3     1    2
     2     9     8    1
     3    11    10    1
     4     1     4    1
     5     1     2    1
     6     1    23    1
     7     8    10    1
     8     8     6    1
     9     4     5    1
    10    26    24    2
    11    25    24    1
    12    10    12    1
    13     6     5    1
    14     6     7    1
    15    24    23    1
    16    24    27    1
    17    12     7    1
    18    12    13    1
    19    21    22    2
    20    21    20    1
    21    27    28    1
    22    13    22    1
    23    13    14    1
    24    22    16    1
    25    20    19    1
    26    43    42    1
    27    43    44    2
    28    28    29    1
    29    14    15    1
    30    42    38    2
    31    44    36    1
    32    16    15    2
    33    16    17    1
    34    19    17    2
    35    17    18    1
    36    29    30    1
    37    29    31    1
    38    38    37    1
    39    38    39    1
    40    36    37    1
    41    36    35    1
    42    30    35    1
    43    40    39    2
    44    33    31    1
    45    33    35    1
    46    33    34    1
    47    31    32    1
    48    39    41   am
