@<TRIPOS>MOLECULE
2zj1_ARJ_A_1.pdb
 19 21 0 0 0
SMALL
GASTEIGER

@<TRIPOS>ATOM
      1  C2        53.0210  -13.2610   44.6400 C.3   500  ARJ500      0.5254
      2  C4        52.5460  -11.1350   43.7250 C.2   500  ARJ500      0.3500
      3  C5        51.2480  -11.5190   43.4030 C.2   500  ARJ500      0.2525
      4  C6        50.8470  -12.8800   43.7500 C.2   500  ARJ500      0.4393
      5  O2'       55.1120   -9.2310   41.2960 O.3   500  ARJ500     -0.2108
      6  C2'       54.7390   -8.5790   42.3860 C.3   500  ARJ500      0.2508
      7  C3D       55.2200   -7.3890   42.7090 C.2   500  ARJ500      0.1871
      8  O3D       56.1220   -6.8850   42.0530 O.2   500  ARJ500     -0.2932
      9  C4'       54.6980   -6.9640   43.8630 C.3   500  ARJ500      0.0973
     10  C6'       55.0980   -5.7410   44.6960 C.3   500  ARJ500      0.1896
     11  O6'       55.7220   -6.1070   45.9580 O.3   500  ARJ500     -0.2200
     12  C5'       53.6000   -7.8820   44.3350 C.3   500  ARJ500      0.0599
     13  C1'       53.9280   -9.1340   43.5160 C.3   500  ARJ500      0.1998
     14  N9        52.6860   -9.8880   43.2780 N.pl3 500  ARJ500     -0.1686
     15  C8        51.5020   -9.4620   42.7780 C.3   500  ARJ500      0.3358
     16  N7        50.6190  -10.4790   42.8170 N.2   500  ARJ500     -0.2096
     17  N3        53.3910  -12.0060   44.3360 N.2   500  ARJ500     -0.0055
     18  N1        51.7680  -13.6920   44.3560 N.2   500  ARJ500      0.0021
     19  N6        49.5840  -13.2660   43.4430 N.pl3 500  ARJ500      0.2180
@<TRIPOS>BOND
     1     5     6    1
     2     8     7    2
     3     6     7    1
     4     6    13    1
     5     7     9    1
     6    15    16    1
     7    15    14    1
     8    16     3    2
     9    14    13    1
    10    14     2    1
    11     3     2    1
    12     3     4    1
    13    19     4    1
    14    13    12    1
    15     2    17    2
    16     4    18    2
    17     9    12    1
    18     9    10    1
    19    17     1    1
    20    18     1    1
    21    10    11    1
