@<TRIPOS>MOLECULE
2zj1_NAD_A_1.pdb
 44 48 0 0 0
SMALL
GASTEIGER

@<TRIPOS>ATOM
      1  PA        57.5640    2.8700   37.4880 P.3   550  NAD550      0.2189
      2  O1A       58.8460    3.5810   37.8100 O.3   550  NAD550     -0.4371
      3  O2A       57.4690    2.1470   36.1930 O.2   550  NAD550     -0.5170
      4  O5B       56.3070    3.8510   37.6010 O.3   550  NAD550     -0.3112
      5  C5B       56.1030    4.7740   38.7010 C.3   550  NAD550      0.1813
      6  C4B       55.6840    6.0970   38.0930 C.3   550  NAD550      0.1821
      7  O4B       55.3990    6.9620   39.2180 O.3   550  NAD550     -0.3135
      8  C3B       56.8870    6.6720   37.3500 C.3   550  NAD550      0.2184
      9  O3B       56.7210    6.8590   35.9010 O.3   550  NAD550     -0.2174
     10  C2B       57.2430    7.9860   38.1080 C.3   550  NAD550      0.2570
     11  O2B       57.5830    9.0740   37.1700 O.3   550  NAD550     -0.2130
     12  C1B       55.9070    8.2370   38.8200 C.3   550  NAD550      0.3186
     13  N9A       56.0400    9.0690   40.0110 N.pl3 550  NAD550     -0.1439
     14  C8A       57.1430    9.1220   40.8590 C.3   550  NAD550      0.3377
     15  N7A       56.8840   10.0130   41.8430 N.2   550  NAD550     -0.2095
     16  C5A       55.6280   10.5440   41.5960 C.2   550  NAD550      0.2526
     17  C6A       54.7660   11.5050   42.1170 C.2   550  NAD550      0.4393
     18  N6A       55.0690   12.2220   43.2440 N.pl3 550  NAD550      0.2180
     19  N1A       53.5420   11.7470   41.5120 N.2   550  NAD550      0.0021
     20  C2A       53.1140   11.1260   40.4220 C.3   550  NAD550      0.5254
     21  N3A       53.8980   10.2290   39.8400 N.2   550  NAD550     -0.0055
     22  C4A       55.1140    9.9140   40.3570 C.2   550  NAD550      0.3518
     23  O3        57.3310    1.7060   38.6210 O.3   550  NAD550     -0.2703
     24  PN        56.2270    0.5040   38.5080 P.3   550  NAD550      0.2189
     25  O1N       54.9780    1.0330   37.8910 O.3   550  NAD550     -0.4371
     26  O2N       56.9170   -0.6830   37.8590 O.2   550  NAD550     -0.5170
     27  O5D       55.9370    0.1500   40.0600 O.3   550  NAD550     -0.3112
     28  C5D       55.2680    1.0900   40.9460 C.3   550  NAD550      0.1813
     29  C4D       55.1630    0.5380   42.3710 C.3   550  NAD550      0.1799
     30  O4D       54.3340   -0.6210   42.3780 O.3   550  NAD550     -0.3327
     31  C3D       56.4990    0.1290   43.0220 C.3   550  NAD550      0.2158
     32  O3D       56.4490    0.2820   44.4610 O.3   550  NAD550     -0.2175
     33  C2D       56.4740   -1.3820   42.7490 C.3   550  NAD550      0.2309
     34  O2D       57.4310   -2.0910   43.5580 O.3   550  NAD550     -0.2158
     35  C1D       55.0060   -1.7780   42.9500 C.3   550  NAD550      0.2263
     36  N1N       54.4210   -2.9340   42.2560 N.pl3 550  NAD550     -0.2787
     37  C2N       53.3000   -3.4660   42.7830 C.3   550  NAD550      0.1244
     38  C3N       52.6080   -4.5300   42.1980 C.2   550  NAD550      0.0544
     39  C7N       51.3700   -5.0780   42.8930 C.2   550  NAD550      0.2818
     40  O7N       50.9950   -6.3250   42.6560 O.2   550  NAD550     -0.2670
     41  N7N       50.7260   -4.3840   43.7270 N.am  550  NAD550     -0.0839
     42  C4N       53.0860   -5.0910   40.9990 C.2   550  NAD550      0.0033
     43  C5N       54.2740   -4.5240   40.4730 C.2   550  NAD550      0.0157
     44  C6N       54.9190   -3.4600   41.1000 C.2   550  NAD550      0.0633
@<TRIPOS>BOND
     1     9     8    1
     2     3     1    2
     3    11    10    1
     4     8     6    1
     5     8    10    1
     6     1     4    1
     7     1     2    1
     8     1    23    1
     9     4     5    1
    10    26    24    2
    11    25    24    1
    12     6     5    1
    13     6     7    1
    14    10    12    1
    15    24    23    1
    16    24    27    1
    17    12     7    1
    18    12    13    1
    19    21    22    2
    20    21    20    1
    21    13    22    1
    22    13    14    1
    23    27    28    1
    24    22    16    1
    25    20    19    1
    26    43    42    1
    27    43    44    2
    28    14    15    1
    29    28    29    1
    30    42    38    2
    31    44    36    1
    32    19    17    2
    33    16    15    2
    34    16    17    1
    35    17    18    1
    36    38    37    1
    37    38    39    1
    38    36    37    1
    39    36    35    1
    40    29    30    1
    41    29    31    1
    42    30    35    1
    43    40    39    2
    44    33    35    1
    45    33    31    1
    46    33    34    1
    47    39    41   am
    48    31    32    1
