@<TRIPOS>MOLECULE
2zj3_G6P_A_1.pdb
 16 16 0 0 0
SMALL
GASTEIGER

@<TRIPOS>ATOM
      1  C1        73.5650   29.0670    3.9210 C.3     1  G6P1        0.3024
      2  C2        73.8600   28.4350    5.2610 C.3     1  G6P1        0.2434
      3  C3        72.6360   28.0430    6.0370 C.3     1  G6P1        0.2199
      4  C4        71.3700   28.8780    5.8260 C.3     1  G6P1        0.2143
      5  C5        71.1530   29.4510    4.4220 C.3     1  G6P1        0.1808
      6  C6        70.1050   30.5230    4.2730 C.3     1  G6P1        0.1859
      7  O1        73.3750   27.9220    3.0930 O.3     1  G6P1       -0.1869
      8  O2        74.9110   27.4200    5.3040 O.3     1  G6P1       -0.2148
      9  O3        72.8750   27.6670    7.3860 O.3     1  G6P1       -0.2174
     10  O4        70.2210   28.2590    6.3080 O.3     1  G6P1       -0.2176
     11  O5        72.3280   29.7800    3.7040 O.3     1  G6P1       -0.3237
     12  O6        70.8340   31.5310    4.8590 O.3     1  G6P1       -0.2675
     13  P         70.0890   32.7840    5.8160 P.3     1  G6P1        0.5327
     14  O1P       69.1530   33.5090    4.6800 O.2     1  G6P1       -0.2224
     15  O2P       71.3650   33.7150    6.2160 O.3     1  G6P1       -0.1145
     16  O3P       69.4210   31.8750    6.9930 O.3     1  G6P1       -0.1145
@<TRIPOS>BOND
     1     7     1    1
     2    11     1    1
     3    11     5    1
     4     1     2    1
     5     6     5    1
     6     6    12    1
     7     5     4    1
     8    14    13    2
     9    12    13    1
    10     2     8    1
    11     2     3    1
    12    13    15    1
    13    13    16    1
    14     4     3    1
    15     4    10    1
    16     3     9    1
