@<TRIPOS>MOLECULE
2zj4_AGP_A_1.pdb
 16 15 0 0 0
SMALL
GASTEIGER

@<TRIPOS>ATOM
      1  C1        72.0220   26.1800    7.3320 C.3     1  AGP1        0.2036
      2  O1        72.6600   25.3340    8.2700 O.3     1  AGP1       -0.2187
      3  C2        72.7730   26.4160    6.0490 C.3     1  AGP1        0.1575
      4  N2        73.9920   27.2030    6.3490 N.3     1  AGP1       -0.1273
      5  C3        71.8850   27.0970    4.9720 C.3     1  AGP1        0.2048
      6  O3        70.8360   26.2230    4.6120 O.3     1  AGP1       -0.2187
      7  C4        71.3060   28.4870    5.3250 C.3     1  AGP1        0.2163
      8  O4        70.1750   28.3640    6.1630 O.3     1  AGP1       -0.2175
      9  C5        70.9770   29.2780    4.0540 C.3     1  AGP1        0.2147
     10  O5        72.1480   29.5120    3.2380 O.3     1  AGP1       -0.2176
     11  C6        70.2920   30.6150    4.3160 C.3     1  AGP1        0.1892
     12  O6        71.1190   31.4930    5.0910 O.3     1  AGP1       -0.2674
     13  P         70.4690   32.7160    5.9470 P.3     1  AGP1        0.5327
     14  O1P       71.6690   33.5530    6.2800 O.3     1  AGP1       -0.1145
     15  O2P       69.5290   33.4840    5.0240 O.2     1  AGP1       -0.2224
     16  O3P       69.7330   32.0200    7.0930 O.3     1  AGP1       -0.1145
@<TRIPOS>BOND
     1    10     9    1
     2     9    11    1
     3     9     7    1
     4    11    12    1
     5     6     5    1
     6     5     7    1
     7     5     3    1
     8    15    13    2
     9    12    13    1
    10     7     8    1
    11    13    14    1
    12    13    16    1
    13     3     4    1
    14     3     1    1
    15     1     2    1
