@<TRIPOS>MOLECULE
2zj5_ADP_A_1.pdb
 27 29 0 0 0
SMALL
GASTEIGER

@<TRIPOS>ATOM
      1  PB         8.9520   -9.3980   21.1590 P.3   801  ADP801      0.5373
      2  O1B        8.7490   -9.9680   22.5810 O.3   801  ADP801     -0.1143
      3  O2B        8.5660   -7.9380   21.0650 O.3   801  ADP801     -0.1143
      4  O3B       10.3870   -9.7140   20.5670 O.2   801  ADP801     -0.2221
      5  PA         7.9090  -10.4050   18.6250 P.3   801  ADP801      0.2231
      6  O1A        7.8420   -9.0210   18.0620 O.2   801  ADP801     -0.5169
      7  O2A        6.8190  -11.3260   18.2960 O.3   801  ADP801     -0.4370
      8  O3A        8.0100  -10.2510   20.2360 O.3   801  ADP801     -0.2261
      9  O5'        9.3290  -11.0150   18.1970 O.3   801  ADP801     -0.3111
     10  C5'        9.6870  -12.3690   18.6160 C.3   801  ADP801      0.1813
     11  C4'        9.3210  -13.5450   17.6870 C.3   801  ADP801      0.1821
     12  O4'        8.3060  -14.3370   18.4070 O.3   801  ADP801     -0.3135
     13  C3'        8.6170  -13.3460   16.3490 C.3   801  ADP801      0.2184
     14  O3'        9.5910  -13.0580   15.3160 O.3   801  ADP801     -0.2174
     15  C2'        8.0650  -14.8390   16.1150 C.3   801  ADP801      0.2570
     16  O2'        9.1160  -15.8090   15.7460 O.3   801  ADP801     -0.2130
     17  C1'        7.5500  -15.2100   17.5420 C.3   801  ADP801      0.3186
     18  N9         6.0140  -15.0630   17.7530 N.pl3 801  ADP801     -0.1439
     19  C8         5.3760  -14.1230   18.4370 C.3   801  ADP801      0.3377
     20  N7         4.0960  -14.2740   18.4300 N.2   801  ADP801     -0.2095
     21  C5         3.8620  -15.4150   17.6720 C.2   801  ADP801      0.2526
     22  C6         2.6750  -16.1650   17.2790 C.2   801  ADP801      0.4393
     23  N6         1.4090  -15.8130   17.6530 N.pl3 801  ADP801      0.2180
     24  N1         2.8440  -17.2790   16.5070 N.2   801  ADP801      0.0021
     25  C2         4.0680  -17.6430   16.1320 C.3   801  ADP801      0.5254
     26  N3         5.2170  -17.0170   16.4460 N.2   801  ADP801     -0.0055
     27  C4         5.0510  -15.9070   17.2240 C.2   801  ADP801      0.3518
@<TRIPOS>BOND
     1    14    13    1
     2    16    15    1
     3    15    13    1
     4    15    17    1
     5    25    26    1
     6    25    24    1
     7    13    11    1
     8    26    27    2
     9    24    22    2
    10    27    21    1
    11    27    18    1
    12    22    23    1
    13    22    21    1
    14    17    18    1
    15    17    12    1
    16    21    20    2
    17    11    12    1
    18    11    10    1
    19    18    19    1
    20     6     5    2
    21     9    10    1
    22     9     5    1
    23     7     5    1
    24    20    19    1
    25     5     8    1
    26     8     1    1
    27     4     1    2
    28     3     1    1
    29     1     2    1
