@<TRIPOS>MOLECULE
2zja_ACP_A_1.pdb
 31 33 0 0 0
SMALL
GASTEIGER

@<TRIPOS>ATOM
      1  PG         4.9380    8.1420   30.7900 P.3   901  ACP901      0.1295
      2  O1G        4.4600    6.7440   31.1970 O.3   901  ACP901     -0.3567
      3  O2G        6.4550    8.2160   30.8450 O.3   901  ACP901     -0.3567
      4  O3G        4.3650    8.5830   29.4190 O.2   901  ACP901     -0.4595
      5  PB         5.0130   10.7820   31.8380 P.3   901  ACP901      0.3815
      6  O1B        4.2210   11.7320   32.6800 O.3   901  ACP901     -0.1391
      7  O2B        5.3760   11.3240   30.5090 O.2   901  ACP901     -0.2547
      8  C3B        4.1560    9.3910   31.7660 C.3   901  ACP901      0.1768
      9  PA         8.0220   10.9000   32.2300 P.3   901  ACP901      0.2209
     10  O1A        8.2760   10.6910   30.7250 O.2   901  ACP901     -0.5170
     11  O2A        8.8470    9.9790   33.1110 O.3   901  ACP901     -0.4371
     12  O3A        6.4790   10.6740   32.5640 O.3   901  ACP901     -0.2483
     13  O5'        8.2920   12.4630   32.2680 O.3   901  ACP901     -0.3111
     14  C5'        8.1580   13.1250   33.5230 C.3   901  ACP901      0.1813
     15  C4'        8.5850   14.6010   33.6610 C.3   901  ACP901      0.1821
     16  O4'        7.9890   15.3700   34.6640 O.3   901  ACP901     -0.3135
     17  C3'        9.9760   14.3270   34.0650 C.3   901  ACP901      0.2184
     18  O3'       10.8380   15.3550   33.6470 O.3   901  ACP901     -0.2174
     19  C2'        9.7850   14.0760   35.5830 C.3   901  ACP901      0.2570
     20  O2'       11.0280   14.1680   36.2490 O.3   901  ACP901     -0.2130
     21  C1'        8.7640   15.1270   35.8580 C.3   901  ACP901      0.3186
     22  N9         7.7370   15.0020   36.9890 N.pl3 901  ACP901     -0.1439
     23  C8         6.7360   14.1300   37.2460 C.3   901  ACP901      0.3377
     24  N7         6.0280   14.3770   38.3550 N.2   901  ACP901     -0.2095
     25  C5         6.6200   15.4730   38.8250 C.2   901  ACP901      0.2526
     26  C6         6.4130   16.3210   39.9690 C.2   901  ACP901      0.4393
     27  N6         5.4170   16.0690   40.8680 N.pl3 901  ACP901      0.2180
     28  N1         7.2190   17.4250   40.1890 N.2   901  ACP901      0.0021
     29  C2         8.2220   17.7150   39.3210 C.3   901  ACP901      0.5254
     30  N3         8.4950   16.9770   38.2160 N.2   901  ACP901     -0.0055
     31  C4         7.6840   15.8910   38.0160 C.2   901  ACP901      0.3518
@<TRIPOS>BOND
     1     4     1    2
     2     7     5    2
     3    10     9    2
     4     1     3    1
     5     1     2    1
     6     1     8    1
     7     8     5    1
     8     5    12    1
     9     5     6    1
    10     9    13    1
    11     9    12    1
    12     9    11    1
    13    13    14    1
    14    14    15    1
    15    18    17    1
    16    15    17    1
    17    15    16    1
    18    17    19    1
    19    16    21    1
    20    19    21    1
    21    19    20    1
    22    21    22    1
    23    22    23    1
    24    22    31    1
    25    23    24    1
    26    31    30    2
    27    31    25    1
    28    30    29    1
    29    24    25    2
    30    25    26    1
    31    29    28    1
    32    26    28    2
    33    26    27    1
