@<TRIPOS>MOLECULE
2zjf_BSU_A_1.pdb
 16 17 0 0 0
SMALL
GASTEIGER

@<TRIPOS>ATOM
      1  N7        -3.6830   -0.1380   19.8580 N.am  360  BSU360     -0.1607
      2  C8        -4.1800    1.1190   19.8610 C.2   360  BSU360      0.3477
      3  N9        -3.2250    2.0720   19.7920 N.am  360  BSU360     -0.1607
      4  O11       -5.3830    1.3590   19.9270 O.2   360  BSU360     -0.2484
      5  C5        -4.3190   -1.3350   19.9030 C.ar  360  BSU360      0.0750
      6  C4        -3.4380   -2.4730   19.9080 C.ar  360  BSU360      0.0167
      7  C3        -3.9710   -3.8030   19.9560 C.ar  360  BSU360      0.0013
      8  C2        -5.3930   -3.9900   19.9960 C.ar  360  BSU360      0.0001
      9  C1        -6.2840   -2.8840   19.9910 C.ar  360  BSU360      0.0013
     10  C6        -5.7510   -1.5540   19.9460 C.ar  360  BSU360      0.0167
     11  C10       -3.3470    3.4330   19.7840 C.ar  360  BSU360      0.0750
     12  C16       -4.5830    4.1970   19.8500 C.ar  360  BSU360      0.0167
     13  C15       -4.5700    5.6250   19.8400 C.ar  360  BSU360      0.0013
     14  C14       -3.3080    6.3060   19.7630 C.ar  360  BSU360      0.0001
     15  C13       -2.0690    5.5700   19.6950 C.ar  360  BSU360      0.0013
     16  C12       -2.0980    4.1390   19.7060 C.ar  360  BSU360      0.0167
@<TRIPOS>BOND
     1    15    16   ar
     2    15    14   ar
     3    16    11   ar
     4    14    13   ar
     5    11     3    1
     6    11    12   ar
     7     3     2   am
     8    13    12   ar
     9     1     2   am
    10     1     5    1
    11     2     4    2
    12     5     6   ar
    13     5    10   ar
    14     6     7   ar
    15    10     9   ar
    16     7     8   ar
    17     9     8   ar
