@<TRIPOS>MOLECULE
2zjh_F1H_A_1.pdb
 20 21 0 0 0
SMALL
GASTEIGER

@<TRIPOS>ATOM
      1  C16       77.9770   36.6580   21.8620 C.ar  449  F1H449     -0.0029
      2  C17       77.9600   37.9400   22.4150 C.ar  449  F1H449     -0.0003
      3  C20       78.4700   37.6020   19.6870 C.ar  449  F1H449     -0.0029
      4  C15       78.2270   36.4910   20.4980 C.ar  449  F1H449     -0.0061
      5  C12       77.1000   33.1330   19.3120 C.3   449  F1H449      0.0741
      6  C13       75.9160   32.2620   19.7270 C.3   449  F1H449      0.0390
      7  C14       78.2480   35.1130   19.8750 C.3   449  F1H449      0.0991
      8  C10       75.8370   35.1480   19.7520 C.3   449  F1H449      0.0741
      9  C9        74.6310   34.3330   20.2150 C.3   449  F1H449      0.0390
     10  C7        69.0110   31.3830   19.6900 C.3   449  F1H449      0.0692
     11  C5        71.4690   30.9140   19.5390 C.3   449  F1H449      0.0877
     12  C6        70.2200   31.3310   18.7690 C.3   449  F1H449      0.0221
     13  C3        72.6960   31.5980   18.9810 C.2   449  F1H449      0.2413
     14  C1        74.6100   33.0050   19.4650 C.3   449  F1H449      0.0981
     15  O4        72.9350   31.5710   17.7820 O.2   449  F1H449     -0.2733
     16  S8        68.9430   33.0220   20.4510 S.3   449  F1H449     -0.0821
     17  N2        73.4750   32.2050   19.8710 N.am  449  F1H449     -0.2071
     18  N11       77.0220   34.3590   20.1050 N.3   449  F1H449     -0.2688
     19  C18       78.2010   39.0510   21.6030 C.ar  449  F1H449     -0.0000
     20  C19       78.4530   38.8810   20.2400 C.ar  449  F1H449     -0.0003
@<TRIPOS>BOND
     1    15    13    2
     2    12    11    1
     3    12    10    1
     4    13    11    1
     5    13    17   am
     6     5     6    1
     7     5    18    1
     8    14     6    1
     9    14    17    1
    10    14     9    1
    11     3    20   ar
    12     3     4   ar
    13    10    16    1
    14     8    18    1
    15     8     9    1
    16     7    18    1
    17     7     4    1
    18    20    19   ar
    19     4     1   ar
    20    19     2   ar
    21     1     2   ar
