@<TRIPOS>MOLECULE
2zji_F1I_A_1.pdb
 24 25 0 0 0
SMALL
GASTEIGER

@<TRIPOS>ATOM
      1  C28       79.8090   34.3050   16.3420 C.3   449  F1I449      0.2525
      2  C27       77.7520   38.2140   21.6070 C.3   449  F1I449      0.2525
      3  O25       78.6520   34.9490   16.8750 O.3   449  F1I449     -0.4716
      4  C16       78.8290   37.4820   19.5410 C.ar  449  F1I449      0.1389
      5  C17       78.9220   38.6410   18.7680 C.ar  449  F1I449      0.0368
      6  C20       78.7430   36.1540   17.5270 C.ar  449  F1I449      0.1389
      7  C15       78.7290   36.2330   18.9230 C.ar  449  F1I449      0.0617
      8  C12       77.2580   33.1980   19.0010 C.3   449  F1I449      0.0741
      9  C13       76.0430   32.3720   19.4190 C.3   449  F1I449      0.0390
     10  C14       78.6400   34.9800   19.7850 C.3   449  F1I449      0.1053
     11  C10       76.1960   35.2500   19.7650 C.3   449  F1I449      0.0741
     12  C9        74.9610   34.4690   20.2140 C.3   449  F1I449      0.0390
     13  C7        69.6440   32.2270   17.8150 C.3   449  F1I449      0.0692
     14  C5        71.3960   31.5940   19.5010 C.3   449  F1I449      0.0877
     15  C6        70.4060   32.6670   19.0590 C.3   449  F1I449      0.0221
     16  C3        72.7690   31.8960   18.9460 C.2   449  F1I449      0.2413
     17  C1        74.7770   33.2210   19.3530 C.3   449  F1I449      0.0981
     18  O4        73.0350   31.6310   17.7810 O.2   449  F1I449     -0.2733
     19  S8        68.0820   31.4510   18.3060 S.3   449  F1I449     -0.0821
     20  N2        73.6340   32.4460   19.7980 N.am  449  F1I449     -0.2071
     21  N11       77.3310   34.3330   19.9250 N.3   449  F1I449     -0.2687
     22  O26       78.8320   37.5890   20.9110 O.3   449  F1I449     -0.4716
     23  C18       78.9220   38.5640   17.3790 C.ar  449  F1I449      0.0062
     24  C19       78.8300   37.3200   16.7650 C.ar  449  F1I449      0.0368
@<TRIPOS>BOND
     1     1     3    1
     2    24    23   ar
     3    24     6   ar
     4     3     6    1
     5    23     5   ar
     6     6     7   ar
     7    18    16    2
     8    13    19    1
     9    13    15    1
    10     5     4   ar
    11     7     4   ar
    12     7    10    1
    13    16    14    1
    14    16    20   am
    15     8     9    1
    16     8    21    1
    17    15    14    1
    18    17     9    1
    19    17    20    1
    20    17    12    1
    21     4    22    1
    22    11    21    1
    23    11    12    1
    24    10    21    1
    25    22     2    1
