@<TRIPOS>MOLECULE
2zjj_F1J_A_1.pdb
 20 21 0 0 0
SMALL
GASTEIGER

@<TRIPOS>ATOM
      1  C15       18.8360   29.8520   25.3640 C.2   449  F1J449      0.2586
      2  C12       21.7320   35.1820   28.5970 C.ar  449  F1J449      0.0294
      3  C13       21.8800   33.8180   28.8520 C.ar  449  F1J449     -0.0006
      4  C11       20.4670   35.7690   28.6530 C.ar  449  F1J449      0.1401
      5  C10       19.3470   34.9990   28.9650 C.ar  449  F1J449      0.0294
      6  C9        19.4980   33.6380   29.2240 C.ar  449  F1J449     -0.0006
      7  C8        20.7620   33.0440   29.1650 C.ar  449  F1J449     -0.0060
      8  C7        20.9320   31.5640   29.4410 C.3   449  F1J449      0.0992
      9  C4        20.0860   30.5960   27.3920 C.3   449  F1J449      0.0994
     10  C5        18.7830   29.9940   26.8580 C.3   449  F1J449      0.1664
     11  C2        19.7590   29.4890   29.5050 C.3   449  F1J449      0.0914
     12  C1        18.4750   28.8680   28.9600 C.3   449  F1J449      0.1065
     13  O17       19.0530   28.7630   24.8550 O.2   449  F1J449     -0.2718
     14  N16       18.6310   30.9610   24.6520 N.am  449  F1J449     -0.2033
     15  C18       18.6990   30.9860   23.2010 C.3   449  F1J449      0.1277
     16  C19       20.1140   31.2480   22.6960 C.3   449  F1J449      0.0920
     17  S20       20.4250   33.0320   22.6890 S.3   449  F1J449     -0.0802
     18  N6        18.5040   28.7250   27.5140 N.3   449  F1J449     -0.2075
     19  N3        19.8640   30.7780   28.8280 N.3   449  F1J449     -0.2661
     20  F14       20.3220   37.0830   28.4100 F     449  F1J449     -0.2042
@<TRIPOS>BOND
     1    17    16    1
     2    16    15    1
     3    15    14    1
     4    14     1   am
     5    13     1    2
     6     1    10    1
     7    10     9    1
     8    10    18    1
     9     9    19    1
    10    18    12    1
    11    20     4    1
    12     2     4   ar
    13     2     3   ar
    14     4     5   ar
    15    19     8    1
    16    19    11    1
    17     3     7   ar
    18    12    11    1
    19     5     6   ar
    20     7     6   ar
    21     7     8    1
