@<TRIPOS>MOLECULE
2zjk_F1K_A_1.pdb
 21 22 0 0 0
SMALL
GASTEIGER

@<TRIPOS>ATOM
      1  C24       45.3730   73.5380   23.7920 C.ar  449  F1K449     -0.0006
      2  C23       45.3660   73.1980   25.1440 C.ar  449  F1K449      0.0294
      3  C22       45.5730   71.8730   25.5230 C.ar  449  F1K449      0.1401
      4  C20       45.7880   71.2270   23.2020 C.ar  449  F1K449     -0.0006
      5  C12       36.9090   70.6070   22.1270 C.3   449  F1K449      0.0705
      6  C11       38.2350   71.1040   21.5600 C.3   449  F1K449      0.0359
      7  C10       38.4280   72.5910   21.8380 C.3   449  F1K449      0.1161
      8  C7        40.7740   73.2350   21.6990 C.2   449  F1K449      0.2586
      9  C4        43.2210   73.3480   21.3460 C.3   449  F1K449      0.0994
     10  C5        41.9340   72.6360   20.9480 C.3   449  F1K449      0.1664
     11  C2        44.3040   72.6560   19.3180 C.3   449  F1K449      0.0914
     12  C1        42.9560   72.1110   18.8290 C.3   449  F1K449      0.1065
     13  F25       45.5640   71.5480   26.8280 F     449  F1K449     -0.2042
     14  C21       45.7850   70.8860   24.5550 C.ar  449  F1K449      0.0294
     15  C19       45.5850   72.5540   22.8210 C.ar  449  F1K449     -0.0060
     16  C18       45.5780   72.9270   21.3540 C.3   449  F1K449      0.0992
     17  N3        44.2930   72.5410   20.7760 N.3   449  F1K449     -0.2661
     18  N6        41.8010   72.7010   19.4970 N.3   449  F1K449     -0.2075
     19  O9        40.9430   73.7840   22.7800 O.2   449  F1K449     -0.2718
     20  N8        39.5740   73.1300   21.1310 N.am  449  F1K449     -0.2042
     21  S13       37.0600   70.3600   23.9150 S.3   449  F1K449     -0.0821
@<TRIPOS>BOND
     1    12    11    1
     2    12    18    1
     3    11    17    1
     4    18    10    1
     5    17     9    1
     6    17    16    1
     7    10     9    1
     8    10     8    1
     9    20     8   am
    10    20     7    1
    11    16    15    1
    12     6     7    1
    13     6     5    1
    14     8    19    2
    15     5    21    1
    16    15     4   ar
    17    15     1   ar
    18     4    14   ar
    19     1     2   ar
    20    14     3   ar
    21     2     3   ar
    22     3    13    1
