@<TRIPOS>MOLECULE
2zjl_F1L_A_1.pdb
 25 26 0 0 0
SMALL
GASTEIGER

@<TRIPOS>ATOM
      1  C28       79.7210   41.0790   22.5530 C.3   449  F1L449      0.2526
      2  C26       80.0860   38.4680   18.7960 C.3   449  F1L449      0.2526
      3  C24       79.1300   37.7900   20.9370 C.ar  449  F1L449      0.1697
      4  C23       79.3900   38.7240   21.9310 C.ar  449  F1L449      0.1726
      5  C22       79.5510   38.3010   23.2520 C.ar  449  F1L449      0.0467
      6  O25       78.9650   38.2150   19.6400 O.3   449  F1L449     -0.4686
      7  C20       79.1930   36.0180   22.5800 C.ar  449  F1L449      0.0070
      8  C12       70.4600   33.0690   20.7110 C.3   449  F1L449      0.0692
      9  C11       70.7360   32.2540   19.4550 C.3   449  F1L449      0.0221
     10  C10       71.9010   31.2960   19.6840 C.3   449  F1L449      0.0877
     11  C8        73.1980   31.9240   19.2300 C.2   449  F1L449      0.2413
     12  C4        77.4440   33.6370   19.3510 C.3   449  F1L449      0.0741
     13  C5        76.3060   32.6830   19.7110 C.3   449  F1L449      0.0390
     14  C6        75.0020   33.4620   19.8410 C.3   449  F1L449      0.0981
     15  C2        76.3480   35.4580   20.5270 C.3   449  F1L449      0.0741
     16  C1        75.1850   34.5390   20.9070 C.3   449  F1L449      0.0390
     17 BR29       79.6800   36.3960   25.3740 Br    449  F1L449     -0.0489
     18  C21       79.4550   36.9510   23.5780 C.ar  449  F1L449      0.0375
     19  O27       79.4860   40.0530   21.5890 O.3   449  F1L449     -0.4684
     20  C19       79.0260   36.4380   21.2570 C.ar  449  F1L449      0.0314
     21  C18       78.7360   35.4220   20.1690 C.3   449  F1L449      0.1023
     22  N3        77.5470   34.6180   20.4300 N.3   449  F1L449     -0.2688
     23  N7        73.8950   32.5800   20.1650 N.am  449  F1L449     -0.2071
     24  O9        73.5560   31.8100   18.0640 O.2   449  F1L449     -0.2733
     25  S13       68.9110   33.9840   20.5300 S.3   449  F1L449     -0.0821
@<TRIPOS>BOND
     1    24    11    2
     2     2     6    1
     3    11    10    1
     4    11    23   am
     5    12    13    1
     6    12    22    1
     7     9    10    1
     8     9     8    1
     9     6     3    1
    10    13    14    1
    11    14    23    1
    12    14    16    1
    13    21    22    1
    14    21    20    1
    15    22    15    1
    16    15    16    1
    17    25     8    1
    18     3    20   ar
    19     3     4   ar
    20    20     7   ar
    21    19     4    1
    22    19     1    1
    23     4     5   ar
    24     7    18   ar
    25     5    18   ar
    26    18    17    1
