@<TRIPOS>MOLECULE
2zjm_F1M_A_1.pdb
 35 37 0 0 0
SMALL
GASTEIGER

@<TRIPOS>ATOM
      1  C1        33.8070   41.6450    2.1170 C.ar  395  F1M395      0.1694
      2  C2        33.9040   42.8250    2.9080 C.ar  395  F1M395      0.1729
      3  C3        33.4300   39.1020    1.9790 C.3   395  F1M395      0.1023
      4  C7        27.5550   35.7110    2.4780 C.2   395  F1M395      0.2858
      5  C8        33.9650   40.2640    4.1190 C.ar  395  F1M395      0.0117
      6  C11       34.0890   41.4230    4.8760 C.ar  395  F1M395      0.0606
      7  C13       30.9360   39.3530    2.4800 C.3   395  F1M395      0.0741
      8  C14       31.8210   37.1950    1.7920 C.3   395  F1M395      0.0741
      9  C16       22.9760   35.7650    0.0110 C.ar  395  F1M395      0.0231
     10  C19       30.6180   36.4540    2.4340 C.3   395  F1M395      0.0390
     11  C20       29.3820   37.3770    2.4460 C.3   395  F1M395      0.0982
     12  C22       26.4660   35.1330    3.3500 C.3   395  F1M395      0.2911
     13  C27       35.2500   42.0800    0.3090 C.3   395  F1M395      0.1663
     14  C30       35.3770   41.7790   -1.1620 C.3   395  F1M395      0.0472
     15  S         22.1010   38.2620   -0.8150 S.O2  395  F1M395      0.0935
     16  C         33.7420   40.3650    2.7340 C.ar  395  F1M395      0.0317
     17  N         32.1450   38.4660    2.4740 N.3   395  F1M395     -0.2688
     18  C4        23.0320   37.1600    0.1910 C.ar  395  F1M395      0.1252
     19  C5        34.0170   42.6820    4.3060 C.ar  395  F1M395      0.0514
     20  O         20.7150   37.9680   -0.6210 O.2   395  F1M395     -0.1503
     21  O6        22.5730   39.6120   -0.6500 O.2   395  F1M395     -0.1503
     22  O9        33.9250   41.7050    0.7320 O.3   395  F1M395     -0.4764
     23  N10       28.2190   36.7140    3.0870 N.am  395  F1M395     -0.2040
     24  N12       22.4540   37.7370   -2.4380 N.3   395  F1M395      0.0392
     25  O15       27.7730   35.2920    1.3540 O.2   395  F1M395     -0.2693
     26  C17       23.8230   37.7390    1.1760 C.ar  395  F1M395      0.0231
     27  C18       29.7440   38.6810    3.1880 C.3   395  F1M395      0.0390
     28  O21       25.4090   34.6270    2.5490 O.3   395  F1M395     -0.4656
     29  C23       24.6040   35.5140    1.8200 C.ar  395  F1M395      0.1394
     30  O24       33.9050   44.0330    2.1990 O.3   395  F1M395     -0.4684
     31 CL         34.2020   41.2690    6.5410 Cl    395  F1M395     -0.0821
     32  C25       23.7650   34.9410    0.8360 C.ar  395  F1M395      0.0383
     33  C26       24.6060   36.9240    1.9930 C.ar  395  F1M395      0.0383
     34  C28       34.3610   45.2060    2.8580 C.3   395  F1M395      0.2526
     35  C29       36.4820   41.3580    0.9570 C.3   395  F1M395      0.0472
@<TRIPOS>BOND
     1    24    15    1
     2    14    13    1
     3    15    21    2
     4    15    20    2
     5    15    18    1
     6     9    18   ar
     7     9    32   ar
     8    18    26   ar
     9    13    22    1
    10    13    35    1
    11    22     1    1
    12    32    29   ar
    13    26    33   ar
    14    25     4    2
    15     8    10    1
    16     8    17    1
    17    29    33   ar
    18    29    28    1
    19     3    17    1
    20     3    16    1
    21     1    16   ar
    22     1     2   ar
    23    30    34    1
    24    30     2    1
    25    10    11    1
    26    11    23    1
    27    11    27    1
    28    17     7    1
    29     4    23   am
    30     4    12    1
    31     7    27    1
    32    28    12    1
    33    16     5   ar
    34     2    19   ar
    35     5     6   ar
    36    19     6   ar
    37     6    31    1
