@<TRIPOS>MOLECULE
2zjn_F1N_A_1.pdb
 36 38 0 0 0
SMALL
GASTEIGER

@<TRIPOS>ATOM
      1  C31       79.5380   39.7980   19.3320 C.3   449  F1N449      0.1663
      2  C28       78.9300   39.2670   22.4480 C.ar  449  F1N449      0.1729
      3  C27       79.1750   38.6610   23.6860 C.ar  449  F1N449      0.0514
      4  C26       79.2820   37.2750   23.7790 C.ar  449  F1N449      0.0606
      5  C24       78.9000   37.0910   21.4050 C.ar  449  F1N449      0.0317
      6  C23       78.7430   36.2150   20.1790 C.3   449  F1N449      0.1023
      7  C22       76.4810   33.3230   19.6710 C.3   449  F1N449      0.0390
      8  C17       75.1190   34.0090   19.7760 C.3   449  F1N449      0.0982
      9  C12       69.2520   31.5450   17.2480 C.3   449  F1N449      0.0342
     10  C11       69.3710   32.7140   18.1920 C.ar  449  F1N449      0.0135
     11  C10       68.5660   33.8360   18.0000 C.ar  449  F1N449      0.0187
     12  C9        68.6560   34.9310   18.8610 C.ar  449  F1N449      0.1249
     13  C8        69.5670   34.8970   19.9190 C.ar  449  F1N449      0.0231
     14  C7        70.3700   33.7730   20.1100 C.ar  449  F1N449      0.0380
     15  C6        70.2780   32.6790   19.2440 C.ar  449  F1N449      0.1353
     16  C3        72.2850   31.5460   20.1540 C.3   449  F1N449      0.2911
     17  C2        73.3770   32.3200   19.4610 C.2   449  F1N449      0.2858
     18 CL36       79.5940   36.4930   25.3630 Cl    449  F1N449     -0.0821
     19  O34       78.8180   40.6340   22.3390 O.3   449  F1N449     -0.4684
     20  C35       79.5350   41.5270   23.1920 C.3   449  F1N449      0.2526
     21  C29       78.7960   38.4800   21.3080 C.ar  449  F1N449      0.1694
     22  O30       78.5510   39.0700   20.0840 O.3   449  F1N449     -0.4764
     23  C33       79.2430   39.6660   17.8420 C.3   449  F1N449      0.0472
     24  C32       80.9650   39.3460   19.6350 C.3   449  F1N449      0.0472
     25  C25       79.1440   36.4910   22.6390 C.ar  449  F1N449      0.0117
     26  N20       77.5710   35.3570   20.3290 N.3   449  F1N449     -0.2688
     27  C21       77.5810   34.3200   19.2990 C.3   449  F1N449      0.0741
     28  C19       76.3370   36.1430   20.2640 C.3   449  F1N449      0.0741
     29  C18       75.2160   35.2070   20.7170 C.3   449  F1N449      0.0390
     30  N4        74.1220   33.0780   20.2650 N.am  449  F1N449     -0.2040
     31  O1        73.5370   32.2260   18.2520 O.2   449  F1N449     -0.2693
     32  O5        71.0620   31.5610   19.4110 O.3   449  F1N449     -0.4659
     33  S13       67.7170   36.2060   18.6140 S.O2  449  F1N449      0.0935
     34  O15       66.3670   35.7630   18.4160 O.2   449  F1N449     -0.1503
     35  O16       67.7590   37.1120   19.7350 O.2   449  F1N449     -0.1503
     36  N14       68.2280   36.9710   17.3040 N.3   449  F1N449      0.0392
@<TRIPOS>BOND
     1     9    10    1
     2    36    33    1
     3    23     1    1
     4    11    10   ar
     5    11    12   ar
     6    10    15   ar
     7    31    17    2
     8    34    33    2
     9    33    12    1
    10    33    35    2
    11    12    13   ar
    12    15    32    1
    13    15    14   ar
    14    27     7    1
    15    27    26    1
    16     1    24    1
    17     1    22    1
    18    32    16    1
    19    17    16    1
    20    17    30   am
    21     7     8    1
    22     8    30    1
    23     8    29    1
    24    13    14   ar
    25    22    21    1
    26     6    26    1
    27     6     5    1
    28    28    26    1
    29    28    29    1
    30    21     5   ar
    31    21     2   ar
    32     5    25   ar
    33    19     2    1
    34    19    20    1
    35     2     3   ar
    36    25     4   ar
    37     3     4   ar
    38     4    18    1
