@<TRIPOS>MOLECULE
2zju_IM4_A_1.pdb
 17 18 0 0 0
SMALL
GASTEIGER

@<TRIPOS>ATOM
      1  C5        29.9310  -27.6730  -31.5650 C.ar  301  IM4301      0.0016
      2  C6        29.4720  -26.8520  -32.6270 C.ar  301  IM4301      0.0305
      3  C1        29.4520  -25.4450  -32.4270 C.ar  301  IM4301      0.1383
      4 CL7        28.9030  -24.4050  -33.7080 Cl    301  IM4301     -0.0613
      5  N2        29.8530  -24.9010  -31.2700 N.ar  301  IM4301     -0.2327
      6  C3        30.2930  -25.6520  -30.2440 C.ar  301  IM4301      0.0974
      7  C4        30.3560  -27.0840  -30.3420 C.ar  301  IM4301      0.0197
      8  C8        30.8620  -27.9590  -29.1820 C.3   301  IM4301      0.1371
      9  N9        30.4740  -27.5720  -27.8100 N.ar  301  IM4301     -0.2913
     10  C13       31.2770  -26.6650  -26.9730 C.ar  301  IM4301      0.0993
     11  C12       30.5190  -26.5320  -25.6360 C.ar  301  IM4301      0.1206
     12  N11       29.3270  -27.3680  -25.7820 N.ar  301  IM4301     -0.2091
     13  C10       29.3130  -27.9570  -27.0660 C.ar  301  IM4301      0.2449
     14  N14       28.4160  -28.7680  -27.5020 N.pl3 301  IM4301     -0.0266
     15  N15       27.2430  -29.2760  -26.9930 N.pl3 301  IM4301      0.1471
     16  O16       26.8050  -29.0090  -25.7960 O.2   301  IM4301     -0.1077
     17  O17       26.5520  -30.0730  -27.7290 O.2   301  IM4301     -0.1077
@<TRIPOS>BOND
     1     4     3    1
     2     2     3   ar
     3     2     1   ar
     4     3     5   ar
     5     1     7   ar
     6     5     6   ar
     7     7     6   ar
     8     7     8    1
     9     8     9    1
    10     9    13   ar
    11     9    10   ar
    12    17    15    2
    13    14    13    1
    14    14    15    1
    15    13    12   ar
    16    15    16    2
    17    10    11   ar
    18    12    11   ar
