@<TRIPOS>MOLECULE
2zjv_CT4_A_1.pdb
 15 15 0 0 0
SMALL
GASTEIGER

@<TRIPOS>ATOM
      1  N         30.8480  -27.0810  -28.5190 N.pl3 301  CT4301     -0.0846
      2  C         30.0040  -27.3870  -27.4620 C.cat 301  CT4301      0.4849
      3  N1        30.6110  -26.9700  -26.2840 N.pl3 301  CT4301     -0.0863
      4  N2        28.8410  -27.9650  -27.7360 N.pl3 301  CT4301      0.1043
      5  C1        30.5540  -27.3640  -29.9180 C.3   301  CT4301      0.2548
      6  C2        30.1890  -26.1590  -30.7360 C.ar  301  CT4301      0.0717
      7  C3        31.8990  -26.3320  -26.0630 C.3   301  CT4301      0.2669
      8  S         29.7710  -26.3170  -32.3990 S.2   301  CT4301     -0.0559
      9  C4        29.5470  -24.6300  -32.4690 C.ar  301  CT4301      0.1681
     10  N4        29.7510  -23.9410  -31.3700 N.ar  301  CT4301     -0.2256
     11  C5        30.1210  -24.8210  -30.3730 C.ar  301  CT4301      0.1061
     12 CL         29.0740  -23.8930  -33.9390 Cl    301  CT4301     -0.0542
     13  N5        27.9500  -28.2990  -26.7700 N.pl3 301  CT4301      0.2220
     14  O1        26.8880  -28.8470  -27.1360 O.2   301  CT4301     -0.0910
     15  O2        28.1910  -28.0530  -25.5610 O.2   301  CT4301     -0.0910
@<TRIPOS>BOND
     1    12     9    1
     2     9     8   ar
     3     9    10   ar
     4     8     6   ar
     5    10    11   ar
     6     6    11   ar
     7     6     5    1
     8     5     1    1
     9     1     2    1
    10     4     2    2
    11     4    13    1
    12     2     3    1
    13    14    13    2
    14    13    15    2
    15     3     7    1
