@<TRIPOS>MOLECULE
2zjw_REF_A_1.pdb
 22 25 0 0 0
SMALL
GASTEIGER

@<TRIPOS>ATOM
      1  C1        36.2990   -4.1210   11.3460 C.ar  336  REF336      0.0825
      2  C2        36.7620   -3.9980   10.0510 C.ar  336  REF336      0.0476
      3  C3        37.0360   -5.1560    9.3730 C.ar  336  REF336      0.0476
      4  C4        36.8540   -6.3910    9.9870 C.ar  336  REF336      0.1909
      5  O5        36.4080   -6.4780   11.2130 O.2   336  REF336     -0.4176
      6  C6        36.1270   -5.3960   11.8930 C.ar  336  REF336      0.3460
      7  C7        37.4950   -5.0300    8.0770 C.ar  336  REF336      0.0825
      8  C8        37.8020   -6.1670    7.3410 C.ar  336  REF336      0.0521
      9  C9        37.6380   -7.4090    7.9360 C.ar  336  REF336      0.2376
     10  C10       37.1730   -7.5170    9.2340 C.ar  336  REF336      0.2684
     11  C11       36.9570   -2.7650    9.4290 C.ar  336  REF336      0.1909
     12  O12       37.3840   -2.6760    8.2030 O.2   336  REF336     -0.4176
     13  C13       37.6500   -3.7590    7.5280 C.ar  336  REF336      0.3460
     14  C14       36.0200   -2.9650   12.0640 C.ar  336  REF336      0.0521
     15  C15       36.2260   -1.7260   11.4630 C.ar  336  REF336      0.2376
     16  C16       36.6900   -1.6180   10.1560 C.ar  336  REF336      0.2684
     17  O19       37.0570   -8.7500    9.7080 O.3   336  REF336     -0.2798
     18  O20       37.9390   -8.5720    7.2540 O.3   336  REF336     -0.2830
     19  O21       38.0940   -3.6720    6.2710 O.2   336  REF336     -0.2445
     20  O22       36.8970   -0.3670    9.5960 O.3   336  REF336     -0.2798
     21  O23       35.9810   -0.5860   12.1650 O.3   336  REF336     -0.2830
     22  O24       35.6540   -5.5010   13.1600 O.2   336  REF336     -0.2445
@<TRIPOS>BOND
     1    19    13    2
     2    18     9    1
     3     8     9   ar
     4     8     7   ar
     5    13     7   ar
     6    13    12   ar
     7     9    10   ar
     8     7     3   ar
     9    12    11   ar
    10    10    17    1
    11    10     4   ar
    12     3     4   ar
    13     3     2   ar
    14    11     2   ar
    15    11    16   ar
    16    20    16    1
    17     4     5   ar
    18     2     1   ar
    19    16    15   ar
    20     5     6   ar
    21     1     6   ar
    22     1    14   ar
    23    15    14   ar
    24    15    21    1
    25     6    22    2
