@<TRIPOS>MOLECULE
2zjy_GDP_A_1.pdb
 28 30 0 0 0
SMALL
GASTEIGER

@<TRIPOS>ATOM
      1  PB        43.4490   30.5160    9.9970 P.3   355  GDP355      0.5373
      2  O1B       43.3320   31.6930    9.1780 O.2   355  GDP355     -0.2221
      3  O2B       44.8150   30.1410   10.3600 O.3   355  GDP355     -0.1143
      4  O3B       42.4450   30.5720   11.0730 O.3   355  GDP355     -0.1143
      5  O3A       42.9590   29.3060    9.1000 O.3   355  GDP355     -0.2261
      6  PA        42.4330   27.8310    9.3600 P.3   355  GDP355      0.2231
      7  O1A       43.4490   26.9040    8.8370 O.2   355  GDP355     -0.5169
      8  O2A       42.0590   27.6790   10.8490 O.3   355  GDP355     -0.4370
      9  O5'       41.1920   27.7420    8.3950 O.3   355  GDP355     -0.3111
     10  C5'       39.7800   27.8350    8.7760 C.3   355  GDP355      0.1813
     11  C4'       38.9070   26.7080    8.2500 C.3   355  GDP355      0.1799
     12  O4'       38.8970   26.6650    6.7620 O.3   355  GDP355     -0.3326
     13  C3'       39.3980   25.3440    8.7320 C.3   355  GDP355      0.2158
     14  O3'       38.3250   24.4990    9.1300 O.3   355  GDP355     -0.2175
     15  C2'       40.1100   24.7930    7.4580 C.3   355  GDP355      0.2310
     16  O2'       40.1790   23.3730    7.3630 O.3   355  GDP355     -0.2158
     17  C1'       39.3410   25.3780    6.2770 C.3   355  GDP355      0.2293
     18  N9        40.2250   25.6130    5.1500 N.pl3 355  GDP355     -0.2354
     19  C8        41.4600   26.2450    5.0700 C.3   355  GDP355      0.2246
     20  N7        41.9980   26.2940    3.8590 N.2   355  GDP355     -0.2322
     21  C5        41.0040   25.6200    3.0760 C.2   355  GDP355      0.2182
     22  C6        40.9240   25.2950    1.6170 C.1   355  GDP355      0.2372
     23  O6        41.7210   25.5400    0.7270 O.2   355  GDP355     -0.2069
     24  N1        39.7610   24.6060    1.2340 N.2   355  GDP355     -0.2485
     25  C2        38.7460   24.2430    2.1180 C.1   355  GDP355      0.2531
     26  N2        37.7050   23.5970    1.6800 N.pl3 355  GDP355     -0.0226
     27  N3        38.8060   24.5400    3.4450 N.2   355  GDP355     -0.3074
     28  C4        39.9460   25.2180    3.8700 C.2   355  GDP355      0.2300
@<TRIPOS>BOND
     1    23    22    2
     2    24    22    2
     3    24    25    2
     4    22    21    1
     5    26    25    1
     6    25    27    2
     7    21    20    2
     8    21    28    1
     9    27    28    2
    10    20    19    1
    11    28    18    1
    12    19    18    1
    13    18    17    1
    14    17    12    1
    15    17    15    1
    16    12    11    1
    17    16    15    1
    18    15    13    1
    19    11    13    1
    20    11    10    1
    21     9    10    1
    22     9     6    1
    23    13    14    1
    24     7     6    2
    25     5     6    1
    26     5     1    1
    27     2     1    2
    28     6     8    1
    29     1     3    1
    30     1     4    1
