@<TRIPOS>MOLECULE
2zjz_GDP_A_1.pdb
 28 30 0 0 0
SMALL
GASTEIGER

@<TRIPOS>ATOM
      1  PB        33.3820  149.0100    2.0650 P.3   355  GDP355      0.5373
      2  O1B       31.9170  149.1050    2.2440 O.3   355  GDP355     -0.1143
      3  O2B       34.2030  149.1090    3.4450 O.3   355  GDP355     -0.1143
      4  O3B       33.8600  147.6280    1.3930 O.2   355  GDP355     -0.2221
      5  O3A       33.9530  150.2020    1.1450 O.3   355  GDP355     -0.2261
      6  PA        34.1960  150.0060   -0.4350 P.3   355  GDP355      0.2231
      7  O1A       32.9650  149.4530   -1.0450 O.2   355  GDP355     -0.5169
      8  O2A       35.4640  149.2620   -0.6120 O.3   355  GDP355     -0.4370
      9  O5'       34.3840  151.5280   -0.9220 O.3   355  GDP355     -0.3111
     10  C5'       33.2170  152.3440   -1.0680 C.3   355  GDP355      0.1813
     11  C4'       33.4420  153.4860   -2.0620 C.3   355  GDP355      0.1799
     12  O4'       34.5740  154.2500   -1.6080 O.3   355  GDP355     -0.3326
     13  C3'       33.8060  152.9380   -3.4450 C.3   355  GDP355      0.2158
     14  O3'       33.3710  153.8450   -4.4610 O.3   355  GDP355     -0.2175
     15  C2'       35.3310  152.9080   -3.3800 C.3   355  GDP355      0.2310
     16  O2'       35.8390  153.0190   -4.7130 O.3   355  GDP355     -0.2158
     17  C1'       35.5790  154.2200   -2.6340 C.3   355  GDP355      0.2293
     18  N9        36.9200  154.2860   -2.0040 N.pl3 355  GDP355     -0.2354
     19  C8        37.4270  153.3920   -1.1580 C.3   355  GDP355      0.2246
     20  N7        38.6280  153.7960   -0.7470 N.2   355  GDP355     -0.2322
     21  C5        38.8930  154.9560   -1.3370 C.2   355  GDP355      0.2182
     22  C6        39.9840  155.8180   -1.2990 C.1   355  GDP355      0.2372
     23  O6        40.9790  155.5450   -0.6310 O.2   355  GDP355     -0.2069
     24  N1        39.9490  156.9830   -2.0740 N.2   355  GDP355     -0.2485
     25  C2        38.8270  157.2490   -2.8690 C.1   355  GDP355      0.2531
     26  N2        38.7970  158.3270   -3.6470 N.pl3 355  GDP355     -0.0226
     27  N3        37.7950  156.3910   -2.8780 N.2   355  GDP355     -0.3074
     28  C4        37.8030  155.2700   -2.1420 C.2   355  GDP355      0.2300
@<TRIPOS>BOND
     1    16    15    1
     2    14    13    1
     3    26    25    1
     4    13    15    1
     5    13    11    1
     6    15    17    1
     7    27    25    2
     8    27    28    2
     9    25    24    2
    10    17    18    1
    11    17    12    1
    12    28    18    1
    13    28    21    1
    14    24    22    2
    15    11    12    1
    16    11    10    1
    17    18    19    1
    18    21    22    1
    19    21    20    2
    20    22    23    2
    21    19    20    1
    22    10     9    1
    23     7     6    2
    24     9     6    1
    25     8     6    1
    26     6     5    1
    27     5     1    1
    28     4     1    2
    29     1     2    1
    30     1     3    1
