@<TRIPOS>MOLECULE
2zk1_PTG_A_1.pdb
 23 23 0 0 0
SMALL
GASTEIGER

@<TRIPOS>ATOM
      1  C1        11.5030   64.2850    9.8050 C.3     1  PTG1        0.0000
      2  C2        12.8840   64.7890   10.2740 C.3     1  PTG1        0.0000
      3  C3        13.9770   63.8060    9.8620 C.3     1  PTG1        0.0003
      4  C4        15.4490   64.2550    9.8110 C.3     1  PTG1        0.0047
      5  C5        16.3600   64.0190   11.0160 C.3     1  PTG1        0.0257
      6  C6        17.7730   64.4980   10.7250 C.2     1  PTG1       -0.0307
      7  C7        18.6330   64.8430   11.6950 C.2     1  PTG1       -0.0303
      8  C8        18.2790   64.7950   13.2240 C.3     1  PTG1        0.0330
      9  C10       19.1090   63.6590   13.9010 C.3     1  PTG1        0.0623
     10  C11       18.5610   62.2610   14.1310 C.2     1  PTG1        0.1506
     11  O12       17.4390   61.8120   13.8510 O.2     1  PTG1       -0.2961
     12  C13       19.5260   61.5910   14.7630 C.3     1  PTG1        0.0645
     13  C14       20.2310   62.4650   15.5310 C.3     1  PTG1        0.0085
     14  C15       19.6230   63.8810   15.3360 C.3     1  PTG1        0.0120
     15  C16       18.4610   64.2260   16.3530 C.3     1  PTG1        0.0261
     16  C17       18.5060   63.4820   17.6860 C.2     1  PTG1       -0.0307
     17  C18       18.7200   64.0290   18.8810 C.2     1  PTG1       -0.0307
     18  C19       18.9520   65.5200   19.0610 C.3     1  PTG1        0.0263
     19  C20       20.1640   65.9560   19.9210 C.3     1  PTG1        0.0165
     20  C21       20.6230   64.9550   20.9980 C.3     1  PTG1        0.1144
     21  C22       21.9970   64.3240   20.6530 C.2     1  PTG1        0.3649
     22  O23       22.0030   63.1380   20.2710 O.co2   1  PTG1       -0.2457
     23  O24       23.0040   65.0450   20.7710 O.co2   1  PTG1       -0.2457
@<TRIPOS>BOND
     1     1     2    1
     2     4     3    1
     3     4     5    1
     4     3     2    1
     5     6     5    1
     6     6     7    2
     7     7     8    1
     8     8     9    1
     9    11    10    2
    10     9    10    1
    11     9    14    1
    12    10    12    1
    13    12    13    1
    14    14    13    1
    15    14    15    1
    16    15    16    1
    17    16    17    2
    18    17    18    1
    19    18    19    1
    20    19    20    1
    21    22    21   ar
    22    21    23   ar
    23    21    20    1
