@<TRIPOS>MOLECULE
2zk2_GSH_A_1.pdb
 20 19 0 0 0
SMALL
GASTEIGER

@<TRIPOS>ATOM
      1  N1        16.0540   70.5950    7.3590 N.3     1  GSH1       -0.1208
      2  CA1       16.0780   70.2450    8.8020 C.3     1  GSH1        0.1948
      3  C1        17.5400   70.3050    9.3000 C.2     1  GSH1        0.3819
      4  O11       18.1770   69.2260    9.4500 O.co2   1  GSH1       -0.2441
      5  O12       18.0230   71.4420    9.4980 O.co2   1  GSH1       -0.2441
      6  CB1       15.4980   68.8240    9.0290 C.3     1  GSH1        0.0402
      7  CG1       14.0430   68.5330    8.5540 C.3     1  GSH1        0.0889
      8  CD1       13.7960   67.0580    8.8960 C.2     1  GSH1        0.2418
      9  OE1       14.6160   66.2440    8.4300 O.2     1  GSH1       -0.2733
     10  N2        12.6460   66.6540    9.5270 N.am    1  GSH1       -0.1968
     11  CA2       12.5170   65.1810    9.8590 C.3     1  GSH1        0.1843
     12  C2        11.1910   64.6950   10.4760 C.2     1  GSH1        0.2627
     13  O2        10.2530   64.3150    9.7350 O.2     1  GSH1       -0.2714
     14  CB2       13.7280   64.9260   10.7540 C.3     1  GSH1        0.0997
     15  SG2       14.9170   63.7790    9.9970 S.3     1  GSH1       -0.0797
     16  N3        11.1580   64.7160   11.8170 N.am    1  GSH1       -0.1917
     17  CA3        9.9960   64.2990   12.6420 C.3     1  GSH1        0.2285
     18  C3         9.7650   65.3880   13.6840 C.2     1  GSH1        0.3865
     19  O31        8.8430   65.2010   14.4890 O.co2   1  GSH1       -0.2437
     20  O32       10.5350   66.3960   13.6520 O.co2   1  GSH1       -0.2437
@<TRIPOS>BOND
     1     1     2    1
     2     9     8    2
     3     7     8    1
     4     7     6    1
     5     2     6    1
     6     2     3    1
     7     8    10   am
     8     3     4   ar
     9     3     5   ar
    10    10    11    1
    11    13    12    2
    12    11    12    1
    13    11    14    1
    14    15    14    1
    15    12    16   am
    16    16    17    1
    17    17    18    1
    18    20    18   ar
    19    18    19   ar
