@<TRIPOS>MOLECULE
2zk2_PTG_A_1.pdb
 23 23 0 0 0
SMALL
GASTEIGER

@<TRIPOS>ATOM
      1  C1        19.7940   65.1720   20.8280 C.3   477  PTG477      0.0000
      2  C2        18.6140   65.5860   19.9650 C.3   477  PTG477      0.0000
      3  C3        18.1980   64.5130   18.9620 C.3   477  PTG477      0.0003
      4  C4        19.2090   64.2960   17.8120 C.3   477  PTG477      0.0047
      5  C5        18.7150   63.2070   16.8540 C.3   477  PTG477      0.0257
      6  C6        19.7210   63.0030   15.7440 C.2   477  PTG477     -0.0307
      7  C7        19.6680   63.5820   14.5610 C.2   477  PTG477     -0.0303
      8  C8        18.5260   64.5520   14.2300 C.3   477  PTG477      0.0330
      9  C10       17.7680   64.2550   12.8920 C.3   477  PTG477      0.0623
     10  C11       18.3280   64.6360   11.5450 C.2   477  PTG477      0.1506
     11  O12       19.4350   65.0940   11.3390 O.2   477  PTG477     -0.2961
     12  C13       17.4470   64.3940   10.5930 C.3   477  PTG477      0.0645
     13  C14       16.2890   63.8790   11.1140 C.3   477  PTG477      0.0085
     14  C15       16.4380   63.5070   12.6330 C.3   477  PTG477      0.0120
     15  C16       15.2250   64.0540   13.4440 C.3   477  PTG477      0.0261
     16  C17       14.9910   63.4690   14.8230 C.2   477  PTG477     -0.0307
     17  C18       13.9460   62.6850   15.1120 C.2   477  PTG477     -0.0307
     18  C19       12.8550   62.2590   14.1250 C.3   477  PTG477      0.0263
     19  C20       12.2870   60.8430   14.4880 C.3   477  PTG477      0.0165
     20  C21       11.6700   60.7820   15.9160 C.3   477  PTG477      0.1144
     21  C22       10.1950   60.2820   15.9400 C.2   477  PTG477      0.3649
     22  O23        9.5300   60.3900   14.8930 O.co2 477  PTG477     -0.2457
     23  O24        9.7660   59.8060   17.0270 O.co2 477  PTG477     -0.2457
@<TRIPOS>BOND
     1    12    13    1
     2    12    10    1
     3    13    14    1
     4    11    10    2
     5    10     9    1
     6    14     9    1
     7    14    15    1
     8     9     8    1
     9    15    16    1
    10    18    19    1
    11    18    17    1
    12     8     7    1
    13    19    20    1
    14     7     6    2
    15    16    17    2
    16    22    21   ar
    17     6     5    1
    18    20    21    1
    19    21    23   ar
    20     5     4    1
    21     4     3    1
    22     3     2    1
    23     2     1    1
