@<TRIPOS>MOLECULE
2zk3_OCX_A_1.pdb
 23 22 0 0 0
SMALL
GASTEIGER

@<TRIPOS>ATOM
      1  C1         9.1070   63.9720   10.8490 C.3     1  OCX1        0.0000
      2  C2        10.1760   64.2700    9.7870 C.3     1  OCX1        0.0000
      3  C3        11.5780   64.3710   10.4000 C.3     1  OCX1        0.0003
      4  C4        12.5610   65.0320    9.4270 C.3     1  OCX1        0.0047
      5  C5        13.9510   65.1970   10.0390 C.3     1  OCX1        0.0257
      6  C6        14.8430   64.0110    9.7160 C.2     1  OCX1       -0.0304
      7  C7        16.1060   63.8970   10.1650 C.2     1  OCX1       -0.0260
      8  C8        16.7840   64.9330   11.0420 C.3     1  OCX1        0.0513
      9  C9        18.3150   64.8240   10.9630 C.2     1  OCX1       -0.0260
     10  C10       19.0640   64.4890   12.0250 C.2     1  OCX1       -0.0299
     11  C11       18.3930   64.2050   13.3850 C.3     1  OCX1        0.0335
     12  C13       19.3440   63.6780   14.4780 C.3     1  OCX1        0.0695
     13  C14       18.6270   63.5960   15.8590 C.2     1  OCX1        0.1553
     14  O15       17.3800   63.5870   15.8320 O.2     1  OCX1       -0.2957
     15  C16       19.3030   64.0480   17.1650 C.3     1  OCX1        0.0901
     16  C17       18.5210   63.5170   18.3660 C.2     1  OCX1       -0.0229
     17  C18       18.1730   64.2520   19.4110 C.2     1  OCX1       -0.0303
     18  C19       18.5050   65.7170   19.5600 C.3     1  OCX1        0.0263
     19  C20       18.8530   66.0070   21.0130 C.3     1  OCX1        0.0165
     20  C21       20.2140   66.7110   21.1500 C.3     1  OCX1        0.1144
     21  C22       21.3120   65.8390   20.5360 C.2     1  OCX1        0.3649
     22  O23       21.4500   64.7080   21.0480 O.co2   1  OCX1       -0.2457
     23  O24       21.9650   66.3170   19.5620 O.co2   1  OCX1       -0.2457
@<TRIPOS>BOND
     1     4     5    1
     2     4     3    1
     3     6     5    1
     4     6     7    2
     5     2     3    1
     6     2     1    1
     7     7     8    1
     8     9     8    1
     9     9    10    2
    10    10    11    1
    11    11    12    1
    12    12    13    1
    13    14    13    2
    14    13    15    1
    15    15    16    1
    16    16    17    2
    17    17    18    1
    18    18    19    1
    19    23    21   ar
    20    21    22   ar
    21    21    20    1
    22    19    20    1
