@<TRIPOS>MOLECULE
2zk4_OCR_A_1.pdb
 23 22 0 0 0
SMALL
GASTEIGER

@<TRIPOS>ATOM
      1  C1        12.4840   62.2380   14.0900 C.3     1  OCR1        0.0000
      2  C2        13.8590   62.8770   13.8630 C.3     1  OCR1        0.0000
      3  C3        14.8550   62.3940   14.9000 C.3     1  OCR1        0.0004
      4  C4        16.0080   63.4030   15.0150 C.3     1  OCR1        0.0077
      5  C5        17.1810   62.8270   15.8230 C.3     1  OCR1        0.0645
      6  C6        18.5580   63.3020   15.3060 C.2     1  OCR1        0.1510
      7  O7        19.4070   63.7590   16.0830 O.2     1  OCR1       -0.2960
      8  C8        18.8600   63.1680   13.8230 C.3     1  OCR1        0.0691
      9  C9        18.5850   64.4400   12.9950 C.3     1  OCR1        0.0335
     10  C11       18.9160   64.0230   11.5980 C.2     1  OCR1       -0.0299
     11  C12       18.7270   64.6470   10.4680 C.2     1  OCR1       -0.0260
     12  C13       18.1150   65.9900   10.2720 C.3     1  OCR1        0.0513
     13  C14       18.5940   66.4790    8.9130 C.2     1  OCR1       -0.0257
     14  C15       18.4930   67.7410    8.5430 C.2     1  OCR1       -0.0257
     15  C16       17.8960   68.7930    9.4330 C.3     1  OCR1        0.0513
     16  C17       17.3850   69.9260    8.5720 C.2     1  OCR1       -0.0260
     17  C18       16.0980   70.1350    8.3850 C.2     1  OCR1       -0.0304
     18  C19       15.0310   69.2760    9.0030 C.3     1  OCR1        0.0263
     19  C20       13.6460   69.6130    8.4080 C.3     1  OCR1        0.0165
     20  C21       12.5280   69.2780    9.4020 C.3     1  OCR1        0.1144
     21  C22       12.1870   67.7790    9.4060 C.2     1  OCR1        0.3649
     22  O23       10.9670   67.4810    9.5790 O.co2   1  OCR1       -0.2457
     23  O24       13.1430   66.9500    9.2420 O.co2   1  OCR1       -0.2457
@<TRIPOS>BOND
     1    17    16    2
     2    17    18    1
     3    19    18    1
     4    19    20    1
     5    14    13    2
     6    14    15    1
     7    16    15    1
     8    13    12    1
     9    23    21   ar
    10    20    21    1
    11    21    22   ar
    12    12    11    1
    13    11    10    2
    14    10     9    1
    15     9     8    1
    16     8     6    1
    17     2     1    1
    18     2     3    1
    19     3     4    1
    20     4     5    1
    21     6     5    1
    22     6     7    2
