@<TRIPOS>MOLECULE
2zk5_NRO_A_1.pdb
 22 23 0 0 0
SMALL
GASTEIGER

@<TRIPOS>ATOM
      1  C1        14.2910   63.7080   14.6650 C.3     1  NRO1        0.0001
      2  C2        15.2380   63.2900   13.5330 C.3     1  NRO1        0.0022
      3  C3        16.3050   64.3720   13.2500 C.3     1  NRO1        0.0300
      4  C4        17.2400   63.9550   12.1000 C.3     1  NRO1        0.1737
      5  C8        18.5260   64.8380   12.0260 C.3     1  NRO1        0.0940
      6  C10       18.5850   65.6960   10.7280 C.ar    1  NRO1        0.1250
      7  C14       18.1530   67.1690    9.1790 C.ar    1  NRO1        0.1448
      8  C15       17.5040   68.2390    8.4960 C.ar    1  NRO1        0.0348
      9  C16       16.0800   68.4090    8.6190 C.ar    1  NRO1        0.0096
     10  C17       18.2610   69.1600    7.6850 C.ar    1  NRO1        0.0030
     11  C19       16.2100   70.4150    7.1310 C.ar    1  NRO1        0.0066
     12  C20       15.4210   69.5060    7.9350 C.ar    1  NRO1        0.0799
     13  C21       13.8990   69.7090    8.0510 C.2     1  NRO1        0.3878
     14  N5        16.5030   63.9960   10.7820 N.pl3   1  NRO1        0.0328
     15  O6        17.1030   63.4080    9.6480 O.2     1  NRO1       -0.1310
     16  O7        15.2080   64.5920   10.6240 O.2     1  NRO1       -0.1310
     17  O11       17.7200   66.6980   10.4020 O.2     1  NRO1       -0.4577
     18  C12       19.4980   65.5520    9.7700 C.ar    1  NRO1        0.0361
     19  C13       19.2360   66.4520    8.8220 C.ar    1  NRO1        0.0403
     20  C18       17.6290   70.2520    6.9980 C.ar    1  NRO1        0.0003
     21  O22       13.2170   68.9130    8.7430 O.co2   1  NRO1       -0.2406
     22  O23       13.3670   70.6750    7.4480 O.co2   1  NRO1       -0.2406
@<TRIPOS>BOND
     1    20    11   ar
     2    20    10   ar
     3    11    12   ar
     4    22    13   ar
     5    10     8   ar
     6    12    13    1
     7    12     9   ar
     8    13    21   ar
     9     8     9   ar
    10     8     7    1
    11    19     7   ar
    12    19    18   ar
    13     7    17   ar
    14    15    14    2
    15    18     6   ar
    16    17     6   ar
    17    16    14    2
    18     6     5    1
    19    14     4    1
    20     5     4    1
    21     4     3    1
    22     3     2    1
    23     2     1    1
