@<TRIPOS>MOLECULE
2zk6_C08_A_1.pdb
 29 31 0 0 0
SMALL
GASTEIGER

@<TRIPOS>ATOM
      1  C01       19.3140   64.0250   12.1300 C.3     1  C081        0.0000
      2  C02       18.1580   63.6950   12.9040 C.ar    1  C081        0.0000
      3  C03       18.0500   63.4670   14.2380 C.ar    1  C081        0.0000
      4  C04       16.6610   63.2090   14.5350 C.ar    1  C081        0.0000
      5  C05       15.9510   63.2810   13.3740 C.ar    1  C081        0.0000
      6  C06       14.4730   63.1080   13.1250 C.3     1  C081        0.0000
      7  C07       13.5740   62.8210   14.3220 C.3     1  C081        0.0000
      8  C08       12.2460   62.2440   13.8260 C.3     1  C081        0.0000
      9  C09       12.3720   60.7350   13.6060 C.3     1  C081        0.0000
     10  C10       11.2400   59.9720   14.2730 C.3     1  C081        0.0000
     11  C11       11.2460   60.1400   15.7990 C.3     1  C081        0.0000
     12  C12        9.8330   60.4510   16.3100 C.3     1  C081        0.0000
     13  C13        9.4470   59.5430   17.4550 C.3     1  C081        0.0000
     14  N01       16.8790   63.5830   12.2910 N.ar    1  C081        0.0000
     15  B         16.6010   64.7910   11.4210 B       1  C081        0.0000
     16  F01       16.1720   65.8080   12.1090 F       1  C081        0.0000
     17  N02       17.8030   65.1920   10.6670 N.ar    1  C081        0.0000
     18  C14       17.9070   65.9110    9.6190 C.ar    1  C081        0.0000
     19  C15       16.8290   66.5830    8.8280 C.3     1  C081        0.0000
     20  C16       16.7960   68.1040    8.9090 C.3     1  C081        0.0000
     21  C17       15.5030   68.5850    8.2800 C.3     1  C081        0.0000
     22  C18       15.3490   70.0820    8.2840 C.3     1  C081        0.0000
     23  C19       13.9330   70.5160    8.0480 C.2     1  C081        0.0000
     24  O01       13.0450   69.8670    8.8420 O.co2   1  C081        0.0000
     25  O02       13.5630   71.3700    7.2760 O.co2   1  C081        0.0000
     26  C20       19.3190   66.0540    9.1660 C.ar    1  C081        0.0000
     27  C21       20.0130   65.3420   10.0760 C.ar    1  C081        0.0000
     28  C22       19.0900   64.7930   11.0390 C.ar    1  C081        0.0000
     29  F02       15.6710   64.3930   10.5820 F       1  C081        0.0000
@<TRIPOS>BOND
     1    25    23   ar
     2    23    22    1
     3    23    24   ar
     4    21    22    1
     5    21    20    1
     6    19    20    1
     7    19    18    1
     8    26    18   ar
     9    26    27   ar
    10    18    17   ar
    11    27    28   ar
    12    29    15    1
    13    17    28   ar
    14    17    15    1
    15    28     1    1
    16    15    16    1
    17    15    14    1
    18     1     2    1
    19    14     2   ar
    20    14     5   ar
    21     2     3   ar
    22     6     5    1
    23     6     7    1
    24     5     4   ar
    25     9     8    1
    26     9    10    1
    27     8     7    1
    28     3     4   ar
    29    10    11    1
    30    11    12    1
    31    12    13    1
