@<TRIPOS>MOLECULE
2zka_AZA_A_1.pdb
 11 12 0 0 0
SMALL
GASTEIGER

@<TRIPOS>ATOM
      1  N1        30.1380   27.7670   36.6930 N.2   302  AZA302     -0.2300
      2  C2        29.4730   27.5080   37.8380 C.1   302  AZA302      0.3745
      3  O2        28.3190   27.9550   37.9550 O.2   302  AZA302     -0.1738
      4  N3        30.0020   26.7980   38.8900 N.2   302  AZA302     -0.2491
      5  C4        31.2460   26.3010   38.7320 C.1   302  AZA302      0.1531
      6  C5        32.0140   26.5170   37.5430 C.2   302  AZA302      0.2717
      7  C6        31.3880   27.3150   36.4710 C.1   302  AZA302      0.2477
      8  O6        32.0180   27.5640   35.4320 O.2   302  AZA302     -0.2062
      9  N7        33.2440   25.9140   37.6550 N.2   302  AZA302     -0.1149
     10  N8        33.1880   25.3350   38.9420 N.pl3 302  AZA302     -0.0026
     11  N9        31.9680   25.5430   39.6300 N.2   302  AZA302     -0.0705
@<TRIPOS>BOND
     1     8     7    2
     2     7     1    2
     3     7     6    1
     4     1     2    2
     5     6     9    2
     6     6     5    1
     7     9    10    1
     8     2     3    2
     9     2     4    2
    10     5     4    2
    11     5    11    2
    12    10    11    1
