@<TRIPOS>MOLECULE
2zkb_AZA_A_1.pdb
 11 12 0 0 0
SMALL
GASTEIGER

@<TRIPOS>ATOM
      1  N1        29.9150   27.7880   36.7460 N.2   302  AZA302     -0.2300
      2  C2        29.2530   27.5280   37.8900 C.1   302  AZA302      0.3745
      3  O2        28.0870   27.9610   37.9980 O.2   302  AZA302     -0.1738
      4  N3        29.7760   26.8150   38.9420 N.2   302  AZA302     -0.2491
      5  C4        31.0210   26.3330   38.7660 C.1   302  AZA302      0.1531
      6  C5        31.7880   26.5620   37.5800 C.2   302  AZA302      0.2717
      7  C6        31.1670   27.3570   36.5060 C.1   302  AZA302      0.2477
      8  O6        31.7950   27.6080   35.4550 O.2   302  AZA302     -0.2062
      9  N7        33.0170   25.9600   37.6930 N.2   302  AZA302     -0.1149
     10  N8        32.9720   25.3840   38.9800 N.pl3 302  AZA302     -0.0026
     11  N9        31.7440   25.5890   39.6640 N.2   302  AZA302     -0.0705
@<TRIPOS>BOND
     1     8     7    2
     2     7     1    2
     3     7     6    1
     4     1     2    2
     5     6     9    2
     6     6     5    1
     7     9    10    1
     8     2     3    2
     9     2     4    2
    10     5     4    2
    11     5    11    2
    12    10    11    1
