@<TRIPOS>MOLECULE
2zkc_BPZ_A_1.pdb
 20 22 0 0 0
SMALL
GASTEIGER

@<TRIPOS>ATOM
      1  O2       -16.0140   -2.3070  -32.6380 O.3   999  BPZ999     -0.2866
      2  C16      -16.1410   -2.5560  -31.3110 C.ar  999  BPZ999      0.1957
      3  C15      -15.0750   -2.2680  -30.4660 C.ar  999  BPZ999      0.0417
      4  C14      -15.2040   -2.5230  -29.1050 C.ar  999  BPZ999     -0.0007
      5  C17      -17.3200   -3.0880  -30.8080 C.ar  999  BPZ999      0.0417
      6  C18      -17.4500   -3.3430  -29.4380 C.ar  999  BPZ999     -0.0007
      7  C7       -16.3840   -3.0490  -28.5740 C.ar  999  BPZ999     -0.0188
      8  C5       -16.5030   -3.3110  -27.0810 C.3   999  BPZ999      0.0377
      9  C8       -15.5320   -2.4470  -26.2560 C.3   999  BPZ999      0.0081
     10  C1       -15.9060   -0.9660  -26.1830 C.3   999  BPZ999      0.0007
     11  C4       -17.9350   -3.0190  -26.5930 C.3   999  BPZ999      0.0081
     12  C3       -18.2910   -1.5300  -26.6180 C.3   999  BPZ999      0.0007
     13  C2       -17.3370   -0.7430  -25.7160 C.3   999  BPZ999      0.0000
     14  C6       -16.1190   -4.7280  -26.7460 C.ar  999  BPZ999     -0.0188
     15  C13      -15.0560   -5.3400  -27.4210 C.ar  999  BPZ999     -0.0007
     16  C12      -14.6630   -6.6360  -27.1150 C.ar  999  BPZ999      0.0417
     17  C11      -15.3340   -7.3430  -26.1060 C.ar  999  BPZ999      0.1957
     18  O1       -14.9360   -8.6180  -25.8000 O.3   999  BPZ999     -0.2866
     19  C10      -16.3920   -6.7390  -25.4150 C.ar  999  BPZ999      0.0417
     20  C9       -16.7860   -5.4350  -25.7360 C.ar  999  BPZ999     -0.0007
@<TRIPOS>BOND
     1     1     2    1
     2     2     5   ar
     3     2     3   ar
     4     5     6   ar
     5     3     4   ar
     6     6     7   ar
     7     4     7   ar
     8     7     8    1
     9    15    16   ar
    10    15    14   ar
    11    16    17   ar
    12     8    14    1
    13     8    11    1
    14     8     9    1
    15    14    20   ar
    16    12    11    1
    17    12    13    1
    18     9    10    1
    19    10    13    1
    20    17    18    1
    21    17    19   ar
    22    20    19   ar
