@<TRIPOS>MOLECULE
2zkj_ADP_A_1.pdb
 27 29 0 0 0
SMALL
GASTEIGER

@<TRIPOS>ATOM
      1  PB       -21.6730    5.2810   26.5140 P.3   501  ADP501      0.5373
      2  O1B      -21.0930    5.2840   27.9140 O.3   501  ADP501     -0.1143
      3  O2B      -23.1380    4.7920   26.4160 O.3   501  ADP501     -0.1143
      4  O3B      -21.5700    6.5460   25.8290 O.2   501  ADP501     -0.2221
      5  PA       -19.5600    4.5260   24.6230 P.3   501  ADP501      0.2231
      6  O1A      -19.7820    5.6630   23.7150 O.2   501  ADP501     -0.5169
      7  O2A      -18.9730    3.1650   24.1710 O.3   501  ADP501     -0.4370
      8  O3A      -20.7960    4.1770   25.6370 O.3   501  ADP501     -0.2261
      9  O5'      -18.4730    5.1310   25.5790 O.3   501  ADP501     -0.3111
     10  C5'      -18.0640    4.2960   26.6710 C.3   501  ADP501      0.1813
     11  C4'      -17.3060    5.0840   27.7650 C.3   501  ADP501      0.1821
     12  O4'      -16.0770    5.6490   27.2800 O.3   501  ADP501     -0.3135
     13  C3'      -18.0910    6.2850   28.3200 C.3   501  ADP501      0.2184
     14  O3'      -19.0840    5.8490   29.3000 O.3   501  ADP501     -0.2174
     15  C2'      -16.9520    7.1270   28.9200 C.3   501  ADP501      0.2570
     16  O2'      -16.6770    6.5460   30.1850 O.3   501  ADP501     -0.2130
     17  C1'      -15.7060    6.7920   28.0780 C.3   501  ADP501      0.3186
     18  N9       -15.5070    7.8820   27.1380 N.pl3 501  ADP501     -0.1439
     19  C8       -15.8960    7.8510   25.8440 C.3   501  ADP501      0.3377
     20  N7       -15.5480    8.9990   25.2730 N.2   501  ADP501     -0.2095
     21  C5       -15.0020    9.7810   26.2320 C.2   501  ADP501      0.2526
     22  C6       -14.4560   11.1190   26.2870 C.2   501  ADP501      0.4393
     23  N6       -14.4640   11.9250   25.1590 N.pl3 501  ADP501      0.2180
     24  N1       -13.9550   11.5320   27.4670 N.2   501  ADP501      0.0021
     25  C2       -13.9620   10.7930   28.5770 C.3   501  ADP501      0.5254
     26  N3       -14.4340    9.5580   28.6160 N.2   501  ADP501     -0.0055
     27  C4       -14.9620    9.0320   27.4620 C.2   501  ADP501      0.3518
@<TRIPOS>BOND
     1     6     5    2
     2     7     5    1
     3     5     9    1
     4     5     8    1
     5    23    22    1
     6    20    19    1
     7    20    21    2
     8     9    10    1
     9     8     1    1
    10     4     1    2
    11    19    18    1
    12    21    22    1
    13    21    27    1
    14    22    24    2
    15     3     1    1
    16     1     2    1
    17    10    11    1
    18    18    27    1
    19    18    17    1
    20    12    11    1
    21    12    17    1
    22    27    26    2
    23    24    25    1
    24    11    13    1
    25    17    15    1
    26    13    15    1
    27    13    14    1
    28    25    26    1
    29    15    16    1
