@<TRIPOS>MOLECULE
2zkn_GAL_A_1.pdb
 11 11 0 0 0
SMALL
GASTEIGER

@<TRIPOS>ATOM
      1  C1        56.2130   27.6450   24.6740 C.3   135  GAL135      0.1777
      2  C2        56.3630   29.1380   24.9640 C.3   135  GAL135      0.2141
      3  C3        55.3860   29.5570   26.0650 C.3   135  GAL135      0.2173
      4  C4        53.9580   29.1430   25.6880 C.3   135  GAL135      0.2142
      5  C5        53.9170   27.6490   25.3480 C.3   135  GAL135      0.1810
      6  C6        52.5540   27.1900   24.8700 C.3   135  GAL135      0.2141
      7  O2        57.6950   29.4180   25.3670 O.3   135  GAL135     -0.2176
      8  O3        55.4400   30.9650   26.2330 O.3   135  GAL135     -0.2175
      9  O4        53.5280   29.9020   24.5680 O.3   135  GAL135     -0.2176
     10  O5        54.8590   27.3540   24.2930 O.3   135  GAL135     -0.3481
     11  O6        52.5300   25.7850   24.6750 O.3   135  GAL135     -0.2176
@<TRIPOS>BOND
     1    10     1    1
     2    10     5    1
     3     9     4    1
     4     1     2    1
     5    11     6    1
     6     6     5    1
     7     2     7    1
     8     2     3    1
     9     5     4    1
    10     4     3    1
    11     3     8    1
