@<TRIPOS>MOLECULE
2zkn_BGC_A_1.pdb
 12 12 0 0 0
SMALL
GASTEIGER

@<TRIPOS>ATOM
      1  C2        57.1880   24.3170   21.3230 C.3   136  BGC136      0.2434
      2  C3        56.9530   25.7570   21.7640 C.3   136  BGC136      0.2199
      3  C4        57.1230   25.9000   23.2780 C.3   136  BGC136      0.2144
      4  C5        58.4880   25.3330   23.7020 C.3   136  BGC136      0.1836
      5  C6        58.7150   25.3560   25.2040 C.3   136  BGC136      0.2142
      6  C1        58.5450   23.8220   21.8430 C.3   136  BGC136      0.3024
      7  O1        58.7000   22.4810   21.5340 O.3   136  BGC136     -0.1869
      8  O2        57.1650   24.2520   19.9040 O.3   136  BGC136     -0.2148
      9  O3        55.6470   26.1630   21.3900 O.3   136  BGC136     -0.2174
     10  O4        57.0460   27.2960   23.6240 O.3   136  BGC136     -0.2176
     11  O5        58.6100   23.9580   23.2720 O.3   136  BGC136     -0.3236
     12  O6        57.5170   25.0770   25.9170 O.3   136  BGC136     -0.2176
@<TRIPOS>BOND
     1     8     1    1
     2     1     2    1
     3     1     6    1
     4     9     2    1
     5     7     6    1
     6     2     3    1
     7     6    11    1
     8    11     4    1
     9     3    10    1
    10     3     4    1
    11     4     5    1
    12     5    12    1
