@<TRIPOS>MOLECULE
2zkq_NUC_H_1.pdb
 41 0 0 0 0
SMALL
GASTEIGER

@<TRIPOS>ATOM
      1  P        212.4110  229.7440  106.2920 P.3     1  RG1         0.0000
      2  P        208.1320  233.8150  105.0640 P.3     2  RG2         0.0000
      3  P        206.9420  240.1910  103.8180 P.3     3  RA3         0.0000
      4  P        209.3240  245.5470  107.7900 P.3     4  RA4         0.0000
      5  P        210.2850  249.5820  110.0470 P.3     5  RC5         0.0000
      6  P        205.9980  254.5200  110.1000 P.3     6  RC6         0.0000
      7  P        200.4340  256.4880  110.7980 P.3     7  RC7         0.0000
      8  P        194.7700  256.1750  113.0520 P.3     8  RG8         0.0000
      9  P        190.0950  252.9210  116.7060 P.3     9  RG9         0.0000
     10  P        187.1230  249.0440  120.1000 P.3    10  RG10        0.0000
     11  P        186.2210  246.4670  124.5080 P.3    11  RU11        0.0000
     12  P        187.9230  246.7110  129.9080 P.3    12  RG12        0.0000
     13  P        190.3960  250.5370  133.4320 P.3    13  RA13        0.0000
     14  P        194.2300  253.8860  130.6320 P.3    14  RA14        0.0000
     15  P        200.0580  253.5190  127.8880 P.3    15  RA15        0.0000
     16  P        204.3470  249.6180  126.6510 P.3    16  RG16        0.0000
     17  P        203.8850  243.4090  125.3490 P.3    17  RC17        0.0000
     18  P        200.8360  239.0020  122.8310 P.3    18  RC18        0.0000
     19  P        197.4040  237.2410  118.3360 P.3    19  RU19        0.0000
     20  P        194.8800  238.8330  112.9290 P.3    20  RG20        0.0000
     21  P        193.4960  240.9160  107.8590 P.3    21  RG21        0.0000
     22  P        195.0680  244.6300  103.6100 P.3    22  RG22        0.0000
     23  P        198.3200  247.8180   99.0900 P.3    23  RG23        0.0000
     24  P        203.4940  246.1260   98.1560 P.3    24  RU24        0.0000
     25  P        208.5040  244.3910   95.5200 P.3    25  RG25        0.0000
     26  P        214.2530  247.0500   92.8480 P.3    26  RC26        0.0000
     27  P        219.4180  247.6530   93.6150 P.3    27  RC27        0.0000
     28  P        222.5200  243.9990   90.1350 P.3    28  RC28        0.0000
     29  P        223.2130  238.7450   87.3940 P.3    29  RC29        0.0000
     30  P        221.3360  235.1660   84.4890 P.3    30  RG30        0.0000
     31  P        216.9370  233.3870   81.3870 P.3    31  RC31        0.0000
     32  P        212.5700  236.3230   83.7620 P.3    32  RC32        0.0000
     33  P        208.4840  234.7990   88.4610 P.3    33  RC33        0.0000
     34  P        206.9550  232.2310   92.8580 P.3    34  RG34        0.0000
     35  P        211.7680  229.3890   96.7120 P.3    35  RG35        0.0000
     36  P        216.6410  230.0930   99.4350 P.3    36  RG36        0.0000
     37  P        221.0950  233.0570  102.2740 P.3    37  RG37        0.0000
     38  P        222.9410  238.3040  104.9380 P.3    38  RA38        0.0000
     39  P        222.8940  243.6350  107.3270 P.3    39  RG39        0.0000
     40  P        220.5380  247.9060  110.2050 P.3    40  RC40        0.0000
     41  P        215.8890  247.6270  113.6860 P.3    41  RC41        0.0000
@<TRIPOS>BOND
