@<TRIPOS>MOLECULE
2zkr_NUC_B_1.pdb
 27 0 0 0 0
SMALL
GASTEIGER

@<TRIPOS>ATOM
      1  P        246.8780  282.6070  310.7970 P.3   145  RG145       0.0000
      2  P        251.4160  284.9010  313.6960 P.3   146  RU146       0.0000
      3  P        257.0460  285.5560  314.8300 P.3   147  RC147       0.0000
      4  P        262.6280  285.8070  313.2660 P.3   148  RU148       0.0000
      5  P        266.8160  286.3600  309.2480 P.3   149  RG149       0.0000
      6  P        268.5680  287.8840  303.9590 P.3   150  RA150       0.0000
      7  P        267.6690  290.6890  298.8180 P.3   151  RG151       0.0000
      8  P        263.2890  294.5150  293.7280 P.3   153  RG153       0.0000
      9  P        259.7910  298.7180  293.1090 P.3   154  RU154       0.0000
     10  P        257.6140  303.4980  295.4830 P.3   155  RC155       0.0000
     11  P        257.5740  307.7610  299.4130 P.3   156  RG156       0.0000
     12  P        260.5450  310.5000  303.2620 P.3   157  RC157       0.0000
     13  P        265.9220  309.9190  306.1520 P.3   158  RU158       0.0000
     14  P        271.8520  308.4230  305.4380 P.3   159  RU159       0.0000
     15  P        274.2460  296.3170  296.4180 P.3     1  RC1         0.0000
     16  P        274.6880  296.1790  302.7430 P.3     2  RG2         0.0000
     17  P        269.2280  296.2930  306.9130 P.3     3  RC3         0.0000
     18  P        264.8620  296.0430  310.7860 P.3     4  RG4         0.0000
     19  P        259.1090  295.5520  311.4120 P.3     5  RA5         0.0000
     20  P        253.8620  294.1610  309.2880 P.3     6  RC6         0.0000
     21  P        250.4510  291.4340  305.4000 P.3     7  RC7         0.0000
     22  P        250.2790  287.6510  300.8640 P.3     8  RU8         0.0000
     23  P        252.3240  283.1350  298.1140 P.3     9  RC9         0.0000
     24  P        255.5120  278.4030  297.8190 P.3    10  RA10        0.0000
     25  P        258.5670  274.1670  300.3320 P.3    11  RG11        0.0000
     26  P        260.0320  271.0300  305.0200 P.3    12  RA12        0.0000
     27  P        258.7920  268.8140  311.6810 P.3    14  RC14        0.0000
@<TRIPOS>BOND
