@<TRIPOS>MOLECULE
2zks_III_C_1.pdb
 35 35 0 0 0
SMALL
GASTEIGER

@<TRIPOS>ATOM
      1  C        -30.0520  -27.6990   10.6190 C.2     1  ACE1        0.2423
      2  O        -28.9230  -28.1460   10.8560 O.2     1  ACE1       -0.2733
      3  CH3      -31.2880  -28.4370   11.0560 C.3     1  ACE1        0.0964
      4  N        -30.2450  -26.4390   10.2100 N.am    2  LYS2       -0.1978
      5  CA       -29.5490  -25.3540   10.8940 C.3     2  LYS2        0.1727
      6  C        -29.8720  -25.4530   12.3750 C.2     2  LYS2        0.2616
      7  O        -31.0190  -25.3450   12.7750 O.2     2  LYS2       -0.2715
      8  CB       -29.9590  -23.9850   10.3480 C.3     2  LYS2        0.0311
      9  CG       -29.5770  -23.7100    8.9050 C.3     2  LYS2        0.0038
     10  CD       -30.4380  -22.5860    8.3170 C.3     2  LYS2        0.0206
     11  CE       -30.1950  -22.3990    6.8250 C.3     2  LYS2        0.1093
     12  NZ       -29.2010  -21.3390    6.5140 N.3     2  LYS2       -0.1314
     13  N        -28.8650  -25.7200   13.1890 N.am    3  VAL3       -0.1964
     14  CA       -29.0660  -25.6750   14.6240 C.3     3  VAL3        0.1712
     15  C        -28.4430  -24.3370   15.0240 C.2     3  VAL3        0.2458
     16  O        -27.2500  -24.1500   14.8320 O.2     3  VAL3       -0.2730
     17  CB       -28.4450  -26.8990   15.3660 C.3     3  VAL3        0.0289
     18  CG1      -29.1130  -27.0880   16.7300 C.3     3  VAL3        0.0023
     19  CG2      -28.6060  -28.1740   14.5540 C.3     3  VAL3        0.0023
     20  N        -29.2590  -23.3750   15.5010 N.am    4  PRO4       -0.2716
     21  CA       -28.6170  -22.1220   15.8480 C.3     4  PRO4        0.1536
     22  C        -27.9940  -22.2660   17.2300 C.2     4  PRO4        0.2598
     23  O        -28.6620  -22.8210   18.1350 O.2     4  PRO4       -0.2715
     24  CB       -29.7760  -21.1150   15.8670 C.3     4  PRO4        0.0310
     25  CG       -30.9950  -21.9090   16.1060 C.3     4  PRO4        0.0237
     26  CD       -30.7130  -23.3440   15.7450 C.3     4  PRO4        0.0939
     27  N        -26.8620  -21.7100   16.9730 N.am    5  LEU5       -0.1983
     28  CA       -26.0170  -21.6670   18.1800 C.3     5  LEU5        0.1523
     29  C        -26.4460  -20.6440   19.2850 C.2     5  LEU5        0.1707
     30  O        -25.8140  -20.5480   20.3470 O.2     5  LEU5       -0.2943
     31  CB       -24.5480  -21.5590   17.7120 C.3     5  LEU5        0.0292
     32  CG       -24.0220  -22.6250   16.7460 C.3     5  LEU5        0.0021
     33  CD1      -22.5320  -22.6930   16.9370 C.3     5  LEU5        0.0001
     34  CD2      -24.5490  -24.0250   17.0130 C.3     5  LEU5        0.0001
     35  C1       -27.6560  -19.7330   19.1150 C.3     6  0QE6        0.0741
@<TRIPOS>BOND
     1    12    11    1
     2    11    10    1
     3    10     9    1
     4     9     8    1
     5     4     1   am
     6     4     5    1
     7     8     5    1
     8     1     2    2
     9     1     3    1
    10     5     6    1
    11     6     7    2
    12     6    13   am
    13    13    14    1
    14    19    17    1
    15    14    15    1
    16    14    17    1
    17    16    15    2
    18    15    20   am
    19    17    18    1
    20    20    26    1
    21    20    21    1
    22    26    25    1
    23    21    24    1
    24    21    22    1
    25    24    25    1
    26    32    33    1
    27    32    34    1
    28    32    31    1
    29    27    22   am
    30    27    28    1
    31    22    23    2
    32    31    28    1
    33    28    29    1
    34    35    29    1
    35    29    30    2
