@<TRIPOS>MOLECULE
2zl2_III_O_1.pdb
 27 26 0 0 0
SMALL
GASTEIGER

@<TRIPOS>ATOM
      1  N         46.9710  120.6220  133.4410 N.3     1  ASN1       -0.1225
      2  CA        45.7850  120.7910  132.5510 C.3     1  ASN1        0.1785
      3  C         44.5040  120.4040  133.2830 C.2     1  ASN1        0.2597
      4  O         44.5030  120.2240  134.5060 O.2     1  ASN1       -0.2718
      5  CB        45.9320  119.9200  131.2940 C.3     1  ASN1        0.1169
      6  CG        47.1490  120.2910  130.4610 C.2     1  ASN1        0.2627
      7  OD1       47.2810  121.4310  130.0080 O.2     1  ASN1       -0.2716
      8  ND2       48.0450  119.3280  130.2520 N.am    1  ASN1       -0.0877
      9  N         43.4170  120.2890  132.5240 N.am    2  VAL2       -0.1966
     10  CA        42.1170  119.9080  133.0700 C.3     2  VAL2        0.1727
     11  C         41.6250  118.7130  132.2600 C.2     2  VAL2        0.2616
     12  O         41.4890  118.8000  131.0410 O.2     2  VAL2       -0.2715
     13  CB        41.0870  121.0530  132.9550 C.3     2  VAL2        0.0290
     14  CG1       39.9280  120.7960  133.9090 C.3     2  VAL2        0.0023
     15  CG2       41.7510  122.3950  133.2490 C.3     2  VAL2        0.0023
     16  N         41.3660  117.6000  132.9430 N.am    3  LEU3       -0.1963
     17  CA        40.9180  116.3740  132.2850 C.3     3  LEU3        0.1728
     18  C         39.5500  115.8820  132.7830 C.2     3  LEU3        0.2616
     19  O         39.0000  116.4010  133.7530 O.2     3  LEU3       -0.2715
     20  CB        41.9700  115.2710  132.4860 C.3     3  LEU3        0.0311
     21  CG        43.4580  115.6690  132.4860 C.3     3  LEU3        0.0022
     22  CD1       44.3120  114.4160  132.5170 C.3     3  LEU3        0.0001
     23  CD2       43.8050  116.4880  131.2590 C.3     3  LEU3        0.0001
     24  N         39.0010  114.8780  132.1070 N.am    4  GLY4       -0.1955
     25  CA        37.7110  114.3390  132.5050 C.3     4  GLY4        0.1869
     26  C         36.6170  114.4770  131.4600 C.2     4  GLY4        0.2309
     27  O         36.8300  115.1780  130.4460 O.2     4  GLY4       -0.2863
@<TRIPOS>BOND
     1     7     6    2
     2     8     6   am
     3    27    26    2
     4     6     5    1
     5    12    11    2
     6    23    21    1
     7     5     2    1
     8    26    25    1
     9    24    25    1
    10    24    18   am
    11    11    16   am
    12    11    10    1
    13    17    20    1
    14    17    18    1
    15    17    16    1
    16    21    20    1
    17    21    22    1
    18     9    10    1
    19     9     3   am
    20     2     3    1
    21     2     1    1
    22    18    19    2
    23    13    10    1
    24    13    15    1
    25    13    14    1
    26     3     4    2
