@<TRIPOS>MOLECULE
2zl4_III_1_1.pdb
 21 20 0 0 0
SMALL
GASTEIGER

@<TRIPOS>ATOM
      1  N         73.0400   77.8100  150.1370 N.3   201  ALA201     -0.1231
      2  CA        73.3380   78.8500  151.1670 C.3   201  ALA201      0.1694
      3  C         74.8270   79.1810  151.1500 C.2   201  ALA201      0.2592
      4  O         75.6680   78.2770  151.1120 O.2   201  ALA201     -0.2718
      5  CB        72.9280   78.3390  152.5540 C.3   201  ALA201      0.0304
      6  N         75.1520   80.4730  151.1720 N.am  202  ALA202     -0.1966
      7  CA        76.5490   80.9050  151.1680 C.3   202  ALA202      0.1728
      8  C         77.2890   80.2460  152.3310 C.2   202  ALA202      0.2616
      9  O         76.7800   80.1810  153.4460 O.2   202  ALA202     -0.2715
     10  CB        76.6320   82.4210  151.2900 C.3   202  ALA202      0.0334
     11  N         78.4930   79.7540  152.0700 N.am  203  ALA203     -0.1963
     12  CA        79.2620   79.1030  153.1180 C.3   203  ALA203      0.1728
     13  C         80.7100   79.5280  153.1110 C.2   203  ALA203      0.2617
     14  O         81.2130   80.0640  152.1310 O.2   203  ALA203     -0.2715
     15  CB        79.1740   77.5870  152.9760 C.3   203  ALA203      0.0334
     16  N         81.3710   79.2850  154.2310 N.am  204  ALA204     -0.1942
     17  CA        82.7780   79.6020  154.3850 C.3   204  ALA204      0.1979
     18  C         83.3940   78.3680  155.0240 C.2   204  ALA204      0.3842
     19  O         83.1380   78.1420  156.2280 O.co2 204  ALA204     -0.2437
     20  CB        82.9590   80.8330  155.2840 C.3   204  ALA204      0.0356
     21  OXT       84.1060   77.6290  154.3120 O.co2 204  ALA204     -0.2437
@<TRIPOS>BOND
     1     1     2    1
     2     4     3    2
     3     3     2    1
     4     3     6   am
     5     2     5    1
     6     7     6    1
     7     7    10    1
     8     7     8    1
     9    11     8   am
    10    11    12    1
    11    14    13    2
    12     8     9    2
    13    15    12    1
    14    13    12    1
    15    13    16   am
    16    16    17    1
    17    21    18   ar
    18    17    18    1
    19    17    20    1
    20    18    19   ar
