@<TRIPOS>MOLECULE
2zl6_GAL_B_1.pdb
 11 11 0 0 0
SMALL
GASTEIGER

@<TRIPOS>ATOM
      1  C1        30.1760   38.2800  -19.5370 C.3     2  GAL2        0.1777
      2  C2        31.2010   38.0440  -18.4210 C.3     2  GAL2        0.2141
      3  C3        32.5090   38.7770  -18.6780 C.3     2  GAL2        0.2173
      4  C4        33.0690   38.4250  -20.0490 C.3     2  GAL2        0.2142
      5  C5        31.9830   38.6760  -21.1050 C.3     2  GAL2        0.1810
      6  C6        32.3750   38.2390  -22.4960 C.3     2  GAL2        0.2141
      7  O2        30.6140   38.4540  -17.1900 O.3     2  GAL2       -0.2176
      8  O3        33.4760   38.4620  -17.6570 O.3     2  GAL2       -0.2175
      9  O4        33.4570   37.0460  -20.0270 O.3     2  GAL2       -0.2176
     10  O5        30.8080   37.8950  -20.7750 O.3     2  GAL2       -0.3481
     11  O6        31.4000   38.6540  -23.4460 O.3     2  GAL2       -0.2176
@<TRIPOS>BOND
     1    11     6    1
     2     6     5    1
     3     5    10    1
     4     5     4    1
     5    10     1    1
     6     4     9    1
     7     4     3    1
     8     1     2    1
     9     3     2    1
    10     3     8    1
    11     2     7    1
