@<TRIPOS>MOLECULE
2zl6_FUC_B_1.pdb
 10 10 0 0 0
SMALL
GASTEIGER

@<TRIPOS>ATOM
      1  C1        30.7140   37.5520  -16.0930 C.3     1  FUC1        0.1776
      2  C2        30.6320   38.3080  -14.7590 C.3     1  FUC1        0.2141
      3  C3        29.1990   38.7630  -14.4920 C.3     1  FUC1        0.2172
      4  C4        28.2440   37.5660  -14.5700 C.3     1  FUC1        0.2116
      5  C5        28.3830   36.9130  -15.9620 C.3     1  FUC1        0.1483
      6  C6        27.4750   35.6960  -16.1840 C.3     1  FUC1        0.0349
      7  O2        31.5660   39.3790  -14.7950 O.3     1  FUC1       -0.2176
      8  O3        29.1760   39.3720  -13.2030 O.3     1  FUC1       -0.2175
      9  O4        28.5850   36.6540  -13.5150 O.3     1  FUC1       -0.2177
     10  O5        29.7380   36.4940  -16.1900 O.3     1  FUC1       -0.3508
@<TRIPOS>BOND
     1    10     1    1
     2    10     5    1
     3     6     5    1
     4     1     2    1
     5     5     4    1
     6     7     2    1
     7     2     3    1
     8     4     3    1
     9     4     9    1
    10     3     8    1
