@<TRIPOS>MOLECULE
2zl9_VDA_A_1.pdb
 34 36 0 0 0
SMALL
GASTEIGER

@<TRIPOS>ATOM
      1  O2        16.3410    8.5980   19.3420 O.3   500  VDA500     -0.2204
      2  C1        14.8080    6.0380   19.0690 C.3   500  VDA500      0.1818
      3  C2        14.2840    7.4410   18.4440 C.3   500  VDA500      0.1756
      4  C3        14.9110    8.7130   19.3480 C.3   500  VDA500      0.1818
      5  C4        14.3940    8.5480   20.8990 C.3   500  VDA500      0.0399
      6  C5        14.5510    7.1360   21.5440 C.3   500  VDA500      0.0269
      7  C6        14.4340    6.9300   22.8700 C.2   500  VDA500     -0.0309
      8  C7        14.9500    5.8200   23.7210 C.2   500  VDA500     -0.0310
      9  C8        14.7270    5.7010   24.9460 C.3   500  VDA500      0.0217
     10  C9        14.5130    6.9710   26.0340 C.3   500  VDA500      0.0043
     11  C10       14.2540    5.9190   20.5420 C.3   500  VDA500      0.0399
     12  C11       13.2560    6.8210   27.0190 C.3   500  VDA500      0.0003
     13  C12       13.0920    5.2500   27.5770 C.3   500  VDA500      0.0000
     14  C13       13.3020    4.0410   26.4080 C.3   500  VDA500      0.0011
     15  C14       14.7280    4.3520   25.7280 C.3   500  VDA500      0.0040
     16  C15       15.2170    2.8980   25.0260 C.3   500  VDA500      0.0004
     17  C16       14.3660    1.8440   25.7870 C.3   500  VDA500      0.0009
     18  C17       13.6240    2.5980   26.9440 C.3   500  VDA500      0.0100
     19  C18       11.9380    4.1960   25.4170 C.3   500  VDA500      0.0000
     20  C20       12.7980    2.1640   28.3430 C.3   500  VDA500      0.0477
     21  C21       13.5490    0.7910   28.7320 C.3   500  VDA500      0.0117
     22  S22       11.1240    2.2280   28.3240 S.3   500  VDA500     -0.1385
     23  C23       10.5510    1.2170   27.3460 C.3   500  VDA500      0.0878
     24  C25        9.3350    0.3720   27.8180 C.3   500  VDA500      0.1365
     25  O3        10.2420   -0.7520   28.3940 O.3   500  VDA500     -0.2248
     26  C26        8.2360    0.7570   28.5080 C.3   500  VDA500      0.0313
     27  C27        9.1950   -0.3730   26.3910 C.3   500  VDA500      0.0313
     28  O1        14.3890    4.9190   18.2980 O.3   500  VDA500     -0.2204
     29  O4        14.6250    7.6200   17.0800 O.3   500  VDA500     -0.3483
     30  C30       13.5380    8.1210   16.4560 C.3   500  VDA500      0.1777
     31  C31       14.1280    8.2440   14.8780 C.3   500  VDA500      0.2140
     32  O5        13.7680    6.9850   14.2920 O.3   500  VDA500     -0.2176
     33  C29        7.3870    1.9740   27.7060 C.3   500  VDA500      0.0026
     34  C28        8.1670   -1.6240   26.2360 C.3   500  VDA500      0.0026
@<TRIPOS>BOND
     1    32    31    1
     2    31    30    1
     3    30    29    1
     4    29     3    1
     5    28     2    1
     6     3     2    1
     7     3     4    1
     8     2    11    1
     9     1     4    1
    10     4     5    1
    11    11     6    1
    12     5     6    1
    13     6     7    1
    14     7     8    2
    15     8     9    1
    16     9    15    1
    17     9    10    1
    18    16    15    1
    19    16    17    1
    20    19    14    1
    21    15    14    1
    22    17    18    1
    23    10    12    1
    24    34    27    1
    25    27    24    1
    26    14    18    1
    27    14    13    1
    28    18    20    1
    29    12    13    1
    30    23    24    1
    31    23    22    1
    32    33    26    1
    33    24    25    1
    34    24    26    1
    35    22    20    1
    36    20    21    1
