@<TRIPOS>MOLECULE
2zla_VDB_A_1.pdb
 34 36 0 0 0
SMALL
GASTEIGER

@<TRIPOS>ATOM
      1  C29        7.7080   -0.7030   29.6480 C.3   500  VDB500      0.0026
      2  C26        8.3390    0.4630   28.8660 C.3   500  VDB500      0.0313
      3  C25        9.3880    0.1080   27.7760 C.3   500  VDB500      0.1365
      4  C27        8.7280   -0.6770   26.6030 C.3   500  VDB500      0.0313
      5  C28        7.5970    0.0120   25.8140 C.3   500  VDB500      0.0026
      6  O3        10.4170   -0.6760   28.3790 O.3   500  VDB500     -0.2248
      7  C23        9.9310    1.4700   27.3260 C.3   500  VDB500      0.0878
      8  S22       11.0540    2.4000   28.4360 S.3   500  VDB500     -0.1385
      9  C20       12.7510    1.7340   28.1020 C.3   500  VDB500      0.0477
     10  C21       13.7020    1.8980   29.3020 C.3   500  VDB500      0.0117
     11  C17       13.3900    2.4290   26.8390 C.3   500  VDB500      0.0103
     12  C16       14.1690    1.7960   25.9310 C.3   500  VDB500      0.0012
     13  C15       14.6420    2.7810   24.8370 C.3   500  VDB500      0.0041
     14  C14       14.6170    4.0420   25.7050 C.3   500  VDB500      0.0183
     15  C13       13.2500    3.9330   26.4580 C.3   500  VDB500      0.0042
     16  C18       11.9060    4.0760   25.6320 C.3   500  VDB500      0.0003
     17  C12       13.3040    5.0020   27.6070 C.3   500  VDB500      0.0007
     18  C11       13.5390    6.4660   27.0870 C.3   500  VDB500      0.0044
     19  C9        14.7020    6.5800   26.0650 C.3   500  VDB500      0.0220
     20  C8        14.6260    5.4610   25.0140 C.2   500  VDB500     -0.0446
     21  C7        14.5180    5.6460   23.6470 C.2   500  VDB500     -0.0091
     22  C6        14.4590    6.7360   22.7790 C.2   500  VDB500     -0.0090
     23  C5        14.3230    6.9030   21.4170 C.2   500  VDB500     -0.0390
     24  C10       14.1860    5.7260   20.4430 C.3   500  VDB500      0.0576
     25  C1        14.7600    6.0020   19.0460 C.3   500  VDB500      0.1854
     26  O1        14.3860    4.9000   18.2230 O.3   500  VDB500     -0.2201
     27  C4        14.2880    8.3570   20.8840 C.3   500  VDB500      0.0576
     28  C3        14.7180    8.5090   19.3980 C.3   500  VDB500      0.1854
     29  O2        16.1420    8.5230   19.4250 O.3   500  VDB500     -0.2201
     30  C2        14.1950    7.3410   18.4730 C.3   500  VDB500      0.1763
     31  O4        14.5660    7.6240   17.0890 O.3   500  VDB500     -0.3482
     32  C30       13.4490    8.1870   16.3590 C.3   500  VDB500      0.1777
     33  C31       13.9670    8.1520   14.9150 C.3   500  VDB500      0.2140
     34  O5        13.7130    6.8990   14.2860 O.3   500  VDB500     -0.2176
@<TRIPOS>BOND
     1    34    33    1
     2    33    32    1
     3    32    31    1
     4    31    30    1
     5    26    25    1
     6    30    25    1
     7    30    28    1
     8    25    24    1
     9    28    29    1
    10    28    27    1
    11    24    23    1
    12    27    23    1
    13    23    22    2
    14    22    21    1
    15    21    20    2
    16    13    14    1
    17    13    12    1
    18    20    14    1
    19    20    19    1
    20    16    15    1
    21    14    15    1
    22     5     4    1
    23    12    11    1
    24    19    18    1
    25    15    11    1
    26    15    17    1
    27     4     3    1
    28    11     9    1
    29    18    17    1
    30     7     3    1
    31     7     8    1
    32     3     6    1
    33     3     2    1
    34     9     8    1
    35     9    10    1
    36     2     1    1
