@<TRIPOS>MOLECULE
2zlc_VDX_A_1.pdb
 30 32 0 0 0
SMALL
GASTEIGER

@<TRIPOS>ATOM
      1  O2        16.2620    9.0190   19.3870 O.3   500  VDX500     -0.2227
      2  O3         9.3720   -1.5540   28.0860 O.3   500  VDX500     -0.2257
      3  C1        14.7030    6.4940   19.0660 C.3   500  VDX500      0.1582
      4  C2        14.3770    7.8420   18.3630 C.3   500  VDX500      0.0664
      5  C3        14.8440    9.0460   19.2530 C.3   500  VDX500      0.1586
      6  C4        14.2010    8.9960   20.6780 C.3   500  VDX500      0.0550
      7  C5        14.3070    7.5750   21.3130 C.2   500  VDX500     -0.0396
      8  C6        14.6910    7.5850   22.6780 C.2   500  VDX500     -0.0090
      9  C7        14.8710    6.4770   23.5100 C.2   500  VDX500     -0.0091
     10  C8        14.6690    6.4010   24.8880 C.2   500  VDX500     -0.0446
     11  C9        14.1870    7.6040   25.7750 C.3   500  VDX500      0.0220
     12  C10       14.0200    6.4410   20.4640 C.3   500  VDX500      0.0489
     13  C11       12.9690    7.2170   26.6680 C.3   500  VDX500      0.0044
     14  C12       13.0850    5.7900   27.3210 C.3   500  VDX500      0.0006
     15  C13       13.4980    4.6420   26.3360 C.3   500  VDX500      0.0034
     16  C14       14.8640    5.0830   25.6950 C.3   500  VDX500      0.0183
     17  C15       15.3690    3.7880   24.9550 C.3   500  VDX500      0.0040
     18  C16       14.8010    2.6580   25.8450 C.3   500  VDX500      0.0003
     19  C17       14.0940    3.3740   27.0140 C.3   500  VDX500      0.0003
     20  C18       12.3230    4.4200   25.3020 C.3   500  VDX500      0.0003
     21  C19       13.1770    5.3660   20.8090 C.3   500  VDX500      0.0070
     22  C20       13.1020    2.4140   27.8240 C.3   500  VDX500      0.0000
     23  C21       13.8640    1.4700   28.7720 C.3   500  VDX500      0.0000
     24  C22       12.1710    1.4870   26.9580 C.3   500  VDX500      0.0001
     25  C23       10.7820    1.2640   27.5950 C.3   500  VDX500      0.0025
     26  C24        9.8490    0.4080   26.6890 C.3   500  VDX500      0.0304
     27  C25        8.7560   -0.4590   27.3810 C.3   500  VDX500      0.1268
     28  C26        7.9640    0.3840   28.3820 C.3   500  VDX500      0.0329
     29  C27        7.7730   -1.0300   26.3510 C.3   500  VDX500      0.0329
     30  O1        14.3140    5.4230   18.1900 O.3   500  VDX500     -0.2227
@<TRIPOS>BOND
     1    30     3    1
     2     4     3    1
     3     4     5    1
     4     3    12    1
     5     5     1    1
     6     5     6    1
     7    12    21    1
     8    12     7    1
     9     6     7    1
    10     7     8    2
    11     8     9    1
    12     9    10    2
    13    10    16    1
    14    10    11    1
    15    17    16    1
    16    17    18    1
    17    20    15    1
    18    16    15    1
    19    11    13    1
    20    18    19    1
    21    15    19    1
    22    15    14    1
    23    29    27    1
    24    13    14    1
    25    26    27    1
    26    26    25    1
    27    24    25    1
    28    24    22    1
    29    19    22    1
    30    27     2    1
    31    27    28    1
    32    22    23    1
