@<TRIPOS>MOLECULE
2zld_III_C_1.pdb
 28 27 0 0 0
SMALL
GASTEIGER

@<TRIPOS>ATOM
      1  N         18.2970   16.3100    7.9830 N.3     6  UNK6       -0.1210
      2  CA        19.2740   15.4840    8.7500 C.3     6  UNK6        0.1956
      3  C         18.8900   14.0180    8.7780 C.2     6  UNK6        0.2612
      4  O         17.8750   13.6490    9.3750 O.2     6  UNK6       -0.2717
      5  N         19.7010   13.1850    8.1220 N.am    7  UNK7       -0.1942
      6  CA        19.5020   11.7340    8.1030 C.3     7  UNK7        0.2014
      7  C         20.2730   11.0000    9.1940 C.2     7  UNK7        0.2639
      8  O         20.6080    9.8240    9.0420 O.2     7  UNK7       -0.2714
      9  N         20.5500   11.6920   10.3000 N.am    8  UNK8       -0.1939
     10  CA        21.2860   11.1110   11.4230 C.3     8  UNK8        0.2014
     11  C         20.3750   10.4310   12.4270 C.2     8  UNK8        0.2639
     12  O         20.1760   10.9310   13.5370 O.2     8  UNK8       -0.2714
     13  N         19.8170    9.2900   12.0300 N.am    9  UNK9       -0.1939
     14  CA        18.9380    8.5090   12.8970 C.3     9  UNK9        0.2014
     15  C         19.7330    7.6960   13.8950 C.2     9  UNK9        0.2639
     16  O         19.4250    7.7080   15.0910 O.2     9  UNK9       -0.2714
     17  N         20.7440    6.9860   13.3840 N.am   10  UNK10      -0.1939
     18  CA        21.7060    6.2120   14.1780 C.3    10  UNK10       0.2014
     19  C         21.1330    5.1580   15.1090 C.2    10  UNK10       0.2639
     20  O         20.6670    4.1030   14.6660 O.2    10  UNK10      -0.2714
     21  N         21.1920    5.4470   16.4060 N.am   11  UNK11      -0.1939
     22  CA        20.6390    4.5860   17.4400 C.3    11  UNK11       0.2014
     23  C         20.5210    5.3660   18.7340 C.2    11  UNK11       0.2639
     24  O         21.4300    6.1080   19.1000 O.2    11  UNK11      -0.2714
     25  N         19.3990    5.2010   19.4240 N.am   12  UNK12      -0.1954
     26  CA        19.1290    5.9380   20.6540 C.3    12  UNK12       0.1869
     27  C         20.1270    5.6470   21.7580 C.2    12  UNK12       0.2309
     28  O         19.7750    5.6510   22.9370 O.2    12  UNK12      -0.2863
@<TRIPOS>BOND
     1     1     2    1
     2     6     5    1
     3     6     7    1
     4     5     3   am
     5     2     3    1
     6     3     4    2
     7     8     7    2
     8     7     9   am
     9     9    10    1
    10    10    11    1
    11    13    11   am
    12    13    14    1
    13    11    12    2
    14    14    15    1
    15    17    15   am
    16    17    18    1
    17    15    16    2
    18    18    19    1
    19    20    19    2
    20    19    21   am
    21    21    22    1
    22    22    23    1
    23    23    24    2
    24    23    25   am
    25    25    26    1
    26    26    27    1
    27    27    28    2
