@<TRIPOS>MOLECULE
2zlt_HEM_A_1.pdb
 43 50 0 0 0
SMALL
GASTEIGER

@<TRIPOS>ATOM
      1 FE          5.4340   -9.6830   17.0950 Fe    142  HEM142      0.0000
      2  CHA        4.8870  -10.9250   20.2580 C.2   142  HEM142      0.0000
      3  CHB        7.5460  -12.4070   16.4500 C.2   142  HEM142      0.0000
      4  CHC        5.8350   -8.6810   13.8470 C.2   142  HEM142      0.0000
      5  CHD        3.8680   -6.7620   17.8720 C.2   142  HEM142      0.0000
      6  NA         6.1340  -11.3720   18.1690 N.ar  142  HEM142      0.0000
      7  C1A        5.7140  -11.6880   19.4490 C.ar  142  HEM142      0.0000
      8  C2A        6.3310  -12.9660   19.7910 C.ar  142  HEM142      0.0000
      9  C3A        7.0590  -13.3770   18.7420 C.ar  142  HEM142      0.0000
     10  C4A        6.9530  -12.3680   17.7010 C.ar  142  HEM142      0.0000
     11  CMA        7.8980  -14.6710   18.6130 C.3   142  HEM142      0.0000
     12  CAA        6.1110  -13.7440   21.1070 C.3   142  HEM142      0.0000
     13  CBA        6.8760  -13.2270   22.3040 C.3   142  HEM142      0.0000
     14  CGA        6.3950  -14.0090   23.5240 C.2   142  HEM142      0.0000
     15  O1A        5.8340  -15.1450   23.3750 O.co2 142  HEM142      0.0000
     16  O2A        6.5550  -13.4710   24.6610 O.co2 142  HEM142      0.0000
     17  NB         6.5260  -10.4190   15.4490 N.2   142  HEM142      0.0000
     18  C1B        7.2710  -11.5740   15.3860 C.2   142  HEM142      0.0000
     19  C2B        7.7290  -11.7360   14.0120 C.2   142  HEM142      0.0000
     20  C3B        7.2580  -10.6970   13.3000 C.2   142  HEM142      0.0000
     21  C4B        6.4870   -9.8590   14.1900 C.2   142  HEM142      0.0000
     22  CMB        8.6150  -12.9160   13.5300 C.3   142  HEM142      0.0000
     23  CAB        7.4470  -10.3850   11.7930 C.2   142  HEM142      0.0000
     24  CBB        8.5810  -10.6570   11.1580 C.2   142  HEM142      0.0000
     25  NC         4.9230   -8.0290   16.0430 N.ar  142  HEM142      0.0000
     26  C1C        5.2110   -7.8080   14.7110 C.ar  142  HEM142      0.0000
     27  C2C        4.7480   -6.4710   14.3900 C.ar  142  HEM142      0.0000
     28  C3C        4.1950   -5.9270   15.5030 C.ar  142  HEM142      0.0000
     29  C4C        4.3070   -6.9150   16.5690 C.ar  142  HEM142      0.0000
     30  CMC        4.9060   -5.8320   12.9840 C.3   142  HEM142      0.0000
     31  CAC        3.5630   -4.5220   15.6750 C.2   142  HEM142      0.0000
     32  CBC        4.1520   -3.3990   15.2240 C.2   142  HEM142      0.0000
     33  ND         4.5050   -8.9480   18.8100 N.2   142  HEM142      0.0000
     34  C1D        3.9370   -7.6850   18.8970 C.2   142  HEM142      0.0000
     35  C2D        3.4470   -7.4920   20.2490 C.2   142  HEM142      0.0000
     36  C3D        3.7490   -8.7800   20.9930 C.2   142  HEM142      0.0000
     37  C4D        4.4100   -9.6420   20.0230 C.2   142  HEM142      0.0000
     38  CMD        2.7370   -6.2510   20.8030 C.3   142  HEM142      0.0000
     39  CAD        3.4310   -9.0920   22.4810 C.3   142  HEM142      0.0000
     40  CBD        4.6260   -8.5720   23.2740 C.3   142  HEM142      0.0000
     41  CGD        4.4300   -8.7100   24.7700 C.2   142  HEM142      0.0000
     42  O1D        3.3680   -8.3000   25.3020 O.co2 142  HEM142      0.0000
     43  O2D        5.3650   -9.2180   25.4310 O.co2 142  HEM142      0.0000
@<TRIPOS>BOND
     1    24    23    2
     2    23    20    1
     3    30    27    1
     4    20    19    2
     5    20    21    1
     6    22    19    1
     7     4    21    2
     8     4    26    1
     9    19    18    1
    10    21    17    1
    11    27    26   ar
    12    27    28   ar
    13    26    25   ar
    14    32    31    2
    15    18    17    2
    16    18     3    1
    17    17     1    1
    18    28    31    1
    19    28    29   ar
    20    25    29   ar
    21    25     1    1
    22     3    10    2
    23    29     5    1
    24     1     6    1
    25     1    33    1
    26    10     6   ar
    27    10     9   ar
    28     5    34    2
    29     6     7   ar
    30    11     9    1
    31     9     8   ar
    32    33    34    1
    33    33    37    2
    34    34    35    1
    35     7     8   ar
    36     7     2    2
    37     8    12    1
    38    37     2    1
    39    37    36    1
    40    35    38    1
    41    35    36    2
    42    36    39    1
    43    12    13    1
    44    13    14    1
    45    39    40    1
    46    40    41    1
    47    15    14   ar
    48    14    16   ar
    49    41    42   ar
    50    41    43   ar
