@<TRIPOS>MOLECULE
2zlu_HEM_A_1.pdb
 43 50 0 0 0
SMALL
GASTEIGER

@<TRIPOS>ATOM
      1 FE          5.4180   -9.7040   16.9530 Fe    142  HEM142      0.0000
      2  CHA        4.8060  -10.9890   19.9970 C.2   142  HEM142      0.0000
      3  CHB        7.5710  -12.4090   16.2700 C.2   142  HEM142      0.0000
      4  CHC        5.7790   -8.7120   13.7040 C.2   142  HEM142      0.0000
      5  CHD        3.8500   -6.7670   17.7140 C.2   142  HEM142      0.0000
      6  NA         6.1120  -11.3930   17.9330 N.ar  142  HEM142      0.0000
      7  C1A        5.6610  -11.7370   19.2080 C.ar  142  HEM142      0.0000
      8  C2A        6.2780  -13.0180   19.5410 C.ar  142  HEM142      0.0000
      9  C3A        7.0470  -13.4150   18.5070 C.ar  142  HEM142      0.0000
     10  C4A        6.9450  -12.3900   17.4860 C.ar  142  HEM142      0.0000
     11  CMA        7.8920  -14.7150   18.3810 C.3   142  HEM142      0.0000
     12  CAA        6.0370  -13.8240   20.8410 C.3   142  HEM142      0.0000
     13  CBA        6.7940  -13.3010   22.0320 C.3   142  HEM142      0.0000
     14  CGA        6.4210  -14.1440   23.2540 C.2   142  HEM142      0.0000
     15  O1A        5.8940  -15.3130   23.1500 O.co2 142  HEM142      0.0000
     16  O2A        6.6480  -13.5980   24.3670 O.co2 142  HEM142      0.0000
     17  NB         6.4960  -10.4280   15.3190 N.2   142  HEM142      0.0000
     18  C1B        7.2390  -11.5820   15.2250 C.2   142  HEM142      0.0000
     19  C2B        7.6830  -11.7550   13.8630 C.2   142  HEM142      0.0000
     20  C3B        7.2110  -10.7200   13.1570 C.2   142  HEM142      0.0000
     21  C4B        6.4320   -9.8820   14.0490 C.2   142  HEM142      0.0000
     22  CMB        8.5570  -12.9510   13.3980 C.3   142  HEM142      0.0000
     23  CAB        7.3670  -10.4520   11.6380 C.2   142  HEM142      0.0000
     24  CBB        8.5270  -10.4940   11.0040 C.2   142  HEM142      0.0000
     25  NC         4.9050   -8.0400   15.8910 N.ar  142  HEM142      0.0000
     26  C1C        5.1780   -7.8150   14.5580 C.ar  142  HEM142      0.0000
     27  C2C        4.7450   -6.4730   14.2490 C.ar  142  HEM142      0.0000
     28  C3C        4.2120   -5.9400   15.3780 C.ar  142  HEM142      0.0000
     29  C4C        4.2960   -6.9240   16.4180 C.ar  142  HEM142      0.0000
     30  CMC        4.8970   -5.7980   12.8730 C.3   142  HEM142      0.0000
     31  CAC        3.6090   -4.5400   15.6000 C.2   142  HEM142      0.0000
     32  CBC        4.3760   -3.4450   15.6150 C.2   142  HEM142      0.0000
     33  ND         4.4570   -8.9640   18.6220 N.2   142  HEM142      0.0000
     34  C1D        3.9100   -7.7030   18.7300 C.2   142  HEM142      0.0000
     35  C2D        3.4400   -7.5280   20.0900 C.2   142  HEM142      0.0000
     36  C3D        3.6910   -8.8450   20.8090 C.2   142  HEM142      0.0000
     37  C4D        4.3530   -9.6970   19.8120 C.2   142  HEM142      0.0000
     38  CMD        2.7390   -6.2930   20.6580 C.3   142  HEM142      0.0000
     39  CAD        3.3710   -9.1620   22.3040 C.3   142  HEM142      0.0000
     40  CBD        4.5470   -8.5960   23.1010 C.3   142  HEM142      0.0000
     41  CGD        4.3980   -8.8440   24.5850 C.2   142  HEM142      0.0000
     42  O1D        3.3570   -8.4600   25.1550 O.co2 142  HEM142      0.0000
     43  O2D        5.3280   -9.4010   25.2190 O.co2 142  HEM142      0.0000
@<TRIPOS>BOND
     1    24    23    2
     2    23    20    1
     3    30    27    1
     4    20    19    2
     5    20    21    1
     6    22    19    1
     7     4    21    2
     8     4    26    1
     9    19    18    1
    10    21    17    1
    11    27    26   ar
    12    27    28   ar
    13    26    25   ar
    14    18    17    2
    15    18     3    1
    16    17     1    1
    17    28    31    1
    18    28    29   ar
    19    31    32    2
    20    25    29   ar
    21    25     1    1
    22     3    10    2
    23    29     5    1
    24     1     6    1
    25     1    33    1
    26    10     6   ar
    27    10     9   ar
    28     5    34    2
    29     6     7   ar
    30    11     9    1
    31     9     8   ar
    32    33    34    1
    33    33    37    2
    34    34    35    1
    35     7     8   ar
    36     7     2    2
    37     8    12    1
    38    37     2    1
    39    37    36    1
    40    35    38    1
    41    35    36    2
    42    36    39    1
    43    12    13    1
    44    13    14    1
    45    39    40    1
    46    40    41    1
    47    15    14   ar
    48    14    16   ar
    49    41    42   ar
    50    41    43   ar
