@<TRIPOS>MOLECULE
2zlv_HEM_A_1.pdb
 43 50 0 0 0
SMALL
GASTEIGER

@<TRIPOS>ATOM
      1 FE         18.0060   40.2310   27.0790 Fe    142  HEM142      0.0000
      2  CHA       15.5220   41.5280   29.0510 C.2   142  HEM142      0.0000
      3  CHB       17.6010   42.8950   24.8980 C.2   142  HEM142      0.0000
      4  CHC       20.6850   39.1590   25.2960 C.2   142  HEM142      0.0000
      5  CHD       17.9450   37.2810   28.7910 C.2   142  HEM142      0.0000
      6  NA        16.7540   41.9110   26.9920 N.ar  142  HEM142      0.0000
      7  C1A       15.8450   42.2740   27.9410 C.ar  142  HEM142      0.0000
      8  C2A       15.3290   43.5740   27.5950 C.ar  142  HEM142      0.0000
      9  C3A       15.8840   43.9580   26.4370 C.ar  142  HEM142      0.0000
     10  C4A       16.8180   42.9040   26.0390 C.ar  142  HEM142      0.0000
     11  CMA       15.6160   45.2420   25.6520 C.3   142  HEM142      0.0000
     12  CAA       14.3140   44.3730   28.4640 C.3   142  HEM142      0.0000
     13  CBA       12.8890   44.0880   28.1940 C.3   142  HEM142      0.0000
     14  CGA       12.1850   45.3090   28.8310 C.2   142  HEM142      0.0000
     15  O1A       12.3320   45.6280   30.0540 O.co2 142  HEM142      0.0000
     16  O2A       11.4810   46.0160   28.0910 O.co2 142  HEM142      0.0000
     17  NB        18.9360   40.8790   25.3770 N.2   142  HEM142      0.0000
     18  C1B       18.7010   42.0660   24.6740 C.2   142  HEM142      0.0000
     19  C2B       19.6970   42.2280   23.6380 C.2   142  HEM142      0.0000
     20  C3B       20.5610   41.1710   23.7350 C.2   142  HEM142      0.0000
     21  C4B       20.0920   40.3120   24.8270 C.2   142  HEM142      0.0000
     22  CMB       19.7210   43.4100   22.6250 C.3   142  HEM142      0.0000
     23  CAB       21.8560   40.8860   22.8960 C.2   142  HEM142      0.0000
     24  CBB       21.8640   41.0320   21.5800 C.2   142  HEM142      0.0000
     25  NC        19.1300   38.5000   27.0500 N.ar  142  HEM142      0.0000
     26  C1C       20.2070   38.2890   26.2530 C.ar  142  HEM142      0.0000
     27  C2C       20.7400   36.9520   26.5600 C.ar  142  HEM142      0.0000
     28  C3C       19.9760   36.4220   27.5310 C.ar  142  HEM142      0.0000
     29  C4C       18.9320   37.4100   27.8380 C.ar  142  HEM142      0.0000
     30  CMC       21.9520   36.3060   25.8600 C.3   142  HEM142      0.0000
     31  CAC       20.0950   35.0600   28.1980 C.2   142  HEM142      0.0000
     32  CBC       20.1170   33.9240   27.4560 C.2   142  HEM142      0.0000
     33  ND        16.9630   39.5190   28.6520 N.2   142  HEM142      0.0000
     34  C1D       17.0620   38.2370   29.1920 C.2   142  HEM142      0.0000
     35  C2D       16.0850   38.0650   30.2510 C.2   142  HEM142      0.0000
     36  C3D       15.3640   39.3840   30.3260 C.2   142  HEM142      0.0000
     37  C4D       15.9480   40.2360   29.3040 C.2   142  HEM142      0.0000
     38  CMD       15.7870   36.8790   31.1650 C.3   142  HEM142      0.0000
     39  CAD       14.2070   39.7470   31.2600 C.3   142  HEM142      0.0000
     40  CBD       12.9070   39.4610   30.5160 C.3   142  HEM142      0.0000
     41  CGD       11.7420   39.8630   31.4190 C.2   142  HEM142      0.0000
     42  O1D       11.8960   40.8340   32.2320 O.co2 142  HEM142      0.0000
     43  O2D       10.6820   39.2220   31.2930 O.co2 142  HEM142      0.0000
@<TRIPOS>BOND
     1    24    23    2
     2    22    19    1
     3    23    20    1
     4    19    20    2
     5    19    18    1
     6    20    21    1
     7    18     3    1
     8    18    17    2
     9    21     4    2
    10    21    17    1
    11     3    10    2
    12     4    26    1
    13    17     1    1
    14    11     9    1
    15    30    27    1
    16    10     9   ar
    17    10     6   ar
    18    26    27   ar
    19    26    25   ar
    20     9     8   ar
    21    27    28   ar
    22     6     1    1
    23     6     7   ar
    24    25     1    1
    25    25    29   ar
    26     1    33    1
    27    32    31    2
    28    28    29   ar
    29    28    31    1
    30     8     7   ar
    31     8    12    1
    32    29     5    1
    33     7     2    2
    34    16    14   ar
    35    13    12    1
    36    13    14    1
    37    33    34    1
    38    33    37    2
    39     5    34    2
    40    14    15   ar
    41     2    37    1
    42    34    35    1
    43    37    36    1
    44    35    36    2
    45    35    38    1
    46    36    39    1
    47    40    39    1
    48    40    41    1
    49    43    41   ar
    50    41    42   ar
