@<TRIPOS>MOLECULE
2zlw_HEM_A_1.pdb
 43 50 0 0 0
SMALL
GASTEIGER

@<TRIPOS>ATOM
      1 FE         -4.1320   -9.0790   42.1420 Fe    142  HEM142      0.0000
      2  CHA       -5.2400  -10.4970   45.1240 C.2   142  HEM142      0.0000
      3  CHB       -2.5280  -11.9540   41.4530 C.2   142  HEM142      0.0000
      4  CHC       -4.0130   -8.1760   38.8160 C.2   142  HEM142      0.0000
      5  CHD       -5.9030   -6.2310   42.8300 C.2   142  HEM142      0.0000
      6  NA        -3.9020  -10.8020   43.0880 N.ar  142  HEM142      0.0000
      7  C1A       -4.3870  -11.2220   44.3260 C.ar  142  HEM142      0.0000
      8  C2A       -3.7550  -12.4630   44.7010 C.ar  142  HEM142      0.0000
      9  C3A       -2.8910  -12.8220   43.7240 C.ar  142  HEM142      0.0000
     10  C4A       -3.0190  -11.7970   42.7110 C.ar  142  HEM142      0.0000
     11  CMA       -1.9670  -14.0530   43.6380 C.3   142  HEM142      0.0000
     12  CAA       -3.9800  -13.1350   46.0350 C.3   142  HEM142      0.0000
     13  CBA       -2.8340  -12.7210   46.9520 C.3   142  HEM142      0.0000
     14  CGA       -3.1360  -13.2110   48.3380 C.2   142  HEM142      0.0000
     15  O1A       -3.1440  -14.4510   48.5540 O.co2 142  HEM142      0.0000
     16  O2A       -3.3740  -12.3330   49.1970 O.co2 142  HEM142      0.0000
     17  NB        -3.4590   -9.8900   40.5150 N.2   142  HEM142      0.0000
     18  C1B       -2.8510  -11.1390   40.4100 C.2   142  HEM142      0.0000
     19  C2B       -2.4730  -11.4110   39.0390 C.2   142  HEM142      0.0000
     20  C3B       -2.7980  -10.3280   38.3140 C.2   142  HEM142      0.0000
     21  C4B       -3.4580   -9.3840   39.2020 C.2   142  HEM142      0.0000
     22  CMB       -1.8360  -12.7110   38.5170 C.3   142  HEM142      0.0000
     23  CAB       -2.4680  -10.1260   36.9110 C.2   142  HEM142      0.0000
     24  CBB       -1.2710   -9.6020   36.5900 C.2   142  HEM142      0.0000
     25  NC        -4.7470   -7.4850   41.0840 N.ar  142  HEM142      0.0000
     26  C1C       -4.6030   -7.2770   39.7030 C.ar  142  HEM142      0.0000
     27  C2C       -5.1200   -5.9730   39.3400 C.ar  142  HEM142      0.0000
     28  C3C       -5.5240   -5.3670   40.4880 C.ar  142  HEM142      0.0000
     29  C4C       -5.3570   -6.3340   41.5590 C.ar  142  HEM142      0.0000
     30  CMC       -5.1860   -5.4560   37.8980 C.3   142  HEM142      0.0000
     31  CAC       -5.9120   -3.9620   40.7220 C.3   142  HEM142      0.0000
     32  CBC       -6.4330   -3.1030   39.7550 C.3   142  HEM142      0.0000
     33  ND        -5.4050   -8.5040   43.6500 N.2   142  HEM142      0.0000
     34  C1D       -5.9610   -7.2370   43.7970 C.2   142  HEM142      0.0000
     35  C2D       -6.4740   -7.0700   45.1540 C.2   142  HEM142      0.0000
     36  C3D       -6.2080   -8.3160   45.8180 C.2   142  HEM142      0.0000
     37  C4D       -5.5900   -9.1780   44.8570 C.2   142  HEM142      0.0000
     38  CMD       -7.2160   -5.8600   45.7570 C.3   142  HEM142      0.0000
     39  CAD       -6.5210   -8.6870   47.2510 C.3   142  HEM142      0.0000
     40  CBD       -5.2550   -8.3820   48.0510 C.3   142  HEM142      0.0000
     41  CGD       -5.6040   -8.3000   49.5070 C.2   142  HEM142      0.0000
     42  O1D       -6.5630   -7.5580   49.8300 O.co2 142  HEM142      0.0000
     43  O2D       -4.9350   -8.9730   50.3150 O.co2 142  HEM142      0.0000
@<TRIPOS>BOND
     1    24    23    2
     2    23    20    1
     3    30    27    1
     4    20    19    2
     5    20    21    1
     6    22    19    1
     7     4    21    2
     8     4    26    1
     9    19    18    1
    10    21    17    1
    11    27    26   ar
    12    27    28   ar
    13    26    25   ar
    14    32    31    1
    15    18    17    2
    16    18     3    1
    17    28    31    1
    18    28    29   ar
    19    17     1    1
    20    25    29   ar
    21    25     1    1
    22     3    10    2
    23    29     5    1
    24     1     6    1
    25     1    33    1
    26    10     6   ar
    27    10     9   ar
    28     5    34    2
    29     6     7   ar
    30    11     9    1
    31    33    34    1
    32    33    37    2
    33     9     8   ar
    34    34    35    1
    35     7     8   ar
    36     7     2    2
    37     8    12    1
    38    37     2    1
    39    37    36    1
    40    35    38    1
    41    35    36    2
    42    36    39    1
    43    12    13    1
    44    13    14    1
    45    39    40    1
    46    40    41    1
    47    14    15   ar
    48    14    16   ar
    49    41    42   ar
    50    41    43   ar
