@<TRIPOS>MOLECULE
2zlx_HEM_A_1.pdb
 43 50 0 0 0
SMALL
GASTEIGER

@<TRIPOS>ATOM
      1 FE         22.2230   23.1150   27.1570 Fe    142  HEM142      0.0000
      2  CHA       23.1450   21.7660   23.9840 C.2   142  HEM142      0.0000
      3  CHB       20.3560   20.3570   27.7010 C.2   142  HEM142      0.0000
      4  CHC       22.0480   23.9780   30.4040 C.2   142  HEM142      0.0000
      5  CHD       23.8750   25.9560   26.4000 C.2   142  HEM142      0.0000
      6  NA        21.8110   21.4430   26.0070 N.2   142  HEM142      0.0000
      7  C1A       22.3430   21.0280   24.7990 C.2   142  HEM142      0.0000
      8  C2A       21.9280   19.6760   24.5210 C.2   142  HEM142      0.0000
      9  C3A       21.1210   19.2880   25.5290 C.2   142  HEM142      0.0000
     10  C4A       21.0480   20.3830   26.4810 C.2   142  HEM142      0.0000
     11  CMA       20.3730   17.9410   25.6660 C.3   142  HEM142      0.0000
     12  CAA       22.4110   18.8590   23.3000 C.3   142  HEM142      0.0000
     13  CBA       21.3710   18.6130   22.2050 C.3   142  HEM142      0.0000
     14  CGA       22.0150   17.8070   21.0910 C.2   142  HEM142      0.0000
     15  O1A       22.7590   16.8210   21.3960 O.co2 142  HEM142      0.0000
     16  O2A       21.7870   18.1580   19.8980 O.co2 142  HEM142      0.0000
     17  NB        21.3630   22.3160   28.7610 N.ar  142  HEM142      0.0000
     18  C1B       20.5930   21.1750   28.7980 C.ar  142  HEM142      0.0000
     19  C2B       20.0870   20.9690   30.1430 C.ar  142  HEM142      0.0000
     20  C3B       20.5670   21.9780   30.9170 C.ar  142  HEM142      0.0000
     21  C4B       21.3890   22.8230   30.0360 C.ar  142  HEM142      0.0000
     22  CMB       19.1650   19.7990   30.5510 C.3   142  HEM142      0.0000
     23  CAB       20.3940   22.2470   32.4050 C.2   142  HEM142      0.0000
     24  CBB       19.2380   22.1670   33.1060 C.2   142  HEM142      0.0000
     25  NC        22.8430   24.6620   28.2140 N.2   142  HEM142      0.0000
     26  C1C       22.6120   24.8900   29.5460 C.2   142  HEM142      0.0000
     27  C2C       23.0420   26.2410   29.8730 C.2   142  HEM142      0.0000
     28  C3C       23.5110   26.8140   28.7510 C.2   142  HEM142      0.0000
     29  C4C       23.4120   25.8120   27.7040 C.2   142  HEM142      0.0000
     30  CMC       22.9860   26.8670   31.2870 C.3   142  HEM142      0.0000
     31  CAC       24.1250   28.1870   28.5700 C.2   142  HEM142      0.0000
     32  CBC       23.5300   29.3680   28.8420 C.2   142  HEM142      0.0000
     33  ND        23.3340   23.7050   25.4810 N.ar  142  HEM142      0.0000
     34  C1D       23.9160   24.9770   25.4110 C.ar  142  HEM142      0.0000
     35  C2D       24.5320   25.1310   24.1160 C.ar  142  HEM142      0.0000
     36  C3D       24.2930   23.8730   23.3780 C.ar  142  HEM142      0.0000
     37  C4D       23.5520   23.0360   24.2760 C.ar  142  HEM142      0.0000
     38  CMD       25.3070   26.3520   23.6200 C.3   142  HEM142      0.0000
     39  CAD       24.7040   23.5500   21.9430 C.3   142  HEM142      0.0000
     40  CBD       23.6350   24.2450   21.1010 C.3   142  HEM142      0.0000
     41  CGD       23.6560   23.8150   19.6530 C.2   142  HEM142      0.0000
     42  O1D       24.4860   24.3590   18.8770 O.co2 142  HEM142      0.0000
     43  O2D       22.8400   22.9320   19.2790 O.co2 142  HEM142      0.0000
@<TRIPOS>BOND
     1    42    41   ar
     2    43    41   ar
     3    41    40    1
     4    16    14   ar
     5    14    15   ar
     6    14    13    1
     7    40    39    1
     8    39    36    1
     9    13    12    1
    10    12     8    1
    11    36    35   ar
    12    36    37   ar
    13    38    35    1
    14     2    37    2
    15     2     7    1
    16    35    34   ar
    17    37    33   ar
    18     8     7    1
    19     8     9    2
    20     7     6    2
    21    34    33   ar
    22    34     5    2
    23    33     1    1
    24     9    11    1
    25     9    10    1
    26     6    10    1
    27     6     1    1
    28     5    29    1
    29    10     3    2
    30     1    25    1
    31     1    17    1
    32     3    18    1
    33    29    25    2
    34    29    28    1
    35    25    26    1
    36    31    28    1
    37    31    32    2
    38    28    27    2
    39    17    18   ar
    40    17    21   ar
    41    18    19   ar
    42    26    27    1
    43    26     4    2
    44    27    30    1
    45    21     4    1
    46    21    20   ar
    47    19    22    1
    48    19    20   ar
    49    20    23    1
    50    23    24    2
