@<TRIPOS>MOLECULE
2zm1_KSF_A_1.pdb
 23 26 0 0 0
SMALL
GASTEIGER

@<TRIPOS>ATOM
      1 CL23       21.0260   38.7930    5.5230 Cl    513  KSF513     -0.0809
      2  C18       19.7750   37.6240    6.0760 C.ar  513  KSF513      0.0729
      3  C17       19.8820   37.0660    7.4570 C.ar  513  KSF513      0.0827
      4  C22       18.9030   36.1690    7.8910 C.ar  513  KSF513      0.0174
      5  C21       17.8480   35.8400    7.0300 C.ar  513  KSF513      0.0014
      6  C20       17.7400   36.3630    5.7350 C.ar  513  KSF513      0.0010
      7  C19       18.6960   37.2730    5.2550 C.ar  513  KSF513      0.0127
      8  N16       20.9410   37.4200    8.2520 N.pl3 513  KSF513     -0.1920
      9  C2        22.2390   36.9710    8.0930 C.ar  513  KSF513      0.1696
     10  N3        22.5580   35.9240    7.3000 N.ar  513  KSF513     -0.2243
     11  C4        23.8240   35.5040    7.1780 C.ar  513  KSF513      0.1179
     12  C5        24.9000   36.0750    7.8280 C.ar  513  KSF513      0.0846
     13  N6        24.6570   37.1220    8.6590 N.ar  513  KSF513     -0.2838
     14  C7        25.4730   37.8770    9.4050 C.ar  513  KSF513      0.1829
     15  N8        24.7490   38.8040   10.0580 N.ar  513  KSF513     -0.2220
     16  C9        23.4480   38.6800    9.7420 C.ar  513  KSF513      0.1210
     17  C1        23.3870   37.5920    8.8160 C.ar  513  KSF513      0.1181
     18  C10       26.2600   35.4610    7.5660 C.ar  513  KSF513      0.0177
     19  C11       26.5700   34.9720    6.2700 C.ar  513  KSF513      0.0015
     20  C12       27.8090   34.3590    5.9770 C.ar  513  KSF513      0.0000
     21  C13       28.7480   34.2180    7.0070 C.ar  513  KSF513      0.0000
     22  C14       28.4340   34.6650    8.3160 C.ar  513  KSF513      0.0000
     23  C15       27.2020   35.2850    8.5870 C.ar  513  KSF513      0.0015
@<TRIPOS>BOND
     1     7     6   ar
     2     7     2   ar
     3     1     2    1
     4     6     5   ar
     5    20    19   ar
     6    20    21   ar
     7     2     3   ar
     8    19    18   ar
     9    21    22   ar
    10     5     4   ar
    11    11    10   ar
    12    11    12   ar
    13    10     9   ar
    14     3     4   ar
    15     3     8    1
    16    18    12    1
    17    18    23   ar
    18    12    13   ar
    19     9     8    1
    20     9    17   ar
    21    22    23   ar
    22    13    17   ar
    23    13    14   ar
    24    17    16   ar
    25    14    15   ar
    26    16    15   ar
