@<TRIPOS>MOLECULE
2zm3_575_A_1.pdb
 27 30 0 0 0
SMALL
GASTEIGER

@<TRIPOS>ATOM
      1  C1        36.4120   82.2610   56.8940 C.ar    1  5751       -0.0016
      2  C2        36.7360   80.9650   56.4760 C.ar    1  5751        0.0162
      3  C3        37.0630   79.9590   57.4040 C.ar    1  5751        0.0705
      4  C4        37.0500   80.2940   58.7630 C.ar    1  5751        0.0162
      5  C5        36.7270   81.5860   59.1810 C.ar    1  5751       -0.0016
      6  C6        36.4020   82.5830   58.2570 C.ar    1  5751       -0.0061
      7  C7        36.0710   83.9680   58.7570 C.3     1  5751        0.0991
      8  N1        34.7390   84.5870   58.3920 N.3     1  5751       -0.2690
      9  C8        34.1360   85.4140   59.5140 C.3     1  5751        0.0724
     10  C9        32.6330   85.3730   59.2770 C.3     1  5751        0.0188
     11  C10       32.4320   84.5750   57.9980 C.3     1  5751        0.0188
     12  C11       33.6360   83.6560   57.9470 C.3     1  5751        0.0724
     13  N2        37.3850   78.6670   56.9450 N.pl3   1  5751       -0.2104
     14  C12       38.0200   77.6780   57.6530 C.2     1  5751        0.0983
     15  C13       38.5780   76.5060   57.2820 C.2     1  5751        0.1126
     16  C14       39.0500   75.5440   58.3050 C.ar    1  5751        0.0257
     17  C15       39.2090   75.9110   59.6510 C.ar    1  5751        0.0082
     18  C16       39.6540   74.9990   60.6080 C.ar    1  5751        0.0346
     19  C17       39.9510   73.6910   60.2410 C.ar    1  5751        0.0075
     20  C18       39.8020   73.3020   58.9140 C.ar    1  5751        0.0132
     21  C19       39.3530   74.2220   57.9480 C.ar    1  5751        0.0962
     22  C20       39.2070   73.7750   56.5440 C.1     1  5751        0.2150
     23  O1        39.4700   72.6230   56.2190 O.2     1  5751       -0.2086
     24  N3        38.7640   74.7250   55.6360 N.2     1  5751       -0.2576
     25  C21       38.4320   76.0540   55.8620 C.1     1  5751        0.2164
     26  O2        38.0540   76.7950   54.9590 O.2     1  5751       -0.2085
     27 BR1        39.8390   75.5820   62.4090 Br      1  5751       -0.0490
@<TRIPOS>BOND
     1    26    25    2
     2    24    25    2
     3    24    22    2
     4    25    15    1
     5    23    22    2
     6     2     1   ar
     7     2     3   ar
     8    22    21    1
     9     1     6   ar
    10    13     3    1
    11    13    14    1
    12    15    14    2
    13    15    16    1
    14     3     4   ar
    15    12    11    1
    16    12     8    1
    17    21    16   ar
    18    21    20   ar
    19    11    10    1
    20     6     7    1
    21     6     5   ar
    22    16    17   ar
    23     8     7    1
    24     8     9    1
    25     4     5   ar
    26    20    19   ar
    27    10     9    1
    28    17    18   ar
    29    19    18   ar
    30    18    27    1
