@<TRIPOS>MOLECULE
2zm4_KSM_A_1.pdb
 29 33 0 0 0
SMALL
GASTEIGER

@<TRIPOS>ATOM
      1 CL24       18.9640   35.4930    9.3230 Cl    604  KSM604     -0.0809
      2  C12       19.0910   36.0620    7.6250 C.ar  604  KSM604      0.0726
      3  C13       18.0980   35.5950    6.7700 C.ar  604  KSM604      0.0127
      4  C14       18.0810   35.9400    5.4300 C.ar  604  KSM604      0.0006
      5  C15       19.0440   36.7850    4.8920 C.ar  604  KSM604     -0.0029
      6  C16       20.0930   37.3220    5.6650 C.ar  604  KSM604     -0.0057
      7  C20       21.1340   38.2470    5.0580 C.3   604  KSM604      0.0324
      8  C11       20.1910   36.9710    7.1140 C.ar  604  KSM604      0.0797
      9  N10       21.2450   37.5150    7.8530 N.pl3 604  KSM604     -0.1818
     10  C9        22.5460   37.0230    7.8500 C.2   604  KSM604      0.2211
     11  C4        23.6450   37.5490    8.7750 C.ar  604  KSM604      0.1307
     12  C5        23.7350   38.5590    9.7990 C.ar  604  KSM604      0.1221
     13  N1        25.0220   38.5500   10.2650 N.ar  604  KSM604     -0.2219
     14  N8        22.8650   35.9980    6.9820 N.2   604  KSM604     -0.3822
     15  C7        24.1150   35.4340    6.9380 C.2   604  KSM604      0.1486
     16  C27       24.4030   34.3810    6.0430 C.2   604  KSM604      0.0307
     17  C28       25.6940   33.8340    6.0120 C.2   604  KSM604     -0.0033
     18  C29       26.7340   34.3120    6.8560 C.3   604  KSM604      0.1042
     19  C26       26.4900   35.3720    7.7820 C.2   604  KSM604      0.0141
     20  C6        25.2090   35.9590    7.8510 C.2   604  KSM604      0.0925
     21  N3        24.8910   37.0130    8.7310 N.ar  604  KSM604     -0.2823
     22  C2        25.7320   37.5970    9.6080 C.ar  604  KSM604      0.1830
     23  N30       28.0310   33.7260    6.8160 N.3   604  KSM604     -0.2643
     24  C35       28.6100   33.2060    5.5630 C.3   604  KSM604      0.0916
     25  C34       29.2460   31.8760    5.9340 C.3   604  KSM604      0.1060
     26  N33       30.2600   32.0720    6.9510 N.3   604  KSM604     -0.2166
     27  C32       30.1070   33.0270    8.0660 C.3   604  KSM604      0.0888
     28  C43       31.1870   34.1270    8.1570 C.3   604  KSM604      0.0203
     29  C31       28.7170   33.6700    8.1180 C.3   604  KSM604      0.0901
@<TRIPOS>BOND
     1     5     4   ar
     2     5     6   ar
     3     7     6    1
     4     4     3   ar
     5    24    25    1
     6    24    23    1
     7     6     8   ar
     8    25    26    1
     9    17    16    2
    10    17    18    1
    11    16    15    1
    12     3     2   ar
    13    23    18    1
    14    23    29    1
    15    18    19    1
    16    15    14    2
    17    15    20    1
    18    26    27    1
    19    14    10    2
    20     8     2   ar
    21     8     9    1
    22     2     1    1
    23    19    20    2
    24    10     9    1
    25    10    11    1
    26    20    21    1
    27    27    29    1
    28    27    28    1
    29    21    11   ar
    30    21    22   ar
    31    11    12   ar
    32    22    13   ar
    33    12    13   ar
