@<TRIPOS>MOLECULE
2zmb_PXB_A_1.pdb
 26 28 0 0 0
SMALL
GASTEIGER

@<TRIPOS>ATOM
      1  C1        14.1740   13.3400   16.5530 C.3   692  PXB692      0.0102
      2  C2        12.6990   13.8180   16.5110 C.3   692  PXB692      0.0885
      3  C4        12.6480   15.2900   16.2670 C.2   692  PXB692      0.2626
      4  O6        13.7160   15.9120   16.1960 O.2   692  PXB692     -0.2716
      5  N8        11.3710   15.9240   16.0610 N.am  692  PXB692     -0.0591
      6  S12       11.2420   17.5780   15.6570 S.O2  692  PXB692      0.0954
      7  O14        9.9110   17.7290   14.9320 O.2   692  PXB692     -0.1482
      8  O16       12.3220   17.9460   14.6540 O.2   692  PXB692     -0.1482
      9  C18       11.2670   18.7510   17.0320 C.ar  692  PXB692      0.1271
     10  C20       12.4100   19.2690   17.5140 C.ar  692  PXB692      0.0203
     11  C21       12.3590   20.3090   18.5820 C.ar  692  PXB692      0.0015
     12  C22       11.1710   20.7660   19.1020 C.ar  692  PXB692      0.0043
     13  C23        9.9530   20.1200   18.5640 C.ar  692  PXB692      0.0015
     14  C24        9.9950   19.1910   17.6000 C.ar  692  PXB692      0.0203
     15  C31       11.0580   21.9330   20.2060 C.ar  692  PXB692      0.0537
     16  C33       12.0040   22.3570   21.0680 C.ar  692  PXB692      0.1547
     17  C35        9.8630   22.8950   20.5430 C.ar  692  PXB692      0.1225
     18  O37       11.4960   23.3700   21.8410 O.2   692  PXB692     -0.3578
     19  N39       10.2600   23.6540   21.5040 N.ar  692  PXB692     -0.0774
     20  C42        8.4260   23.1200   20.0040 C.ar  692  PXB692      0.0209
     21  C44        7.5820   24.1820   20.6600 C.ar  692  PXB692      0.0016
     22  C45        6.3140   24.4480   20.2410 C.ar  692  PXB692      0.0000
     23  C46        5.7410   23.7100   19.0940 C.ar  692  PXB692      0.0000
     24  C47        6.4790   22.7500   18.4970 C.ar  692  PXB692      0.0000
     25  C48        7.8640   22.4590   18.9690 C.ar  692  PXB692      0.0016
     26  C55       13.4290   21.8670   21.2710 C.3   692  PXB692      0.0754
@<TRIPOS>BOND
     1     8     6    2
     2     7     6    2
     3     6     5    1
     4     6     9    1
     5     5     3   am
     6     4     3    2
     7     3     2    1
     8     2     1    1
     9     9    10   ar
    10     9    14   ar
    11    10    11   ar
    12    14    13   ar
    13    24    25   ar
    14    24    23   ar
    15    13    12   ar
    16    11    12   ar
    17    25    20   ar
    18    23    22   ar
    19    12    15    1
    20    20    17    1
    21    20    21   ar
    22    15    17   ar
    23    15    16   ar
    24    22    21   ar
    25    17    19   ar
    26    16    26    1
    27    16    18   ar
    28    19    18   ar
