@<TRIPOS>MOLECULE
2zmd_537_A_1.pdb
 17 20 0 0 0
SMALL
GASTEIGER

@<TRIPOS>ATOM
      1  C1       -34.3530  -15.2190   -9.1230 C.ar  900  537900      0.0001
      2  C2       -34.6840  -16.5450   -9.3830 C.ar  900  537900      0.0017
      3  C3       -35.4830  -16.8540  -10.4760 C.ar  900  537900      0.0225
      4  C4       -35.9470  -15.8320  -11.3160 C.ar  900  537900      0.0405
      5  C5       -35.6110  -14.5060  -11.0540 C.ar  900  537900      0.0032
      6  C6       -34.8140  -14.2010   -9.9560 C.ar  900  537900      0.0001
      7  C11      -36.6090  -18.5350  -11.8240 C.2   900  537900      0.0381
      8  C12      -36.8250  -19.8820  -11.9150 C.2   900  537900      0.0864
      9  C13      -37.6070  -20.3640  -12.9600 C.3   900  537900      0.0736
     10  C14      -38.1510  -19.4600  -13.8830 C.2   900  537900     -0.0196
     11  C15      -37.9150  -18.0860  -13.7670 C.2   900  537900     -0.0009
     12  C16      -37.1300  -17.6200  -12.7180 C.2   900  537900      0.0413
     13  C20      -36.8080  -16.1830  -12.4900 C.2   900  537900      0.1957
     14  C21      -35.8310  -18.1730  -10.7630 C.2   900  537900      0.1042
     15  O22      -37.2430  -15.3030  -13.2600 O.2   900  537900     -0.2866
     16  N23      -35.5250  -19.3330  -10.1330 N.2   900  537900     -0.1483
     17  N24      -36.1470  -20.3950  -10.8550 N.2   900  537900     -0.1520
@<TRIPOS>BOND
     1    10    11    2
     2    10     9    1
     3    11    12    1
     4    15    13    2
     5     9     8    1
     6    12    13    1
     7    12     7    2
     8    13     4    1
     9     8     7    1
    10     8    17    2
    11     7    14    1
    12     4     5   ar
    13     4     3   ar
    14     5     6   ar
    15    17    16    1
    16    14     3    1
    17    14    16    2
    18     3     2   ar
    19     6     1   ar
    20     2     1   ar
