@<TRIPOS>MOLECULE
2zmf_CMP_A_1.pdb
 22 25 0 0 0
SMALL
GASTEIGER

@<TRIPOS>ATOM
      1  P          4.8420   21.6640   46.7130 P.3   2001  CMP2001     0.2141
      2  O1P        3.7910   21.8150   47.7880 O.3   2001  CMP2001    -0.4373
      3  O2P        4.8520   20.3390   45.9830 O.2   2001  CMP2001    -0.5172
      4  O5'        4.7540   22.8650   45.7420 O.3   2001  CMP2001    -0.3114
      5  C5'        5.0440   24.1780   46.2830 C.3   2001  CMP2001     0.1812
      6  C4'        6.4550   24.1090   46.9360 C.3   2001  CMP2001     0.1793
      7  O4'        6.8880   25.3220   47.5840 O.3   2001  CMP2001    -0.3136
      8  C3'        6.4460   23.1150   48.0980 C.3   2001  CMP2001     0.1884
      9  O3'        6.2960   21.8200   47.4980 O.3   2001  CMP2001    -0.3111
     10  C2'        7.8330   23.3930   48.6810 C.3   2001  CMP2001     0.2541
     11  O2'        8.8710   22.7260   47.8880 O.3   2001  CMP2001    -0.2131
     12  C1'        7.9670   24.9110   48.4630 C.3   2001  CMP2001     0.3185
     13  N9         7.9530   25.8390   49.6040 N.pl3 2001  CMP2001    -0.1439
     14  C8         6.9510   26.0580   50.4740 C.3   2001  CMP2001     0.3377
     15  N7         7.3310   26.9540   51.3590 N.2   2001  CMP2001    -0.2095
     16  C5         8.5880   27.3050   51.0820 C.2   2001  CMP2001     0.2526
     17  C6         9.5210   28.1580   51.6960 C.2   2001  CMP2001     0.4393
     18  N6         9.2050   28.9010   52.7550 N.pl3 2001  CMP2001     0.2180
     19  N1        10.7590   28.2540   51.1550 N.2   2001  CMP2001     0.0021
     20  C2        11.1050   27.5340   50.0800 C.3   2001  CMP2001     0.5254
     21  N3        10.2300   26.6830   49.5080 N.2   2001  CMP2001    -0.0055
     22  C4         8.9910   26.5500   49.9860 C.2   2001  CMP2001     0.3518
@<TRIPOS>BOND
     1     4     5    1
     2     4     1    1
     3     3     1    2
     4     5     6    1
     5     1     9    1
     6     1     2    1
     7     6     7    1
     8     6     8    1
     9     9     8    1
    10     7    12    1
    11    11    10    1
    12     8    10    1
    13    12    10    1
    14    12    13    1
    15    21    22    2
    16    21    20    1
    17    13    22    1
    18    13    14    1
    19    22    16    1
    20    20    19    1
    21    14    15    1
    22    16    15    2
    23    16    17    1
    24    19    17    2
    25    17    18    1
