@<TRIPOS>MOLECULE
2zmh_NYA_A_1.pdb
 37 42 0 0 0
SMALL
GASTEIGER

@<TRIPOS>ATOM
      1  C35        7.4980    6.1630   26.8490 C.3     1  NYA1        0.0001
      2  C36        7.1190    6.3990   28.3450 C.3     1  NYA1        0.0000
      3  C38        6.6950    4.9390   26.2900 C.3     1  NYA1        0.0000
      4  C31        7.4290    5.1130   29.1820 C.3     1  NYA1        0.0001
      5  C32        6.6340    3.9000   28.6050 C.3     1  NYA1        0.0000
      6  C33        7.0260    3.6610   27.1130 C.3     1  NYA1        0.0001
      7  C17       14.8060    7.5280   27.2660 C.3     1  NYA1        0.0043
      8  C21       14.7950    6.0870   29.3290 C.3     1  NYA1        0.0047
      9  C16       15.5430    6.7890   26.1190 C.3     1  NYA1        0.0007
     10  C13       14.1060    8.7110   26.5310 C.3     1  NYA1        0.0038
     11  C15       15.9060    7.8840   25.0870 C.3     1  NYA1        0.0040
     12  C14       15.3720    9.1590   25.7610 C.3     1  NYA1        0.0183
     13  C8        15.0440   10.3800   24.9020 C.2     1  NYA1       -0.0446
     14  C12       13.6350    9.8850   27.4540 C.3     1  NYA1        0.0006
     15  C18       12.9280    8.2690   25.6000 C.3     1  NYA1        0.0003
     16  C7        15.0260   10.3910   23.5470 C.2     1  NYA1       -0.0091
     17  C9        14.7150   11.5710   25.7670 C.3     1  NYA1        0.0220
     18  C6        14.7270   11.5960   22.7290 C.2     1  NYA1       -0.0090
     19  C23       11.8090    5.3590   28.0250 C.2     1  NYA1        0.0015
     20  C22       13.0760    5.5770   27.6320 C.2     1  NYA1       -0.0285
     21  C24       10.9100    4.2750   27.4800 C.3     1  NYA1        0.1735
     22  C20       13.9200    6.6830   28.2250 C.3     1  NYA1        0.0218
     23  C29        9.3960    4.5800   27.5950 C.3     1  NYA1        0.0321
     24  C28       14.3180   12.0260   17.2930 C.2     1  NYA1       -0.0041
     25  C30        8.9580    4.8090   29.0880 C.3     1  NYA1        0.0028
     26  C34        8.5650    3.3820   27.0080 C.3     1  NYA1        0.0028
     27  C37        9.0280    5.8620   26.7590 C.3     1  NYA1        0.0028
     28  C5        14.6400   11.5910   21.3720 C.2     1  NYA1       -0.0385
     29  C10       14.7920   10.2930   20.5310 C.3     1  NYA1        0.0593
     30  C4        14.3420   12.9110   20.6490 C.3     1  NYA1        0.0593
     31  C11       13.5170   11.2450   26.6890 C.3     1  NYA1        0.0044
     32  C1        15.2650   10.4850   19.0780 C.3     1  NYA1        0.1767
     33  C2        14.8950   11.8460   18.5020 C.2     1  NYA1        0.0160
     34  C3        15.1860   13.0290   19.3720 C.3     1  NYA1        0.1767
     35  O3        11.2150    3.0670   28.1720 O.3     1  NYA1       -0.2183
     36  O2        16.5580   13.0340   19.7260 O.3     1  NYA1       -0.2182
     37  O1        14.6800    9.4300   18.3270 O.3     1  NYA1       -0.2182
@<TRIPOS>BOND
     1    24    33    2
     2    37    32    1
     3    33    32    1
     4    33    34    1
     5    32    29    1
     6    34    36    1
     7    34    30    1
     8    29    28    1
     9    30    28    1
    10    28    18    2
    11    18    16    1
    12    16    13    2
    13    13    12    1
    14    13    17    1
    15    11    12    1
    16    11     9    1
    17    15    10    1
    18    12    10    1
    19    17    31    1
    20     9     7    1
    21     3     1    1
    22     3     6    1
    23    10     7    1
    24    10    14    1
    25    31    14    1
    26    27     1    1
    27    27    23    1
    28     1     2    1
    29    26     6    1
    30    26    23    1
    31     6     5    1
    32     7    22    1
    33    21    23    1
    34    21    19    1
    35    21    35    1
    36    23    25    1
    37    20    19    2
    38    20    22    1
    39    22     8    1
    40     2     4    1
    41     5     4    1
    42    25     4    1
