@<TRIPOS>MOLECULE
2zmi_TT2_A_1.pdb
 38 43 0 0 0
SMALL
GASTEIGER

@<TRIPOS>ATOM
      1  C17       15.8680    2.7500   26.5630 C.3     1  TT21        0.0043
      2  C1        16.2610    5.9630   18.8380 C.3     1  TT21        0.1767
      3  C4        15.4810    8.4780   20.3600 C.3     1  TT21        0.0593
      4  C20       15.1010    1.4200   26.8160 C.3     1  TT21        0.0217
      5  C12       14.3500    4.9310   26.7470 C.3     1  TT21        0.0006
      6  C18       14.2950    3.4810   24.6210 C.3     1  TT21        0.0003
      7  C2        15.7640    7.2570   18.2570 C.2     1  TT21        0.0160
      8  C3        16.1690    8.4970   18.9880 C.3     1  TT21        0.1767
      9  C16       17.1930    2.5070   25.7780 C.3     1  TT21        0.0007
     10  C11       14.2070    6.3840   26.1540 C.3     1  TT21        0.0044
     11  C28       14.9750    7.3380   17.1730 C.2     1  TT21       -0.0041
     12  C22       13.7610    1.5620   27.4890 C.2     1  TT21       -0.0310
     13  C23       12.6330    1.1970   26.8700 C.2     1  TT21       -0.0281
     14  C21       15.9260    0.4340   27.6630 C.3     1  TT21        0.0047
     15  C36        6.6000    1.0110   29.0510 C.3     1  TT21        0.0000
     16  C24       11.2630    1.2800   27.4660 C.3     1  TT21        0.0585
     17  C35        6.7200    1.1920   27.5040 C.3     1  TT21        0.0001
     18  C31        7.3130   -0.3010   29.5040 C.3     1  TT21        0.0001
     19  C8        16.0810    5.9460   24.6180 C.2     1  TT21       -0.0446
     20  C7        16.1850    6.0550   23.2760 C.2     1  TT21       -0.0091
     21  C14       16.4500    4.7070   25.3790 C.3     1  TT21        0.0183
     22  C9        15.5020    6.9760   25.5310 C.3     1  TT21        0.0220
     23  C6        15.8380    7.2460   22.4820 C.2     1  TT21       -0.0090
     24  C15       17.3940    3.6640   24.8130 C.3     1  TT21        0.0040
     25  C5        15.8130    7.2000   21.1350 C.2     1  TT21       -0.0385
     26  C13       15.1690    3.9440   25.8290 C.3     1  TT21        0.0038
     27  C10       16.0440    5.8570   20.3630 C.3     1  TT21        0.0593
     28  C30        8.8250   -0.1980   29.1280 C.3     1  TT21        0.0025
     29  C29        8.9910   -0.0140   27.5720 C.3     1  TT21        0.0285
     30  C32        6.6750   -1.5240   28.7690 C.3     1  TT21        0.0000
     31  C34        8.3280   -1.2460   26.8610 C.3     1  TT21        0.0025
     32  C33        6.8080   -1.3500   27.2230 C.3     1  TT21        0.0001
     33  C37        8.2340    1.2820   27.1200 C.3     1  TT21        0.0025
     34  C25       10.4660    0.0230   27.1370 C.3     1  TT21        0.1562
     35  C38        6.0800   -0.0380   26.7870 C.3     1  TT21        0.0000
     36  O2        17.5860    8.5260   19.1860 O.3     1  TT21       -0.2182
     37  O3        11.1670   -1.0880   27.6880 O.3     1  TT21       -0.2228
     38  O1        15.6120    4.8380   18.2500 O.3     1  TT21       -0.2182
@<TRIPOS>BOND
     1    11     7    2
     2    38     2    1
     3     7     2    1
     4     7     8    1
     5     2    27    1
     6     8    36    1
     7     8     3    1
     8     3    25    1
     9    27    25    1
    10    25    23    2
    11    23    20    1
    12    20    19    2
    13    19    21    1
    14    19    22    1
    15     6    26    1
    16    24    21    1
    17    24     9    1
    18    21    26    1
    19    22    10    1
    20     9     1    1
    21    26     1    1
    22    26     5    1
    23    10     5    1
    24     1     4    1
    25    35    32    1
    26    35    17    1
    27     4    12    1
    28     4    14    1
    29    31    32    1
    30    31    29    1
    31    13    16    1
    32    13    12    2
    33    33    17    1
    34    33    29    1
    35    34    16    1
    36    34    29    1
    37    34    37    1
    38    32    30    1
    39    17    15    1
    40    29    28    1
    41    30    18    1
    42    15    18    1
    43    28    18    1
