@<TRIPOS>MOLECULE
2zmj_MI4_A_1.pdb
 39 44 0 0 0
SMALL
GASTEIGER

@<TRIPOS>ATOM
      1  C16       15.9100    6.6840   25.7460 C.3     1  MI41        0.0007
      2  C21       14.5850    4.5710   27.3720 C.3     1  MI41        0.0047
      3  C34        8.1980    3.2080   28.9670 C.3     1  MI41        0.0001
      4  C15       16.2300    7.9030   24.8920 C.3     1  MI41        0.0040
      5  C13       14.1760    8.3690   26.1370 C.3     1  MI41        0.0038
      6  C28       14.0450   12.1420   17.3200 C.2     1  MI41       -0.0041
      7  C37        9.6320    4.0020   26.9970 C.3     1  MI41        0.0001
      8  C14       15.4780    9.0070   25.6000 C.3     1  MI41        0.0183
      9  C33        7.9110    1.8670   28.2090 C.3     1  MI41        0.0000
     10  C35        9.3430    2.6720   26.2420 C.3     1  MI41        0.0000
     11  C30        7.1530    4.5420   27.0680 C.3     1  MI41        0.0001
     12  C8        15.1170   10.2730   24.8220 C.2     1  MI41       -0.0446
     13  C12       13.5710    9.4080   27.1530 C.3     1  MI41        0.0006
     14  C18       13.1350    8.0280   25.0220 C.3     1  MI41        0.0003
     15  C31        6.8430    3.2120   26.3010 C.3     1  MI41        0.0000
     16  C11       13.4150   10.8460   26.5480 C.3     1  MI41        0.0044
     17  C7        15.1880   10.3900   23.4590 C.2     1  MI41       -0.0091
     18  C32        6.6320    2.0500   27.3380 C.3     1  MI41        0.0000
     19  C23       11.7390    6.4760   28.2690 C.2     1  MI41       -0.0281
     20  C22       13.0450    6.1830   28.3430 C.2     1  MI41       -0.0310
     21  C24       10.8720    6.7730   29.4530 C.3     1  MI41        0.0585
     22  C25        9.8780    5.6510   29.6910 C.3     1  MI41        0.1563
     23  C20       13.8490    5.8930   27.1080 C.3     1  MI41        0.0217
     24  C26        8.7540    5.7180   28.6480 C.3     1  MI41        0.0332
     25  C17       14.8080    7.0790   26.7590 C.3     1  MI41        0.0043
     26  C29        8.4360    4.3830   27.9440 C.3     1  MI41        0.0025
     27  C3        15.1310   13.1380   19.2870 C.3     1  MI41        0.1767
     28  C9        14.6340   11.3530   25.7580 C.3     1  MI41        0.0220
     29  C6        14.8460   11.6080   22.6940 C.2     1  MI41       -0.0090
     30  C36        8.0540    2.8600   25.3780 C.3     1  MI41        0.0000
     31  C38        9.1170    1.5270   27.2810 C.3     1  MI41        0.0000
     32  C5        14.8630   11.6660   21.3420 C.2     1  MI41       -0.0385
     33  C10       15.2060   10.4210   20.4710 C.3     1  MI41        0.0593
     34  C1        15.1970   10.5980   18.9360 C.3     1  MI41        0.1767
     35  C4        14.5010   12.9990   20.6700 C.3     1  MI41        0.0593
     36  C2        14.7500   11.9620   18.4500 C.2     1  MI41        0.0160
     37  O3         9.3200    5.7990   30.9800 O.3     1  MI41       -0.2228
     38  O1        14.3680    9.5790   18.4080 O.3     1  MI41       -0.2182
     39  O2        16.5400   13.2010   19.4280 O.3     1  MI41       -0.2182
@<TRIPOS>BOND
     1     6    36    2
     2    38    34    1
     3    36    34    1
     4    36    27    1
     5    34    33    1
     6    27    39    1
     7    27    35    1
     8    33    32    1
     9    35    32    1
    10    32    29    2
    11    29    17    1
    12    17    12    2
    13    12     8    1
    14    12    28    1
    15     4     8    1
    16     4     1    1
    17    14     5    1
    18    30    10    1
    19    30    15    1
    20     8     5    1
    21     1    25    1
    22    28    16    1
    23     5    25    1
    24     5    13    1
    25    10     7    1
    26    10    31    1
    27    15    11    1
    28    15    18    1
    29    16    13    1
    30    25    23    1
    31     7    26    1
    32    11    26    1
    33    23     2    1
    34    23    20    1
    35    31     9    1
    36    18     9    1
    37    26    24    1
    38    26     3    1
    39     9     3    1
    40    19    20    2
    41    19    21    1
    42    24    22    1
    43    21    22    1
    44    22    37    1
