@<TRIPOS>MOLECULE
2zmk_GAL_A_1.pdb
 12 12 0 0 0
SMALL
GASTEIGER

@<TRIPOS>ATOM
      1  C1       128.0920   11.9710   -3.9730 C.3   401  GAL401      0.3024
      2  C2       128.7610   11.2560   -2.7930 C.3   401  GAL401      0.2434
      3  C3       129.3750    9.9330   -3.2840 C.3   401  GAL401      0.2199
      4  C4       128.2900    9.0870   -3.9470 C.3   401  GAL401      0.2144
      5  C5       127.6780    9.8860   -5.0970 C.3   401  GAL401      0.1836
      6  C6       126.5940    9.1090   -5.8460 C.3   401  GAL401      0.2142
      7  O1       127.4770   13.1390   -3.5350 O.3   401  GAL401     -0.1869
      8  O2       129.7630   12.0880   -2.2310 O.3   401  GAL401     -0.2148
      9  O3       129.9500    9.2130   -2.2040 O.3   401  GAL401     -0.2174
     10  O4       127.2650    8.7840   -2.9790 O.3   401  GAL401     -0.2176
     11  O5       127.0990   11.1130   -4.5760 O.3   401  GAL401     -0.3236
     12  O6       125.4330    9.8950   -6.0810 O.3   401  GAL401     -0.2176
@<TRIPOS>BOND
     1    12     6    1
     2     6     5    1
     3     5    11    1
     4     5     4    1
     5    11     1    1
     6     1     7    1
     7     1     2    1
     8     4     3    1
     9     4    10    1
    10     3     2    1
    11     3     9    1
    12     2     8    1
