@<TRIPOS>MOLECULE
2zmk_GLA_A_1.pdb
 11 11 0 0 0
SMALL
GASTEIGER

@<TRIPOS>ATOM
      1  C1       126.8720    7.4460   -2.9180 C.3   400  GLA400      0.1777
      2  C2       125.5530    7.3340   -2.1300 C.3   400  GLA400      0.2141
      3  C3       125.7980    7.6790   -0.6530 C.3   400  GLA400      0.2173
      4  C4       126.9050    6.7810   -0.0950 C.3   400  GLA400      0.2142
      5  C5       128.1670    6.9550   -0.9400 C.3   400  GLA400      0.1810
      6  C6       129.3100    6.0660   -0.4890 C.3   400  GLA400      0.2141
      7  O2       124.5740    8.2090   -2.6830 O.3   400  GLA400     -0.2176
      8  O3       124.6050    7.4980    0.0950 O.3   400  GLA400     -0.2175
      9  O4       126.4860    5.4250   -0.1520 O.3   400  GLA400     -0.2176
     10  O5       127.8780    6.6260   -2.3200 O.3   400  GLA400     -0.3481
     11  O6       130.4940    6.3410   -1.2280 O.3   400  GLA400     -0.2176
@<TRIPOS>BOND
     1     1    10    1
     2     1     2    1
     3     7     2    1
     4    10     5    1
     5     2     3    1
     6    11     6    1
     7     5     6    1
     8     5     4    1
     9     3     4    1
    10     3     8    1
    11     9     4    1
