@<TRIPOS>MOLECULE
2zml_GLA_A_1.pdb
 11 11 0 0 0
SMALL
GASTEIGER

@<TRIPOS>ATOM
      1  C1       127.4830    7.8310   -2.5890 C.3   400  GLA400      0.1777
      2  C2       126.1300    7.5800   -1.8890 C.3   400  GLA400      0.2141
      3  C3       126.2770    7.8870   -0.3830 C.3   400  GLA400      0.2173
      4  C4       127.3870    6.9820    0.1890 C.3   400  GLA400      0.2142
      5  C5       128.6930    7.2990   -0.5800 C.3   400  GLA400      0.1810
      6  C6       129.8260    6.4210   -0.0500 C.3   400  GLA400      0.2141
      7  O2       125.1180    8.4030   -2.4890 O.3   400  GLA400     -0.2176
      8  O3       125.0450    7.6310    0.2950 O.3   400  GLA400     -0.2175
      9  O4       127.0530    5.6070   -0.0120 O.3   400  GLA400     -0.2176
     10  O5       128.5390    7.0340   -2.0000 O.3   400  GLA400     -0.3481
     11  O6       131.0320    6.7090   -0.7680 O.3   400  GLA400     -0.2176
@<TRIPOS>BOND
     1     1    10    1
     2     1     2    1
     3     7     2    1
     4    10     5    1
     5     2     3    1
     6    11     6    1
     7     5     6    1
     8     5     4    1
     9     3     4    1
    10     3     8    1
    11     9     4    1
