@<TRIPOS>MOLECULE
2zmm_35B_A_1.pdb
 31 33 0 0 0
SMALL
GASTEIGER

@<TRIPOS>ATOM
      1  C1        50.0570   10.7540   -2.5090 C.3   307  35B307      0.1402
      2  C2        49.6410    9.2770   -0.5530 C.2   307  35B307      0.3270
      3  C3        47.3210    9.4030    0.3500 C.ar  307  35B307      0.0553
      4  C4        46.2340    8.6670   -0.1410 C.ar  307  35B307      0.0149
      5  C5        44.9570    9.2310   -0.1530 C.ar  307  35B307      0.0013
      6  C6        44.7460   10.5240    0.3240 C.ar  307  35B307      0.0006
      7  N1        49.1950   10.2140   -1.4830 N.am  307  35B307     -0.1863
      8  C7        45.8180   11.2740    0.8150 C.ar  307  35B307      0.0078
      9  O1        50.8010    8.8580   -0.5660 O.2   307  35B307     -0.2504
     10  C8        47.0970   10.7070    0.8260 C.ar  307  35B307      0.0155
     11  C9        45.6110   12.6340    1.3100 C.ar  307  35B307      0.0389
     12  C10       46.1750   13.3160    2.3680 C.ar  307  35B307      0.0752
     13  C11       45.6830   14.6450    2.5200 C.ar  307  35B307      0.1583
     14  C12       44.7930   14.9560    1.5080 C.ar  307  35B307      0.1437
     15  C13       44.0370   16.3110    1.2730 C.2   307  35B307      0.3966
     16  C14       47.3220   16.1890    3.2570 C.3   307  35B307      0.3186
     17  C15       47.6360   17.0070    4.5180 C.2   307  35B307      0.4084
     18  C16       48.9960    7.8730    1.4450 C.3   307  35B307      0.0813
     19  C17       48.8670    6.4000    1.0090 C.3   307  35B307      0.0202
     20  C18       48.0750    5.5730    2.0210 C.3   307  35B307      0.0017
     21  C19       48.6020    5.7170    3.4480 C.3   307  35B307      0.0001
     22  C20       48.7840    7.1760    3.8620 C.3   307  35B307      0.0017
     23  C21       48.2940    8.1430    2.7840 C.3   307  35B307      0.0202
     24  N2        48.6560    8.8640    0.3800 N.am  307  35B307     -0.2436
     25  S1        44.5220   13.6420    0.4520 S.2   307  35B307     -0.0768
     26  O2        43.8980   17.1050    2.2490 O.co2 307  35B307     -0.2399
     27  O3        43.6330   16.4930    0.0830 O.co2 307  35B307     -0.2399
     28  O4        46.0740   15.5200    3.4910 O.3   307  35B307     -0.4625
     29  O5        46.7510   17.0080    5.4220 O.co2 307  35B307     -0.2415
     30  O6        48.7580   17.5880    4.5160 O.co2 307  35B307     -0.2415
     31 BR1        47.4230   12.5860    3.5860 Br    307  35B307     -0.0453
@<TRIPOS>BOND
     1     1     7    1
     2     7     2   am
     3     9     2    2
     4     2    24   am
     5     5     4   ar
     6     5     6   ar
     7     4     3   ar
     8    27    15   ar
     9     6     8   ar
    10     3    24    1
    11     3    10   ar
    12    24    18    1
    13    25    11   ar
    14    25    14   ar
    15     8    10   ar
    16     8    11    1
    17    19    18    1
    18    19    20    1
    19    15    14    1
    20    15    26   ar
    21    11    12   ar
    22    18    23    1
    23    14    13   ar
    24    20    21    1
    25    12    13   ar
    26    12    31    1
    27    13    28    1
    28    23    22    1
    29    16    28    1
    30    16    17    1
    31    21    22    1
    32    30    17   ar
    33    17    29   ar
