@<TRIPOS>MOLECULE
2zmn_BGC_C_1.pdb
 12 12 0 0 0
SMALL
GASTEIGER

@<TRIPOS>ATOM
      1  C2        70.1240   46.7380   40.3140 C.3   401  BGC401      0.2434
      2  C3        71.3930   45.9800   40.5900 C.3   401  BGC401      0.2199
      3  C4        71.2810   45.1310   41.8800 C.3   401  BGC401      0.2144
      4  C5        70.0260   44.2210   41.7510 C.3   401  BGC401      0.1836
      5  C6        69.7210   43.2600   42.8930 C.3   401  BGC401      0.2142
      6  C1        68.9550   45.7350   40.2430 C.3   401  BGC401      0.3024
      7  O1        67.7480   46.3760   39.9830 O.3   401  BGC401     -0.1869
      8  O2        70.2790   47.4200   39.0860 O.3   401  BGC401     -0.2148
      9  O3        72.4380   46.9130   40.6990 O.3   401  BGC401     -0.2174
     10  O4        72.4620   44.3320   42.0320 O.3   401  BGC401     -0.2176
     11  O5        68.8410   45.0130   41.4910 O.3   401  BGC401     -0.3236
     12  O6        70.4280   42.0240   42.6230 O.3   401  BGC401     -0.2176
@<TRIPOS>BOND
     1     8     1    1
     2     7     6    1
     3     6     1    1
     4     6    11    1
     5     1     2    1
     6     2     9    1
     7     2     3    1
     8    11     4    1
     9     4     3    1
    10     4     5    1
    11     3    10    1
    12    12     5    1
