@<TRIPOS>MOLECULE
2zmn_GLA_A_1.pdb
 11 11 0 0 0
SMALL
GASTEIGER

@<TRIPOS>ATOM
      1  C1       127.6990    8.0850   -2.6650 C.3   400  GLA400      0.1777
      2  C2       126.3810    7.8110   -1.9250 C.3   400  GLA400      0.2141
      3  C3       126.5920    8.0300   -0.4340 C.3   400  GLA400      0.2173
      4  C4       127.7350    7.1430    0.0670 C.3   400  GLA400      0.2142
      5  C5       128.9890    7.4260   -0.7440 C.3   400  GLA400      0.1810
      6  C6       130.1410    6.5170   -0.3870 C.3   400  GLA400      0.2141
      7  O2       125.3580    8.6790   -2.3860 O.3   400  GLA400     -0.2176
      8  O3       125.3940    7.7390    0.2620 O.3   400  GLA400     -0.2175
      9  O4       127.3890    5.7830   -0.0760 O.3   400  GLA400     -0.2176
     10  O5       128.7160    7.2410   -2.1480 O.3   400  GLA400     -0.3481
     11  O6       131.3770    7.0510   -0.8470 O.3   400  GLA400     -0.2176
@<TRIPOS>BOND
     1     1    10    1
     2     1     2    1
     3     7     2    1
     4    10     5    1
     5     2     3    1
     6    11     6    1
     7     5     6    1
     8     5     4    1
     9     3     4    1
    10     3     8    1
    11     9     4    1
