@<TRIPOS>MOLECULE
2zn7_410_A_1.pdb
 35 38 0 0 0
SMALL
GASTEIGER

@<TRIPOS>ATOM
      1  C1        48.5590   12.4160   -3.3400 C.ar  300  410300      0.0000
      2  C2        47.9770   11.1460   -3.3450 C.ar  300  410300      0.0001
      3  C3        48.3050   10.2140   -2.3520 C.ar  300  410300      0.0045
      4  C4        49.2250   10.5420   -1.3410 C.ar  300  410300      0.0539
      5  C5        49.8070   11.8160   -1.3410 C.ar  300  410300      0.0045
      6  C6        49.4750   12.7430   -2.3360 C.ar  300  410300      0.0001
      7  C7        49.5540    9.5190   -0.2990 C.2   300  410300      0.2527
      8  O1        50.6980    9.0630   -0.2960 O.2   300  410300     -0.2696
      9  N1        48.5540    9.1150    0.6020 N.am  300  410300     -0.2568
     10  C8        47.2420    9.6990    0.5700 C.ar  300  410300      0.0541
     11  C9        46.1240    9.0360    0.0560 C.ar  300  410300      0.0149
     12  C10       44.8780    9.6670    0.0570 C.ar  300  410300      0.0013
     13  C11       44.7280   10.9630    0.5670 C.ar  300  410300      0.0006
     14  C12       45.8380   11.6510    1.0870 C.ar  300  410300      0.0078
     15  C13       47.0870   11.0050    1.0800 C.ar  300  410300      0.0154
     16  C14       45.7120   13.0190    1.6060 C.ar  300  410300      0.0389
     17  C15       46.2970   13.6400    2.6970 C.ar  300  410300      0.0752
     18  C16       45.9190   15.0020    2.8620 C.ar  300  410300      0.1583
     19  C17       45.0220   15.3700    1.8740 C.ar  300  410300      0.1437
     20  S1        44.6830   14.1060    0.7680 S.2   300  410300     -0.0768
     21  C18       44.3410   16.7580    1.6490 C.2   300  410300      0.3966
     22  O2        43.8310   16.8970    0.4990 O.co2 300  410300     -0.2399
     23  O3        44.3330   17.5910    2.5970 O.co2 300  410300     -0.2399
     24  O4        46.3510   15.8080    3.8840 O.3   300  410300     -0.4625
     25  C19       47.5490   16.5590    3.6400 C.3   300  410300      0.3186
     26  C20       47.8720   17.2790    4.9650 C.2   300  410300      0.4084
     27  O5        48.9770   17.8700    5.0200 O.co2 300  410300     -0.2415
     28  O6        47.0020   17.1990    5.8780 O.co2 300  410300     -0.2415
     29 BR1        47.5090   12.8180    3.9060 Br    300  410300     -0.0453
     30  C21       48.8730    8.0870    1.6430 C.3   300  410300      0.0801
     31  C22       48.1310    6.7610    1.4280 C.3   300  410300      0.0202
     32  C23       48.6100    5.7150    2.4250 C.3   300  410300      0.0017
     33  C24       48.3070    6.1910    3.8420 C.3   300  410300      0.0001
     34  C25       49.0250    7.5090    4.1340 C.3   300  410300      0.0017
     35  C26       48.7350    8.5940    3.0870 C.3   300  410300      0.0202
@<TRIPOS>BOND
     1     2     1   ar
     2     2     3   ar
     3     1     6   ar
     4     3     4   ar
     5     6     5   ar
     6     4     5   ar
     7     4     7    1
     8     7     8    2
     9     7     9   am
    10    11    12   ar
    11    11    10   ar
    12    12    13   ar
    13    22    21   ar
    14    13    14   ar
    15    10     9    1
    16    10    15   ar
    17     9    30    1
    18    20    16   ar
    19    20    19   ar
    20    15    14   ar
    21    14    16    1
    22    31    30    1
    23    31    32    1
    24    16    17   ar
    25    30    35    1
    26    21    19    1
    27    21    23   ar
    28    19    18   ar
    29    32    33    1
    30    17    18   ar
    31    17    29    1
    32    18    24    1
    33    35    34    1
    34    25    24    1
    35    25    26    1
    36    33    34    1
    37    26    27   ar
    38    26    28   ar
