@<TRIPOS>MOLECULE
2znk_31U_H_1.pdb
 26 27 0 0 0
SMALL
GASTEIGER

@<TRIPOS>ATOM
      1  N5        17.1670  -15.5630   23.5770 N.3   3001  31U3001    -0.1231
      2  C4        18.4100  -14.7700   23.3660 C.3   3001  31U3001     0.1678
      3  C33       19.0080  -14.3400   24.7470 C.3   3001  31U3001     0.0284
      4  C17       20.3150  -13.4790   24.7640 C.3   3001  31U3001     0.0019
      5  C12       21.6110  -14.2630   24.3960 C.3   3001  31U3001     0.0001
      6  C49       20.5960  -12.7320   26.1040 C.3   3001  31U3001     0.0001
      7  C14       18.0040  -13.5240   22.5540 C.2   3001  31U3001     0.2434
      8  O32       16.9610  -12.9860   22.9290 O.2   3001  31U3001    -0.2733
      9  N1        18.7000  -13.1080   21.5600 N.am  3001  31U3001    -0.2718
     10  C1        18.3480  -11.8840   20.9040 C.3   3001  31U3001     0.1535
     11  C7        16.9190  -11.8930   20.3550 C.2   3001  31U3001     0.2598
     12  O22       16.5590  -12.9630   19.8760 O.2   3001  31U3001    -0.2715
     13  C2        19.3470  -11.9400   19.7220 C.3   3001  31U3001     0.0310
     14  C3        20.3340  -13.0780   20.0070 C.3   3001  31U3001     0.0237
     15  C32       19.7940  -13.9670   21.1270 C.3   3001  31U3001     0.0939
     16  N23       16.2680  -10.7970   20.4240 N.am  3001  31U3001    -0.1992
     17  C24       14.9230  -10.8510   19.8150 C.3   3001  31U3001     0.1415
     18  C25       13.8510  -10.8140   20.9260 C.ar  3001  31U3001    -0.0006
     19  C30       13.3980  -11.9780   21.5430 C.ar  3001  31U3001    -0.0023
     20  C29       12.4270  -11.9640   22.5530 C.ar  3001  31U3001     0.0077
     21  C28       11.8850  -10.7370   22.9580 C.ar  3001  31U3001     0.0975
     22  C21       10.8290  -10.6870   24.0520 C.2   3001  31U3001     0.4766
     23  N46       10.2140  -11.7730   24.3460 N.pl3 3001  31U3001     0.2047
     24  N47       10.5950   -9.5710   24.6370 N.pl3 3001  31U3001     0.2047
     25  C27       12.3420   -9.5760   22.3380 C.ar  3001  31U3001     0.0077
     26  C26       13.3090   -9.5940   21.3340 C.ar  3001  31U3001    -0.0023
@<TRIPOS>BOND
     1    13    14    1
     2    13    10    1
     3    17    16    1
     4    17    18    1
     5    12    11    2
     6    14    15    1
     7    11    16   am
     8    11    10    1
     9    10     9    1
    10    18    26   ar
    11    18    19   ar
    12    15     9    1
    13    26    25   ar
    14    19    20   ar
    15     9     7   am
    16    25    21   ar
    17    20    21   ar
    18     7     8    2
    19     7     2    1
    20    21    22    1
    21     2     1    1
    22     2     3    1
    23    22    23    2
    24    22    24    1
    25     5     4    1
    26     3     4    1
    27     4     6    1
