@<TRIPOS>MOLECULE
2znn_S44_A_1.pdb
 37 41 0 0 0
SMALL
GASTEIGER

@<TRIPOS>ATOM
      1  O33       14.4920    3.1990   -0.7210 O.co2 901  S44901     -0.2457
      2  O34       15.2880    1.1210   -0.9400 O.co2 901  S44901     -0.2457
      3  C1        14.6200    2.0500   -1.3840 C.2   901  S44901      0.3646
      4  C2        13.9170    2.0790   -2.5780 C.3   901  S44901      0.1077
      5  C3        14.7770    1.5120   -3.7240 C.3   901  S44901      0.0116
      6  C4        16.0350    2.3260   -3.9330 C.3   901  S44901      0.0006
      7  C5        12.6280    1.2700   -2.3900 C.3   901  S44901      0.0376
      8  C6        11.7380    1.2930   -3.6090 C.ar  901  S44901     -0.0217
      9  C7        10.9370    2.4520   -3.9210 C.ar  901  S44901     -0.0038
     10  C8        10.0830    2.4680   -5.0880 C.ar  901  S44901      0.0331
     11  C9        10.0310    1.3030   -5.9620 C.ar  901  S44901      0.1362
     12  C10       10.8470    0.1360   -5.6360 C.ar  901  S44901      0.0363
     13  C11       11.6860    0.1350   -4.4720 C.ar  901  S44901     -0.0012
     14  O37        9.2060    1.3080   -7.0960 O.3   901  S44901     -0.4757
     15  C30        8.3930    0.1290   -7.1720 C.3   901  S44901      0.2054
     16  C31        8.7440   -0.6460   -8.4140 C.3   901  S44901      0.0473
     17  C32        7.9250   -1.9090   -8.4430 C.3   901  S44901      0.0040
     18  C12        9.2800    3.6520   -5.3640 C.3   901  S44901      0.1448
     19  N35        9.6870    4.3510   -6.5650 N.am  901  S44901     -0.1967
     20  C13        9.0420    5.5400   -6.8320 C.2   901  S44901      0.2651
     21  O36        8.1550    6.0060   -6.0980 O.2   901  S44901     -0.2684
     22  C14        9.4310    6.1920   -7.9920 C.ar  901  S44901      0.0550
     23  C15        9.5500    7.6280   -7.9710 C.ar  901  S44901      0.0042
     24  C16        9.9170    8.3600   -9.1490 C.ar  901  S44901     -0.0041
     25  C17       10.1760    7.6690  -10.3980 C.ar  901  S44901     -0.0228
     26  C18       10.0640    6.2070  -10.4230 C.ar  901  S44901     -0.0041
     27  C19        9.6930    5.4750   -9.2250 C.ar  901  S44901      0.0042
     28  C20       10.5400    8.4590  -11.6600 C.3   901  S44901      0.0189
     29  C21        9.4270    8.2430  -12.7210 C.3   901  S44901      0.0040
     30  C22        9.7520    9.0340  -14.0130 C.3   901  S44901      0.0003
     31  C23       11.1050    8.5530  -14.5840 C.3   901  S44901      0.0000
     32  C24       12.2220    8.7800  -13.5380 C.3   901  S44901      0.0003
     33  C25       11.8910    7.9790  -12.2510 C.3   901  S44901      0.0040
     34  C26       10.6070    9.9910  -11.3620 C.3   901  S44901      0.0040
     35  C27       10.9490   10.7790  -12.6440 C.3   901  S44901      0.0003
     36  C28       12.3070   10.2930  -13.2090 C.3   901  S44901      0.0000
     37  C29        9.8310   10.5410  -13.6800 C.3   901  S44901      0.0000
@<TRIPOS>BOND
     1    31    30    1
     2    31    32    1
     3    30    37    1
     4    30    29    1
     5    37    35    1
     6    32    36    1
     7    32    33    1
     8    36    35    1
     9    29    28    1
    10    35    34    1
    11    33    28    1
    12    28    34    1
    13    28    25    1
    14    26    25   ar
    15    26    27   ar
    16    25    24   ar
    17    27    22   ar
    18    24    23   ar
    19    17    16    1
    20    16    15    1
    21    22    23   ar
    22    22    20    1
    23    15    14    1
    24    14    11    1
    25    20    19   am
    26    20    21    2
    27    19    18    1
    28    11    12   ar
    29    11    10   ar
    30    12    13   ar
    31    18    10    1
    32    10     9   ar
    33    13     8   ar
    34     6     5    1
    35     9     8   ar
    36     5     4    1
    37     8     7    1
    38     4     7    1
    39     4     3    1
    40     3     2   ar
    41     3     1   ar
