@<TRIPOS>MOLECULE
2zno_S44_A_1.pdb
 33 37 0 0 0
SMALL
GASTEIGER

@<TRIPOS>ATOM
      1  O33       17.2430   65.8220   18.1190 O.co2 901  S44901     -0.2457
      2  O34       18.2290   64.1480   19.2700 O.co2 901  S44901     -0.2457
      3  C1        18.0520   64.7490   18.2020 C.2   901  S44901      0.3646
      4  C2        18.6040   64.4830   16.9580 C.3   901  S44901      0.1077
      5  C3        20.1250   64.3400   17.0330 C.3   901  S44901      0.0116
      6  C4        20.7640   65.6000   17.5860 C.3   901  S44901      0.0006
      7  C5        17.9590   63.2230   16.3690 C.3   901  S44901      0.0376
      8  C6        17.9100   63.2930   14.8550 C.ar  901  S44901     -0.0219
      9  C7        16.7510   63.8600   14.1530 C.ar  901  S44901     -0.0068
     10  C8        16.7400   63.9060   12.6840 C.ar  901  S44901     -0.0009
     11  C9        17.8630   63.3930   11.9430 C.ar  901  S44901     -0.0026
     12  C10       18.9890   62.8410   12.6480 C.ar  901  S44901     -0.0006
     13  C11       19.0210   62.7870   14.0880 C.ar  901  S44901     -0.0043
     14  C12       15.5980   64.4600   11.9520 C.3   901  S44901      0.1418
     15  N35       15.9770   65.6280   11.1490 N.am  901  S44901     -0.1968
     16  C13       15.0570   66.1410   10.2240 C.2   901  S44901      0.2651
     17  O36       13.9250   65.6630   10.0310 O.2   901  S44901     -0.2684
     18  C14       15.5150   67.2340    9.5280 C.ar  901  S44901      0.0550
     19  C15       14.6360   68.3430    9.2590 C.ar  901  S44901      0.0042
     20  C16       15.1140   69.4940    8.5170 C.ar  901  S44901     -0.0041
     21  C17       16.4810   69.5390    8.0400 C.ar  901  S44901     -0.0228
     22  C18       17.3520   68.4140    8.3250 C.ar  901  S44901     -0.0041
     23  C19       16.8690   67.2760    9.0600 C.ar  901  S44901      0.0042
     24  C20       17.0230   70.7260    7.2520 C.3   901  S44901      0.0189
     25  C21       17.5100   70.2590    5.8500 C.3   901  S44901      0.0040
     26  C22       18.0800   71.4570    5.0430 C.3   901  S44901      0.0003
     27  C23       19.2670   72.0690    5.8210 C.3   901  S44901      0.0000
     28  C24       18.7910   72.5670    7.2150 C.3   901  S44901      0.0003
     29  C25       18.2230   71.3650    8.0160 C.3   901  S44901      0.0040
     30  C26       15.9220   71.8190    7.0520 C.3   901  S44901      0.0040
     31  C27       16.4980   73.0200    6.2500 C.3   901  S44901      0.0003
     32  C28       17.6820   73.6350    7.0340 C.3   901  S44901      0.0000
     33  C29       16.9860   72.5250    4.8580 C.3   901  S44901      0.0000
@<TRIPOS>BOND
     1    33    26    1
     2    33    31    1
     3    26    27    1
     4    26    25    1
     5    27    28    1
     6    25    24    1
     7    31    32    1
     8    31    30    1
     9    32    28    1
    10    30    24    1
    11    28    29    1
    12    24    29    1
    13    24    21    1
    14    21    22   ar
    15    21    20   ar
    16    22    23   ar
    17    20    19   ar
    18    23    18   ar
    19    19    18   ar
    20    18    16    1
    21    17    16    2
    22    16    15   am
    23    15    14    1
    24    11    12   ar
    25    11    10   ar
    26    14    10    1
    27    12    13   ar
    28    10     9   ar
    29    13     8   ar
    30     9     8   ar
    31     8     7    1
    32     7     4    1
    33     4     5    1
    34     4     3    1
    35     5     6    1
    36     1     3   ar
    37     3     2   ar
