@<TRIPOS>MOLECULE
2znp_K55_A_1.pdb
 33 34 0 0 0
SMALL
GASTEIGER

@<TRIPOS>ATOM
      1  O25       20.2310   -1.9230   34.1690 O.co2 922  K55922     -0.2457
      2  O26       18.2640   -2.9750   34.1070 O.co2 922  K55922     -0.2457
      3  C1        18.9770   -2.1190   34.6030 C.2   922  K55922      0.3646
      4  C2        18.6370   -1.1950   35.7360 C.3   922  K55922      0.1077
      5  C3        19.2800   -1.7720   37.0420 C.3   922  K55922      0.0116
      6  C4        20.3250   -0.8950   37.7380 C.3   922  K55922      0.0006
      7  C5        19.1680    0.1870   35.3730 C.3   922  K55922      0.0376
      8  C6        18.2430    1.3550   35.5420 C.ar  922  K55922     -0.0214
      9  C7        16.8990    1.2210   35.9960 C.ar  922  K55922      0.0001
     10  C8        16.0660    2.3660   36.1560 C.ar  922  K55922      0.0503
     11  C9        16.5940    3.6090   35.8700 C.ar  922  K55922      0.1397
     12  C10       17.9120    3.7550   35.4190 C.ar  922  K55922      0.0366
     13  C11       18.7280    2.6390   35.2530 C.ar  922  K55922     -0.0011
     14  O33       15.7480    4.6100   36.0550 O.3   922  K55922     -0.4754
     15  C21       16.1950    5.9290   35.7840 C.3   922  K55922      0.2054
     16  C22       15.0090    6.8010   36.0730 C.3   922  K55922      0.0473
     17  C23       14.6310    7.5910   34.8770 C.3   922  K55922      0.0038
     18  C24       13.2460    7.1740   34.4700 C.3   922  K55922      0.0001
     19  C12       14.6480    2.1740   36.6250 C.2   922  K55922      0.0919
     20  N27       14.3330    2.5410   37.9810 N.am  922  K55922     -0.1740
     21  C13       13.0480    2.3600   38.5080 C.2   922  K55922      0.2712
     22  O28       12.1010    1.8910   37.9170 O.2   922  K55922     -0.2679
     23  C14       12.8770    2.7570   39.8660 C.ar  922  K55922      0.0828
     24  C15       13.5360    3.8640   40.3490 C.ar  922  K55922      0.1445
     25  C16       13.3560    4.2450   41.6990 C.ar  922  K55922      0.0336
     26  C17       12.4930    3.4850   42.5550 C.ar  922  K55922      0.0737
     27  C18       11.8360    2.3610   42.0280 C.ar  922  K55922      0.0041
     28  C19       12.0310    2.0040   40.6950 C.ar  922  K55922      0.0068
     29  C20       12.2700    3.8740   43.9920 C.3   922  K55922      0.4186
     30  F29       14.3520    4.5930   39.5570 F     922  K55922     -0.2040
     31  F30       10.9880    4.1220   44.2530 F     922  K55922     -0.1659
     32  F31       12.9490    5.0080   44.3630 F     922  K55922     -0.1659
     33  F32       12.5930    2.9270   44.8590 F     922  K55922     -0.1659
@<TRIPOS>BOND
     1     2     3   ar
     2     1     3   ar
     3    18    17    1
     4     3     4    1
     5    17    16    1
     6    13    12   ar
     7    13     8   ar
     8     7     8    1
     9     7     4    1
    10    12    11   ar
    11     8     9   ar
    12     4     5    1
    13    15    14    1
    14    15    16    1
    15    11    14    1
    16    11    10   ar
    17     9    10   ar
    18    10    19    1
    19    19    20    2
    20     5     6    1
    21    22    21    2
    22    20    21    1
    23    21    23    1
    24    30    24    1
    25    23    24   ar
    26    23    28   ar
    27    24    25   ar
    28    28    27   ar
    29    25    26   ar
    30    27    26   ar
    31    26    29    1
    32    29    31    1
    33    29    32    1
    34    29    33    1
