@<TRIPOS>MOLECULE
2znp_B7G_A_1.pdb
 19 19 0 0 0
SMALL
GASTEIGER

@<TRIPOS>ATOM
      1  C5        23.1720  -17.9710   26.6830 C.3   921  B7G921      0.1835
      2  O5        22.5740  -16.9340   27.4960 O.3   921  B7G921     -0.3256
      3  C1        23.2880  -15.6830   27.3450 C.3   921  B7G921      0.2695
      4  C2        24.7550  -15.8240   27.7800 C.3   921  B7G921      0.2406
      5  C3        25.4170  -16.8860   26.8880 C.3   921  B7G921      0.2198
      6  C4        24.6460  -18.2050   27.0860 C.3   921  B7G921      0.2144
      7  C6        22.3660  -19.2670   26.8680 C.3   921  B7G921      0.2142
      8  O1        22.6460  -14.6950   28.1550 O.3   921  B7G921     -0.3286
      9  C7        21.2980  -14.6370   27.6800 C.3   921  B7G921      0.1449
     10  C8        20.4580  -13.5990   28.4410 C.3   921  B7G921      0.0322
     11  C9        19.0710  -13.6700   27.8330 C.3   921  B7G921      0.0026
     12  C10       18.0920  -12.7140   28.4640 C.3   921  B7G921      0.0001
     13  C11       16.7760  -12.9810   27.7510 C.3   921  B7G921      0.0000
     14  C12       15.6730  -12.1040   28.2960 C.3   921  B7G921      0.0000
     15  O2        25.4270  -14.5650   27.6140 O.3   921  B7G921     -0.2149
     16  O3        26.8060  -17.0630   27.2710 O.3   921  B7G921     -0.2174
     17  O4        25.2200  -19.2360   26.2550 O.3   921  B7G921     -0.2176
     18  O6        20.9910  -19.0380   26.5050 O.3   921  B7G921     -0.2176
     19  C13       14.3890  -12.4420   27.5550 C.3   921  B7G921      0.0000
@<TRIPOS>BOND
     1    17     6    1
     2    18     7    1
     3     1     7    1
     4     1     6    1
     5     1     2    1
     6     5     6    1
     7     5    16    1
     8     5     4    1
     9     3     2    1
    10     3     4    1
    11     3     8    1
    12    19    14    1
    13    15     4    1
    14     9     8    1
    15     9    10    1
    16    13    14    1
    17    13    12    1
    18    11    10    1
    19    11    12    1
