@<TRIPOS>MOLECULE
2znq_401_A_1.pdb
 30 31 0 0 0
SMALL
GASTEIGER

@<TRIPOS>ATOM
      1  O22       20.0440   -2.3490   34.9630 O.co2 922  401922     -0.2457
      2  O23       18.0850   -3.3080   34.4560 O.co2 922  401922     -0.2457
      3  C1        18.6970   -2.4380   35.0460 C.2   922  401922      0.3646
      4  C2        18.1110   -1.3670   35.9120 C.3   922  401922      0.1077
      5  C3        18.7050   -1.4930   37.3400 C.3   922  401922      0.0116
      6  C4        19.9970   -0.7380   37.5900 C.3   922  401922      0.0006
      7  C5        18.3940   -0.0400   35.1810 C.3   922  401922      0.0376
      8  C6        17.5140    1.1250   35.5060 C.ar  922  401922     -0.0217
      9  C7        16.1570    0.9630   35.8430 C.ar  922  401922     -0.0038
     10  C8        15.3350    2.0760   36.1500 C.ar  922  401922      0.0331
     11  C9        15.8860    3.3530   36.1150 C.ar  922  401922      0.1363
     12  C10       17.2320    3.5140   35.7790 C.ar  922  401922      0.0363
     13  C11       18.0400    2.4120   35.4760 C.ar  922  401922     -0.0012
     14  O30       15.0260    4.3620   36.4240 O.3   922  401922     -0.4717
     15  C21       15.5010    5.7130   36.4110 C.3   922  401922      0.2525
     16  C12       13.9060    1.8370   36.4980 C.3   922  401922      0.1448
     17  N24       13.5990    2.1490   37.8650 N.am  922  401922     -0.1966
     18  C13       12.3290    1.9990   38.3920 C.2   922  401922      0.2673
     19  O25       11.3500    1.5910   37.7510 O.2   922  401922     -0.2683
     20  C14       12.1770    2.3590   39.8140 C.ar  922  401922      0.0824
     21  C15       12.8640    3.4670   40.3480 C.ar  922  401922      0.1445
     22  C16       12.7010    3.7970   41.7210 C.ar  922  401922      0.0336
     23  C17       11.8420    3.0060   42.5470 C.ar  922  401922      0.0737
     24  C18       11.1620    1.9000   41.9850 C.ar  922  401922      0.0041
     25  C19       11.3270    1.5810   40.6420 C.ar  922  401922      0.0068
     26  C20       11.6470    3.3300   44.0030 C.3   922  401922      0.4186
     27  F26       13.6850    4.2360   39.5770 F     922  401922     -0.2040
     28  F27       10.3760    3.2060   44.3890 F     922  401922     -0.1659
     29  F28       11.9930    4.5950   44.3180 F     922  401922     -0.1659
     30  F29       12.3360    2.5480   44.8320 F     922  401922     -0.1659
@<TRIPOS>BOND
     1     2     3   ar
     2     1     3   ar
     3     3     4    1
     4     7     8    1
     5     7     4    1
     6    13     8   ar
     7    13    12   ar
     8     8     9   ar
     9    12    11   ar
    10     9    10   ar
    11     4     5    1
    12    11    10   ar
    13    11    14    1
    14    10    16    1
    15    15    14    1
    16    16    17    1
    17     5     6    1
    18    19    18    2
    19    17    18   am
    20    18    20    1
    21    27    21    1
    22    20    21   ar
    23    20    25   ar
    24    21    22   ar
    25    25    24   ar
    26    22    23   ar
    27    24    23   ar
    28    23    26    1
    29    26    29    1
    30    26    28    1
    31    26    30    1
