@<TRIPOS>MOLECULE
2znq_B7G_A_1.pdb
 19 19 0 0 0
SMALL
GASTEIGER

@<TRIPOS>ATOM
      1  C5        22.4140  -17.8450   26.8670 C.3   921  B7G921      0.1835
      2  O5        21.7420  -16.8400   27.6760 O.3   921  B7G921     -0.3256
      3  C1        22.4100  -15.5550   27.5380 C.3   921  B7G921      0.2695
      4  C2        23.8510  -15.6460   28.0230 C.3   921  B7G921      0.2406
      5  C3        24.5760  -16.6690   27.1640 C.3   921  B7G921      0.2198
      6  C4        23.8680  -18.0030   27.3270 C.3   921  B7G921      0.2144
      7  C6        21.7030  -19.1970   27.0160 C.3   921  B7G921      0.2142
      8  O1        21.7450  -14.5760   28.3280 O.3   921  B7G921     -0.3286
      9  C7        20.4350  -14.5130   27.8220 C.3   921  B7G921      0.1449
     10  C8        19.6060  -13.4790   28.5650 C.3   921  B7G921      0.0322
     11  C9        18.2580  -13.5490   27.9030 C.3   921  B7G921      0.0026
     12  C10       17.2650  -12.5900   28.4860 C.3   921  B7G921      0.0001
     13  C11       16.0130  -12.8650   27.6880 C.3   921  B7G921      0.0000
     14  C12       14.8730  -11.9930   28.1440 C.3   921  B7G921      0.0000
     15  O2        24.4750  -14.3640   27.8780 O.3   921  B7G921     -0.2149
     16  O3        25.9370  -16.7870   27.5990 O.3   921  B7G921     -0.2174
     17  O4        24.5140  -18.9780   26.5210 O.3   921  B7G921     -0.2176
     18  O6        20.3450  -19.0950   26.5940 O.3   921  B7G921     -0.2176
     19  C13       13.6480  -12.3440   27.2990 C.3   921  B7G921      0.0000
@<TRIPOS>BOND
     1    17     6    1
     2    18     7    1
     3     1     7    1
     4     1     6    1
     5     1     2    1
     6     5     6    1
     7     5    16    1
     8     5     4    1
     9    19    14    1
    10     3     2    1
    11     3     4    1
    12     3     8    1
    13    13    14    1
    14    13    12    1
    15     9     8    1
    16     9    10    1
    17    15     4    1
    18    11    12    1
    19    11    10    1
