@<TRIPOS>MOLECULE
2zns_GLU_A_1.pdb
 10 9 0 0 0
SMALL
GASTEIGER

@<TRIPOS>ATOM
      1  N         20.3010   -1.8800   10.9680 N.3   301  GLU301     -0.1208
      2  CA        21.5960   -2.6680   10.8410 C.3   301  GLU301      0.1949
      3  C         21.2320   -4.0760   10.4370 C.2   301  GLU301      0.3819
      4  O         22.0780   -4.9660   10.3610 O.co2 301  GLU301     -0.2441
      5  CB        22.3560   -2.7070   12.1990 C.3   301  GLU301      0.0424
      6  CG        23.2200   -1.4750   12.4880 C.3   301  GLU301      0.1161
      7  CD        24.4120   -1.3520   11.5310 C.2   301  GLU301      0.3649
      8  OE1       24.7760   -2.3850   10.9700 O.co2 301  GLU301     -0.2457
      9  OE2       24.9760   -0.2290   11.3710 O.co2 301  GLU301     -0.2457
     10  OXT       20.0600   -4.3610   10.1410 O.co2 301  GLU301     -0.2441
@<TRIPOS>BOND
     1    10     3   ar
     2     4     3   ar
     3     3     2    1
     4     2     1    1
     5     2     5    1
     6     8     7   ar
     7     9     7   ar
     8     7     6    1
     9     5     6    1
