@<TRIPOS>MOLECULE
2znt_DYH_A_1.pdb
 21 22 0 0 0
SMALL
GASTEIGER

@<TRIPOS>ATOM
      1  CAA       20.1240    0.8320   14.2990 C.3     1  DYH1        0.1076
      2  NH        21.4030    1.4660   13.9610 N.3     1  DYH1       -0.2127
      3  CAH       22.5790    1.0120   14.7710 C.3     1  DYH1        0.1351
      4  CAG       23.8100    1.8490   14.3520 C.3     1  DYH1        0.1997
      5  OAC       23.9270    1.8970   12.9140 O.3     1  DYH1       -0.2189
      6  CAP       25.1210    1.2810   14.9450 C.3     1  DYH1        0.1764
      7  OAQ       25.2840   -0.0710   14.4180 O.3     1  DYH1       -0.3509
      8  CAR       24.2680   -1.0020   14.8910 C.3     1  DYH1        0.1467
      9  CAS       24.3330   -2.2850   14.0340 C.3     1  DYH1        0.0704
     10  CAI       22.8470   -0.5090   14.5970 C.3     1  DYH1        0.1612
     11  OAJ       22.6080   -0.8350   13.1880 O.3     1  DYH1       -0.3461
     12  CAK       23.5340   -1.8870   12.7800 C.3     1  DYH1        0.1897
     13  CAE       24.5020   -1.4140   11.6760 C.2     1  DYH1        0.3886
     14  OAB       24.5490   -0.1820   11.4240 O.co2   1  DYH1       -0.2431
     15  OAF       25.1600   -2.3010   11.0940 O.co2   1  DYH1       -0.2431
     16  CB        22.6620   -3.0660   12.3170 C.3     1  DYH1        0.0690
     17  CA        21.9450   -2.8420   10.9850 C.3     1  DYH1        0.1972
     18  C         21.5120   -4.2310   10.4480 C.2     1  DYH1        0.3820
     19  OXT       20.3060   -4.4090   10.1780 O.co2   1  DYH1       -0.2440
     20  O         22.4090   -5.0950   10.2560 O.co2   1  DYH1       -0.2440
     21  N         20.7470   -2.0030   11.1830 N.3     1  DYH1       -0.1207
@<TRIPOS>BOND
     1    19    18   ar
     2    20    18   ar
     3    18    17    1
     4    17    21    1
     5    17    16    1
     6    15    13   ar
     7    14    13   ar
     8    13    12    1
     9    16    12    1
    10    12    11    1
    11    12     9    1
    12     5     4    1
    13    11    10    1
    14     2     1    1
    15     2     3    1
    16     9     8    1
    17     4     3    1
    18     4     6    1
    19     7     8    1
    20     7     6    1
    21    10     3    1
    22    10     8    1
