@<TRIPOS>MOLECULE
2znu_NDZ_A_1.pdb
 20 21 0 0 0
SMALL
GASTEIGER

@<TRIPOS>ATOM
      1  O         20.3130   -4.2050   10.3510 O.co2   1  NDZ1       -0.2440
      2  C         21.5280   -4.0600   10.5950 C.2     1  NDZ1        0.3820
      3  OXT       22.4160   -4.9430   10.4850 O.co2   1  NDZ1       -0.2440
      4  CA        21.9670   -2.6970   11.0970 C.3     1  NDZ1        0.1972
      5  N         20.7760   -1.8810   11.3530 N.3     1  NDZ1       -0.1207
      6  CB        22.7350   -2.9500   12.4040 C.3     1  NDZ1        0.0690
      7  CAJ       23.5720   -1.7280   12.8120 C.3     1  NDZ1        0.1898
      8  CAD       24.5790   -1.3020   11.6850 C.2     1  NDZ1        0.3886
      9  OAA       24.6650   -0.0890   11.3990 O.co2   1  NDZ1       -0.2431
     10  OAE       25.2510   -2.2150   11.1440 O.co2   1  NDZ1       -0.2431
     11  CAR       24.3220   -2.0680   14.1260 C.3     1  NDZ1        0.0705
     12  OAI       22.6660   -0.6190   13.1200 O.3     1  NDZ1       -0.3449
     13  CAH       22.7930   -0.3040   14.5350 C.3     1  NDZ1        0.1755
     14  CAQ       24.2020   -0.7930   14.9570 C.3     1  NDZ1        0.1478
     15  OAP       25.2510    0.0910   14.5080 O.3     1  NDZ1       -0.3508
     16  CAO       25.0600    1.4670   14.9480 C.3     1  NDZ1        0.1776
     17  CAF       23.7740    2.0710   14.3580 C.3     1  NDZ1        0.2140
     18  OAB       23.8800    2.1570   12.9200 O.3     1  NDZ1       -0.2176
     19  CAG       22.5440    1.2120   14.7480 C.3     1  NDZ1        0.2139
     20  OAC       21.3490    1.6210   14.0130 O.3     1  NDZ1       -0.2176
@<TRIPOS>BOND
     1     1     2   ar
     2     3     2   ar
     3     2     4    1
     4     4     5    1
     5     4     6    1
     6    10     8   ar
     7     9     8   ar
     8     8     7    1
     9     6     7    1
    10     7    12    1
    11     7    11    1
    12    18    17    1
    13    12    13    1
    14    20    19    1
    15    11    14    1
    16    17    19    1
    17    17    16    1
    18    15    16    1
    19    15    14    1
    20    13    19    1
    21    13    14    1
