@<TRIPOS>MOLECULE
2zo3_33U_H_1.pdb
 35 38 0 0 0
SMALL
GASTEIGER

@<TRIPOS>ATOM
      1  C37       18.5960  -17.5430   24.9920 C.ar  2501  33U2501    -0.0039
      2  C26       18.6290  -18.7390   25.7250 C.ar  2501  33U2501    -0.0003
      3  C25       18.3040  -18.7250   27.0810 C.ar  2501  33U2501    -0.0000
      4  C34       17.9470  -17.5430   27.7200 C.ar  2501  33U2501    -0.0003
      5  C23       17.9150  -16.3500   26.9880 C.ar  2501  33U2501    -0.0039
      6  C7        18.2380  -16.3490   25.6270 C.ar  2501  33U2501    -0.0165
      7  C8        18.2260  -15.0720   24.7510 C.3   2501  33U2501     0.0710
      8  C9        17.7610  -15.2520   23.2790 C.3   2501  33U2501     0.1758
      9  C10       17.7230  -13.8800   22.6210 C.2   2501  33U2501     0.2441
     10  O32       16.8080  -13.1400   22.9930 O.2   2501  33U2501    -0.2733
     11  N2        16.4490  -15.9680   23.1650 N.3   2501  33U2501    -0.1224
     12  C1        19.6290  -14.4240   24.8070 C.ar  2501  33U2501    -0.0165
     13  C6        20.7220  -14.9670   24.1220 C.ar  2501  33U2501    -0.0039
     14  C5        21.9730  -14.3330   24.2100 C.ar  2501  33U2501    -0.0003
     15  C4        22.1540  -13.1820   24.9610 C.ar  2501  33U2501    -0.0000
     16  C3        21.0620  -12.6360   25.6470 C.ar  2501  33U2501    -0.0003
     17  C2        19.8190  -13.2660   25.5580 C.ar  2501  33U2501    -0.0039
     18  N1        18.6110  -13.4510   21.6830 N.am  2501  33U2501    -0.2718
     19  C14       18.4760  -12.1080   21.1290 C.3   2501  33U2501     0.1535
     20  C15       17.1200  -12.0380   20.4430 C.2   2501  33U2501     0.2598
     21  O22       16.7520  -13.0260   19.8230 O.2   2501  33U2501    -0.2715
     22  C13       19.5610  -12.1080   20.0100 C.3   2501  33U2501     0.0310
     23  C12       20.5050  -13.2450   20.4680 C.3   2501  33U2501     0.0237
     24  C11       19.5020  -14.3450   20.9290 C.3   2501  33U2501     0.0939
     25  N23       16.4550  -10.8700   20.5460 N.am  2501  33U2501    -0.1992
     26  C16       15.1690  -10.8060   19.7930 C.3   2501  33U2501     0.1415
     27  C17       14.0590  -10.6760   20.8370 C.ar  2501  33U2501    -0.0006
     28  C22       13.6160  -11.8180   21.4860 C.ar  2501  33U2501    -0.0023
     29  C21       12.6140  -11.7930   22.4460 C.ar  2501  33U2501     0.0077
     30  C24       12.0150  -10.5710   22.7850 C.ar  2501  33U2501     0.0975
     31  C27       10.9220  -10.5600   23.8390 C.2   2501  33U2501     0.4766
     32  N35       10.2390  -11.6890   24.1310 N.pl3 2501  33U2501     0.2047
     33  N34       10.6440   -9.4830   24.4530 N.pl3 2501  33U2501     0.2047
     34  C19       12.4490   -9.4150   22.1440 C.ar  2501  33U2501     0.0077
     35  C18       13.4640   -9.4540   21.1730 C.ar  2501  33U2501    -0.0023
@<TRIPOS>BOND
     1    26    25    1
     2    26    27    1
     3    21    20    2
     4    22    23    1
     5    22    19    1
     6    20    25   am
     7    20    19    1
     8    23    24    1
     9    27    35   ar
    10    27    28   ar
    11    24    18    1
    12    19    18    1
    13    35    34   ar
    14    28    29   ar
    15    18     9   am
    16    34    30   ar
    17    29    30   ar
    18     9    10    2
    19     9     8    1
    20    30    31    1
    21    11     8    1
    22     8     7    1
    23    31    32    2
    24    31    33    1
    25    13    14   ar
    26    13    12   ar
    27    14    15   ar
    28     7    12    1
    29     7     6    1
    30    12    17   ar
    31    15    16   ar
    32     1     6   ar
    33     1     2   ar
    34    17    16   ar
    35     6     5   ar
    36     2     3   ar
    37     5     4   ar
    38     3     4   ar
