@<TRIPOS>MOLECULE
2zoe_SLB_B_1.pdb
 21 21 0 0 0
SMALL
GASTEIGER

@<TRIPOS>ATOM
      1  C1        26.2570   74.7910   35.7010 C.2   2000  SLB2000     0.4179
      2  C2        25.5880   75.8580   34.8630 C.3   2000  SLB2000     0.3155
      3  C3        26.5670   77.0230   34.6780 C.3   2000  SLB2000     0.1056
      4  C4        25.9360   78.2720   34.0760 C.3   2000  SLB2000     0.1798
      5  C5        24.5620   78.6080   34.6720 C.3   2000  SLB2000     0.1554
      6  C6        23.6780   77.3660   34.9040 C.3   2000  SLB2000     0.1734
      7  C7        22.4030   77.5830   35.7500 C.3   2000  SLB2000     0.2135
      8  C8        22.1270   76.3990   36.6860 C.3   2000  SLB2000     0.2173
      9  C9        20.7270   76.4710   37.3010 C.3   2000  SLB2000     0.2175
     10  C10       23.8350   80.7180   33.5470 C.2   2000  SLB2000     0.2420
     11  C11       23.1810   81.2350   32.2970 C.3   2000  SLB2000     0.0964
     12  N5        23.9490   79.3840   33.5950 N.am  2000  SLB2000    -0.2020
     13  O1A       25.5970   73.8260   36.1460 O.co2 2000  SLB2000    -0.2401
     14  O1B       27.4750   74.9090   35.9260 O.co2 2000  SLB2000    -0.2401
     15  O2        25.2090   75.2700   33.6150 O.3   2000  SLB2000    -0.1830
     16  O4        26.8400   79.3760   34.2590 O.3   2000  SLB2000    -0.2210
     17  O6        24.4250   76.3300   35.5430 O.3   2000  SLB2000    -0.3220
     18  O7        22.4470   78.7720   36.5540 O.3   2000  SLB2000    -0.2176
     19  O8        22.2980   75.1540   35.9870 O.3   2000  SLB2000    -0.2175
     20  O9        20.7990   76.4840   38.7380 O.3   2000  SLB2000    -0.2175
     21  O10       24.2130   81.4780   34.4290 O.2   2000  SLB2000    -0.2733
@<TRIPOS>BOND
     1    11    10    1
     2    10    12   am
     3    10    21    2
     4    12     5    1
     5    15     2    1
     6     4    16    1
     7     4     5    1
     8     4     3    1
     9     5     6    1
    10     3     2    1
    11     2    17    1
    12     2     1    1
    13     6    17    1
    14     6     7    1
    15     1    14   ar
    16     1    13   ar
    17     7    18    1
    18     7     8    1
    19    19     8    1
    20     8     9    1
    21     9    20    1
