@<TRIPOS>MOLECULE
2zon_HEM_G_1.pdb
 43 50 0 0 0
SMALL
GASTEIGER

@<TRIPOS>ATOM
      1  CHA       -7.6330   10.8480   -1.5850 C.2   200  HEM200      0.0000
      2  CHB      -11.3390    9.7570   -4.4490 C.2   200  HEM200      0.0000
      3  CHC       -8.3900    9.9510   -8.2270 C.2   200  HEM200      0.0000
      4  CHD       -4.6410    9.9170   -5.2420 C.2   200  HEM200      0.0000
      5  C1A       -8.9500   10.6030   -1.9820 C.2   200  HEM200      0.0000
      6  C2A      -10.1060   10.6740   -1.2020 C.2   200  HEM200      0.0000
      7  C3A      -11.1560   10.3620   -2.0410 C.2   200  HEM200      0.0000
      8  C4A      -10.6420   10.1140   -3.3040 C.2   200  HEM200      0.0000
      9  CMA      -12.6540   10.2890   -1.6920 C.3   200  HEM200      0.0000
     10  CAA      -10.1650   11.0220    0.2820 C.3   200  HEM200      0.0000
     11  CBA      -10.1070   12.5230    0.4750 C.3   200  HEM200      0.0000
     12  CGA       -9.1600   12.8510    1.6300 C.2   200  HEM200      0.0000
     13  O1A       -8.0560   12.2640    1.6640 O.co2 200  HEM200      0.0000
     14  O2A       -9.5760   13.6780    2.4550 O.co2 200  HEM200      0.0000
     15  C1B      -10.9190    9.8040   -5.7740 C.ar  200  HEM200      0.0000
     16  C2B      -11.7120    9.7390   -6.9060 C.ar  200  HEM200      0.0000
     17  C3B      -10.8820    9.8150   -8.0050 C.ar  200  HEM200      0.0000
     18  C4B       -9.5770    9.8700   -7.4990 C.ar  200  HEM200      0.0000
     19  CMB      -13.2590    9.6650   -6.8790 C.3   200  HEM200      0.0000
     20  CAB      -11.3020    9.7140   -9.4730 C.3   200  HEM200      0.0000
     21  CBB      -12.3810   10.7270   -9.8990 C.3   200  HEM200      0.0000
     22  C1C       -7.0590    9.9100   -7.8040 C.2   200  HEM200      0.0000
     23  C2C       -5.9090    9.8140   -8.5860 C.2   200  HEM200      0.0000
     24  C3C       -4.8050    9.8170   -7.7470 C.2   200  HEM200      0.0000
     25  C4C       -5.3350    9.8990   -6.4520 C.2   200  HEM200      0.0000
     26  CMC       -5.9110    9.7170  -10.1200 C.3   200  HEM200      0.0000
     27  CAC       -3.3650    9.6290   -8.2290 C.3   200  HEM200      0.0000
     28  CBC       -2.7890   10.6690   -9.1990 C.3   200  HEM200      0.0000
     29  C1D       -5.0820   10.2570   -3.9640 C.ar  200  HEM200      0.0000
     30  C2D       -4.3100   10.5490   -2.8400 C.ar  200  HEM200      0.0000
     31  C3D       -5.1500   10.8190   -1.7820 C.ar  200  HEM200      0.0000
     32  C4D       -6.4430   10.6770   -2.2840 C.ar  200  HEM200      0.0000
     33  CMD       -2.7710   10.5690   -2.8030 C.3   200  HEM200      0.0000
     34  CAD       -4.7600   11.2250   -0.3420 C.3   200  HEM200      0.0000
     35  CBD       -4.4830   12.7370   -0.3020 C.3   200  HEM200      0.0000
     36  CGD       -3.5250   13.1620    0.8310 C.2   200  HEM200      0.0000
     37  O1D       -3.8450   12.8420    1.9960 O.co2 200  HEM200      0.0000
     38  O2D       -2.4920   13.8050    0.5130 O.co2 200  HEM200      0.0000
     39  NA        -9.3090   10.2650   -3.2330 N.2   200  HEM200      0.0000
     40  NB        -9.6310    9.8830   -6.1630 N.ar  200  HEM200      0.0000
     41  NC        -6.6820    9.9550   -6.5160 N.2   200  HEM200      0.0000
     42  ND        -6.3690   10.3460   -3.5930 N.ar  200  HEM200      0.0000
     43 FE         -8.0110   10.0890   -4.8390 Fe    200  HEM200      0.0000
@<TRIPOS>BOND
     1    26    23    1
     2    21    20    1
     3    20    17    1
     4    28    27    1
     5    23    22    1
     6    23    24    2
     7    27    24    1
     8     3    22    2
     9     3    18    1
    10    17    18   ar
    11    17    16   ar
    12    22    41    1
    13    24    25    1
    14    18    40   ar
    15    16    19    1
    16    16    15   ar
    17    41    25    2
    18    41    43    1
    19    25     4    1
    20    40    15   ar
    21    40    43    1
    22    15     2    1
    23     4    29    2
    24    43    42    1
    25    43    39    1
    26     2     8    2
    27    29    42   ar
    28    29    30   ar
    29    42    32   ar
    30     8    39    1
    31     8     7    1
    32    39     5    2
    33    30    33    1
    34    30    31   ar
    35    32    31   ar
    36    32     1    2
    37     7     9    1
    38     7     6    2
    39     5     1    1
    40     5     6    1
    41    31    34    1
    42     6    10    1
    43    34    35    1
    44    35    36    1
    45    10    11    1
    46    11    12    1
    47    38    36   ar
    48    36    37   ar
    49    12    13   ar
    50    12    14   ar
