@<TRIPOS>MOLECULE
2zoo_HEM_A_1.pdb
 43 50 0 0 0
SMALL
GASTEIGER

@<TRIPOS>ATOM
      1  CHA        7.9340    8.6460   47.6670 C.2   600  HEM600      0.0000
      2  CHB        6.0660   12.9810   46.7810 C.2   600  HEM600      0.0000
      3  CHC        6.8480   12.0920   42.1100 C.2   600  HEM600      0.0000
      4  CHD        7.2980    7.4000   43.0620 C.2   600  HEM600      0.0000
      5  C1A        7.4070    9.9140   47.9110 C.2   600  HEM600      0.0000
      6  C2A        7.2580   10.5510   49.1530 C.2   600  HEM600      0.0000
      7  C3A        6.7310   11.8040   48.8800 C.2   600  HEM600      0.0000
      8  C4A        6.5830   11.9170   47.4990 C.2   600  HEM600      0.0000
      9  CMA        6.3590   12.9250   49.8650 C.3   600  HEM600      0.0000
     10  CAA        7.6090    9.9500   50.5260 C.3   600  HEM600      0.0000
     11  CBA        6.6530    8.8100   50.9550 C.3   600  HEM600      0.0000
     12  CGA        5.1830    9.2130   51.1300 C.2   600  HEM600      0.0000
     13  O1A        4.3350    8.4460   50.6190 O.co2 600  HEM600      0.0000
     14  O2A        4.9170   10.2640   51.7610 O.co2 600  HEM600      0.0000
     15  C1B        6.1410   13.1850   45.4040 C.ar  600  HEM600      0.0000
     16  C2B        5.8720   14.3560   44.7210 C.ar  600  HEM600      0.0000
     17  C3B        6.1310   14.1310   43.3690 C.ar  600  HEM600      0.0000
     18  C4B        6.5090   12.7870   43.2740 C.ar  600  HEM600      0.0000
     19  CMB        5.4190   15.6440   45.4300 C.3   600  HEM600      0.0000
     20  CAB        6.0260   15.0930   42.1700 C.3   600  HEM600      0.0000
     21  CBB        6.9810   16.3060   42.3080 C.3   600  HEM600      0.0000
     22  C1C        6.8900   10.7190   41.8740 C.2   600  HEM600      0.0000
     23  C2C        6.8100   10.0230   40.6580 C.2   600  HEM600      0.0000
     24  C3C        6.9470    8.6680   40.9230 C.2   600  HEM600      0.0000
     25  C4C        7.1170    8.5670   42.3180 C.2   600  HEM600      0.0000
     26  CMC        6.5880   10.6970   39.2790 C.3   600  HEM600      0.0000
     27  CAC        6.8560    7.4770   39.9460 C.3   600  HEM600      0.0000
     28  CBC        7.9360    7.4310   38.8400 C.3   600  HEM600      0.0000
     29  C1D        7.6210    7.2620   44.4150 C.ar  600  HEM600      0.0000
     30  C2D        8.0830    6.1350   45.1010 C.ar  600  HEM600      0.0000
     31  C3D        8.2920    6.4760   46.4270 C.ar  600  HEM600      0.0000
     32  C4D        7.9250    7.8300   46.5290 C.ar  600  HEM600      0.0000
     33  CMD        8.3390    4.7780   44.4590 C.3   600  HEM600      0.0000
     34  CAD        8.7990    5.5430   47.5670 C.3   600  HEM600      0.0000
     35  CBD       10.3430    5.4990   47.5930 C.3   600  HEM600      0.0000
     36  CGD       10.9260    4.4680   48.6130 C.2   600  HEM600      0.0000
     37  O1D       12.0760    4.7190   49.0710 O.co2 600  HEM600      0.0000
     38  O2D       10.2270    3.4710   48.8990 O.co2 600  HEM600      0.0000
     39  NA         6.9990   10.7620   46.9490 N.2   600  HEM600      0.0000
     40  NB         6.5320   12.2540   44.5170 N.ar  600  HEM600      0.0000
     41  NC         7.0870    9.8100   42.8420 N.2   600  HEM600      0.0000
     42  ND         7.5500    8.2690   45.3060 N.ar  600  HEM600      0.0000
     43 FE          7.0290   10.2770   44.9130 Fe    600  HEM600      0.0000
@<TRIPOS>BOND
     1    28    27    1
     2    26    23    1
     3    27    24    1
     4    23    24    2
     5    23    22    1
     6    24    25    1
     7    22     3    2
     8    22    41    1
     9     3    18    1
    10    20    21    1
    11    20    17    1
    12    25    41    2
    13    25     4    1
    14    41    43    1
    15     4    29    2
    16    18    17   ar
    17    18    40   ar
    18    17    16   ar
    19    29    30   ar
    20    29    42   ar
    21    33    30    1
    22    40    43    1
    23    40    15   ar
    24    16    15   ar
    25    16    19    1
    26    43    42    1
    27    43    39    1
    28    30    31   ar
    29    42    32   ar
    30    15     2    1
    31    31    32   ar
    32    31    34    1
    33    32     1    2
    34     2     8    2
    35    39     8    1
    36    39     5    2
    37     8     7    1
    38    34    35    1
    39    35    36    1
    40     1     5    1
    41     5     6    1
    42    36    38   ar
    43    36    37   ar
    44     7     6    2
    45     7     9    1
    46     6    10    1
    47    10    11    1
    48    13    12   ar
    49    11    12    1
    50    12    14   ar
