@<TRIPOS>MOLECULE
2zoq_5ID_A_1.pdb
 20 22 0 0 0
SMALL
GASTEIGER

@<TRIPOS>ATOM
      1  O5'       26.7550    8.4290   14.9830 O.3   382  5ID382     -0.2176
      2  C5'       27.6450    9.4940   15.0450 C.3   382  5ID382      0.2143
      3  C4'       28.9610    9.1890   15.7230 C.3   382  5ID382      0.1851
      4  O4'       28.8080    9.2050   17.1410 O.3   382  5ID382     -0.3132
      5  C1'       29.7360    8.3050   17.6810 C.3   382  5ID382      0.3212
      6  N9        29.0210    7.3310   18.4930 N.pl3 382  5ID382     -0.1464
      7  C8        27.8390    6.7360   18.2180 C.2   382  5ID382      0.1800
      8  C7        27.4570    5.8550   19.2650 C.2   382  5ID382      0.0715
      9  C5        28.5470    5.9440   20.2410 C.3   382  5ID382      0.2499
     10  C6        28.9100    5.4230   21.4470 C.2   382  5ID382      0.4069
     11  N1        30.0810    5.8620   21.9880 N.2   382  5ID382     -0.0027
     12  C2        30.8730    6.7620   21.4100 C.3   382  5ID382      0.5248
     13  N3        30.5870    7.3120   20.2310 N.2   382  5ID382     -0.0106
     14  C4        29.4310    6.8810   19.6720 C.2   382  5ID382      0.3220
     15  N6        28.1770    4.5120   22.1140 N.pl3 382  5ID382      0.2117
     16  C2'       30.4110    7.6340   16.4650 C.3   382  5ID382      0.2573
     17  O2'       31.4800    8.5240   16.1750 O.3   382  5ID382     -0.2130
     18  C3'       29.4540    7.8250   15.2970 C.3   382  5ID382      0.2186
     19  O3'       30.1940    7.8960   14.0610 O.3   382  5ID382     -0.2174
     20  IAE       25.7510    4.7200   19.3300 I     382  5ID382     -0.0424
@<TRIPOS>BOND
     1    19    18    1
     2     1     2    1
     3     2     3    1
     4    18     3    1
     5    18    16    1
     6     3     4    1
     7    17    16    1
     8    16     5    1
     9     4     5    1
    10     5     6    1
    11     7     6    1
    12     7     8    2
    13     6    14    1
    14     8    20    1
    15     8     9    1
    16    14    13    2
    17    14     9    1
    18    13    12    1
    19     9    10    1
    20    12    11    1
    21    10    11    2
    22    10    15    1
