@<TRIPOS>MOLECULE
2zox_GLC_A_1.pdb
 11 11 0 0 0
SMALL
GASTEIGER

@<TRIPOS>ATOM
      1  C1       -29.9740   -0.9450    6.2090 C.3   470  GLC470      0.1777
      2  C2       -28.5230   -1.3950    5.9660 C.3   470  GLC470      0.2141
      3  C3       -27.8620   -1.7560    7.2970 C.3   470  GLC470      0.2173
      4  C4       -27.9550   -0.5220    8.2050 C.3   470  GLC470      0.2142
      5  C5       -29.4370   -0.1520    8.4000 C.3   470  GLC470      0.1810
      6  C6       -29.6090    1.0700    9.3040 C.3   470  GLC470      0.2141
      7  O2       -28.5150   -2.5020    5.0960 O.3   470  GLC470     -0.2176
      8  O3       -26.5240   -2.1700    7.1060 O.3   470  GLC470     -0.2175
      9  O4       -27.2880   -0.7320    9.4380 O.3   470  GLC470     -0.2176
     10  O5       -30.0480    0.1350    7.1380 O.3   470  GLC470     -0.3481
     11  O6       -29.0110    2.1750    8.6520 O.3   470  GLC470     -0.2176
@<TRIPOS>BOND
     1     7     2    1
     2     2     1    1
     3     2     3    1
     4     1    10    1
     5     8     3    1
     6    10     5    1
     7     3     4    1
     8     4     5    1
     9     4     9    1
    10     5     6    1
    11    11     6    1
