@<TRIPOS>MOLECULE
2zox_PNG_A_1.pdb
 21 22 0 0 0
SMALL
GASTEIGER

@<TRIPOS>ATOM
      1  C1       -29.0080   23.4650  -17.5600 C.3   471  PNG471      0.3218
      2  C2       -30.3540   24.1890  -17.4580 C.3   471  PNG471      0.2542
      3  C3       -31.4300   23.2680  -16.8820 C.3   471  PNG471      0.2211
      4  C4       -31.4560   21.9140  -17.5910 C.3   471  PNG471      0.2145
      5  C5       -30.0490   21.3150  -17.6260 C.3   471  PNG471      0.1846
      6  C6       -30.0090   19.9830  -18.3590 C.3   471  PNG471      0.2142
      7  C7       -26.7060   24.0690  -18.1520 C.ar  471  PNG471      0.1415
      8  C8       -25.8380   25.1180  -18.4490 C.ar  471  PNG471      0.0387
      9  C9       -24.4600   24.9290  -18.3520 C.ar  471  PNG471      0.0272
     10  C10      -23.9460   23.6890  -17.9620 C.ar  471  PNG471      0.1431
     11  C11      -24.8150   22.6410  -17.6710 C.ar  471  PNG471      0.0272
     12  C12      -26.1890   22.8300  -17.7600 C.ar  471  PNG471      0.0387
     13  N1       -22.5590   23.4960  -17.8690 N.pl3 471  PNG471      0.0577
     14  O1       -28.0600   24.2750  -18.2540 O.3   471  PNG471     -0.4505
     15  O2       -30.2310   25.3450  -16.6240 O.3   471  PNG471     -0.2135
     16  O3       -32.7070   23.8950  -17.0130 O.3   471  PNG471     -0.2173
     17  O4       -32.3650   21.0310  -16.9200 O.3   471  PNG471     -0.2176
     18  O5       -29.1600   22.2320  -18.2720 O.3   471  PNG471     -0.3157
     19  O6       -29.9200   20.2340  -19.7620 O.3   471  PNG471     -0.2176
     20  O7       -21.7960   24.2330  -18.4770 O.2   471  PNG471     -0.1261
     21  O8       -22.0350   22.4690  -17.0860 O.2   471  PNG471     -0.1261
@<TRIPOS>BOND
     1    19     6    1
     2    20    13    2
     3     8     9   ar
     4     8     7   ar
     5     6     5    1
     6     9    10   ar
     7    18     5    1
     8    18     1    1
     9    14     7    1
    10    14     1    1
    11     7    12   ar
    12    10    13    1
    13    10    11   ar
    14    13    21    2
    15    12    11   ar
    16     5     4    1
    17     4    17    1
    18     4     3    1
    19     1     2    1
    20     2     3    1
    21     2    15    1
    22    16     3    1
