@<TRIPOS>MOLECULE
2zoz_ET_B_1.pdb
 24 27 0 0 0
SMALL
GASTEIGER

@<TRIPOS>ATOM
      1  C1        44.2960   36.9810   38.3640 C.3   184  ET184       0.0550
      2  C2        43.4220   37.7340   37.5890 C.2   184  ET184      -0.0033
      3  C3        42.6480   38.7650   38.1720 C.2   184  ET184       0.0864
      4  C4        42.7510   39.0440   39.5360 C.2   184  ET184       0.0322
      5  N5        43.7510   38.5540   41.7620 N.pl3 184  ET184      -0.2871
      6  C6        44.5790   37.8420   42.5970 C.2   184  ET184       0.0515
      7  C7        46.3160   35.9770   42.8730 C.ar  184  ET184       0.0193
      8  C8        47.0970   34.9600   42.3250 C.ar  184  ET184       0.0891
      9  C9        47.0250   34.6640   40.9390 C.ar  184  ET184       0.0180
     10  C10       46.1760   35.3820   40.1020 C.ar  184  ET184       0.0012
     11  C11       45.4300   36.7430   42.0460 C.ar  184  ET184       0.0147
     12  C12       45.3600   36.4350   40.6250 C.ar  184  ET184      -0.0012
     13  C13       44.4300   37.2320   39.7700 C.2   184  ET184      -0.0040
     14  C14       43.6450   38.2870   40.3890 C.2   184  ET184       0.0492
     15  C15       44.6660   38.1080   44.0910 C.ar  184  ET184       0.0136
     16  C16       45.6890   38.9130   44.6710 C.ar  184  ET184       0.0012
     17  C17       45.7220   39.1000   46.0690 C.ar  184  ET184       0.0000
     18  C18       44.7490   38.4940   46.9010 C.ar  184  ET184       0.0000
     19  C19       43.7300   37.6970   46.3400 C.ar  184  ET184       0.0000
     20  C20       43.6830   37.4990   44.9480 C.ar  184  ET184       0.0012
     21  C21       42.9180   39.6630   42.3260 C.3   184  ET184       0.0956
     22  C22       43.6430   41.0130   42.1110 C.3   184  ET184       0.0236
     23  N23       41.7740   39.5170   37.3820 N.pl3 184  ET184      -0.1283
     24  N24       47.9540   34.2350   43.1570 N.pl3 184  ET184      -0.1281
@<TRIPOS>BOND
     1    23     3    1
     2     2     3    2
     3     2     1    1
     4     3     4    1
     5     1    13    1
     6     4    14    2
     7    13    14    1
     8    13    12    2
     9    10    12   ar
    10    10     9   ar
    11    14     5    1
    12    12    11   ar
    13     9     8   ar
    14     5    21    1
    15     5     6    1
    16    11     6    2
    17    11     7   ar
    18    22    21    1
    19     8     7   ar
    20     8    24    1
    21     6    15    1
    22    15    16   ar
    23    15    20   ar
    24    16    17   ar
    25    20    19   ar
    26    17    18   ar
    27    19    18   ar
