@<TRIPOS>MOLECULE
2zp0_BGC_L_1.pdb
 11 11 0 0 0
SMALL
GASTEIGER

@<TRIPOS>ATOM
      1  C2        38.4250   35.4490   61.0470 C.3   1052  BGC1052     0.2141
      2  C3        38.6740   34.3860   59.9780 C.3   1052  BGC1052     0.2173
      3  C4        39.4310   33.2180   60.5910 C.3   1052  BGC1052     0.2142
      4  C5        38.6470   32.6550   61.7940 C.3   1052  BGC1052     0.1810
      5  C6        39.4660   31.5400   62.4680 C.3   1052  BGC1052     0.2141
      6  C1        37.6680   34.8210   62.2500 C.3   1052  BGC1052     0.1777
      7  O2        37.6460   36.5100   60.4730 O.3   1052  BGC1052    -0.2176
      8  O3        39.4640   34.9550   58.9270 O.3   1052  BGC1052    -0.2175
      9  O4        39.5950   32.1940   59.6020 O.3   1052  BGC1052    -0.2176
     10  O5        38.3810   33.6850   62.7650 O.3   1052  BGC1052    -0.3481
     11  O6        39.8680   30.5340   61.5520 O.3   1052  BGC1052    -0.2176
@<TRIPOS>BOND
     1     8     2    1
     2     9     3    1
     3     2     3    1
     4     2     1    1
     5     7     1    1
     6     3     4    1
     7     1     6    1
     8    11     5    1
     9     4     5    1
    10     4    10    1
    11     6    10    1
