@<TRIPOS>MOLECULE
2zp0_PI0_H_1.pdb
 38 39 0 0 0
SMALL
GASTEIGER

@<TRIPOS>ATOM
      1  C1        37.7220    6.7230   10.9840 C.3   1001  PI01001     0.0268
      2  C2        35.6110    9.7150    5.1610 C.2   1001  PI01001     0.2608
      3  O3        36.2540    3.2850    9.7740 O.2   1001  PI01001    -0.1558
      4  C4        38.9330    5.8060   10.8910 C.3   1001  PI01001     0.0019
      5  C6        39.9880    6.2720   11.8600 C.3   1001  PI01001     0.0001
      6  C7        32.9390    2.1720    8.8700 C.ar  1001  PI01001    -0.0025
      7  C9        33.7780    3.8520   10.5420 C.3   1001  PI01001     0.1969
      8  C10       31.2830    0.5070    9.4880 C.ar  1001  PI01001    -0.0000
      9  C15       35.3300    6.8100   10.1440 C.2   1001  PI01001     0.2595
     10  C16       31.1550    6.5340   11.4590 C.ar  1001  PI01001    -0.0023
     11  C17       30.9500    6.2600   12.8200 C.ar  1001  PI01001     0.0077
     12  C18       34.2450    8.1130    8.3960 C.3   1001  PI01001     0.1733
     13  C19       34.3920    8.5050    6.9350 C.3   1001  PI01001     0.0408
     14  C20       35.7250    9.1630    6.5900 C.3   1001  PI01001     0.0908
     15  C23       29.1460    7.8880   12.8930 C.ar  1001  PI01001     0.0077
     16  C24       29.3660    8.1770   11.5270 C.ar  1001  PI01001    -0.0023
     17  C26       29.7640    6.6310   14.9810 C.2   1001  PI01001     0.4766
     18  C28       32.9160    7.4030    8.6270 C.2   1001  PI01001     0.2615
     19  C32       30.6210    7.7730    9.3620 C.3   1001  PI01001     0.1415
     20  O1        34.5190    7.0780   11.0280 O.2   1001  PI01001    -0.2718
     21  N17       35.2990    7.2150    8.8510 N.am  1001  PI01001    -0.1965
     22  O30       32.7780    6.1940    8.4160 O.2   1001  PI01001    -0.2715
     23  N31       31.9660    8.2470    9.0810 N.am  1001  PI01001    -0.1991
     24  C22       29.9470    6.9280   13.5500 C.ar  1001  PI01001     0.0975
     25  C25       30.3690    7.4900   10.8030 C.ar  1001  PI01001    -0.0006
     26  N1        30.5820    5.8060   15.6200 N.pl3 1001  PI01001     0.2047
     27  O2        35.3800    8.9570    4.2200 O.2   1001  PI01001    -0.2717
     28  N3        35.6690   11.0720    5.0450 N.am  1001  PI01001    -0.0878
     29  N4        36.1380    4.9730   11.4810 N.3   1001  PI01001    -0.0738
     30  C5        36.5210    5.9300   10.4510 C.3   1001  PI01001     0.1747
     31  C3        37.9500    8.0800   10.2670 C.3   1001  PI01001     0.0020
     32  S1        35.4490    3.5280   10.9180 S.O2  1001  PI01001     0.0620
     33  O4        35.5270    2.6520   12.0380 O.2   1001  PI01001    -0.1558
     34  C8        32.9410    2.6750   10.1920 C.ar  1001  PI01001     0.0030
     35  C12       32.1010    1.1020    8.5150 C.ar  1001  PI01001    -0.0003
     36  C11       31.2970    0.9940   10.8130 C.ar  1001  PI01001    -0.0003
     37  C13       32.1230    2.0830   11.1650 C.ar  1001  PI01001    -0.0025
     38  N2        28.8150    7.2110   15.7040 N.pl3 1001  PI01001     0.2047
@<TRIPOS>BOND
     1    27     2    2
     2    28     2   am
     3     2    14    1
     4    14    13    1
     5    13    12    1
     6    12    18    1
     7    12    21    1
     8    22    18    2
     9    35     6   ar
    10    35     8   ar
    11    18    23   am
    12    21     9   am
    13     6    34   ar
    14    23    19    1
    15    19    25    1
    16     8    36   ar
    17     3    32    2
    18     9    30    1
    19     9    20    2
    20    34     7    1
    21    34    37   ar
    22    31     1    1
    23    30     1    1
    24    30    29    1
    25     7    32    1
    26    25    10   ar
    27    25    16   ar
    28    36    37   ar
    29     4     1    1
    30     4     5    1
    31    32    29    1
    32    32    33    2
    33    10    11   ar
    34    16    15   ar
    35    11    24   ar
    36    15    24   ar
    37    24    17    1
    38    17    26    2
    39    17    38    1
