@<TRIPOS>MOLECULE
2zp0_FUC_L_1.pdb
 10 10 0 0 0
SMALL
GASTEIGER

@<TRIPOS>ATOM
      1  C1        21.5570   32.3520   62.0700 C.3   1060  FUC1060     0.1776
      2  C2        20.5340   33.4340   62.4450 C.3   1060  FUC1060     0.2141
      3  C3        20.3780   34.4210   61.2780 C.3   1060  FUC1060     0.2172
      4  C4        20.0450   33.6410   59.9990 C.3   1060  FUC1060     0.2116
      5  C5        21.1180   32.5840   59.7610 C.3   1060  FUC1060     0.1483
      6  C6        20.8290   31.8300   58.4630 C.3   1060  FUC1060     0.0349
      7  O2        21.0000   34.1460   63.5990 O.3   1060  FUC1060    -0.2176
      8  O3        19.3140   35.3370   61.5680 O.3   1060  FUC1060    -0.2175
      9  O4        18.7830   32.9870   60.1680 O.3   1060  FUC1060    -0.2177
     10  O5        21.1440   31.6820   60.8740 O.3   1060  FUC1060    -0.3508
@<TRIPOS>BOND
     1     6     5    1
     2     5     4    1
     3     5    10    1
     4     4     9    1
     5     4     3    1
     6    10     1    1
     7     3     8    1
     8     3     2    1
     9     1     2    1
    10     2     7    1
