@<TRIPOS>MOLECULE
2zp1_IYR_A_1.pdb
 14 14 0 0 0
SMALL
GASTEIGER

@<TRIPOS>ATOM
      1  N         13.3910   24.5180   13.7660 N.3   501  IYR501     -0.1205
      2  CA        12.7770   24.0520   15.0590 C.3   501  IYR501      0.1986
      3  CB        12.2560   22.6090   14.9030 C.3   501  IYR501      0.0569
      4  CC        11.1810   22.5070   13.8520 C.ar  501  IYR501     -0.0195
      5  CD        11.3210   21.6300   12.7660 C.ar  501  IYR501      0.0048
      6  CE        10.3410   21.5320   11.7670 C.ar  501  IYR501      0.0686
      7  IE        10.6250   20.2700   10.1660 I     501  IYR501     -0.0392
      8  CF         9.1900   22.3290   11.8660 C.ar  501  IYR501      0.2010
      9  OF         8.1930   22.2560   10.9180 O.3   501  IYR501     -0.2861
     10  CG         9.0290   23.2200   12.9430 C.ar  501  IYR501      0.0422
     11  CH        10.0240   23.3020   13.9270 C.ar  501  IYR501     -0.0009
     12  C         13.7880   24.1240   16.2060 C.2   501  IYR501      0.3822
     13  O         14.7410   24.9180   16.0820 O.co2 501  IYR501     -0.2440
     14  OXT       13.6120   23.4060   17.2190 O.co2 501  IYR501     -0.2440
@<TRIPOS>BOND
     1     7     6    1
     2     9     8    1
     3     6     8   ar
     4     6     5   ar
     5     8    10   ar
     6     5     4   ar
     7    10    11   ar
     8     1     2    1
     9     4    11   ar
    10     4     3    1
    11     3     2    1
    12     2    12    1
    13    13    12   ar
    14    12    14   ar
