@<TRIPOS>MOLECULE
2zp7_PLP_A_1.pdb
 15 15 0 0 0
SMALL
GASTEIGER

@<TRIPOS>ATOM
      1  N1       -18.6960    5.6180   74.3560 N.2   600  PLP600     -0.2764
      2  C2       -18.8540    5.7230   72.9950 C.2   600  PLP600      0.0619
      3  C2A      -18.1090    6.8000   72.2730 C.3   600  PLP600      0.0495
      4  C3       -19.6810    4.8410   72.3310 C.3   600  PLP600      0.1872
      5  O3       -20.1210    5.1220   71.0640 O.3   600  PLP600     -0.2170
      6  C4       -20.3480    3.8690   73.0760 C.3   600  PLP600      0.0403
      7  C4A      -21.1260    2.8160   72.2950 C.3   600  PLP600      0.0032
      8  C5       -20.1820    3.7820   74.4630 C.3   600  PLP600      0.0574
      9  C6       -19.3400    4.6700   75.0980 C.3   600  PLP600      0.1274
     10  C5A      -21.3040    3.2150   75.3150 C.3   600  PLP600      0.1558
     11  O4P      -21.2240    1.8130   75.2010 O.3   600  PLP600     -0.2702
     12  P        -21.7340    0.8580   76.3570 P.3   600  PLP600      0.5326
     13  O1P      -22.4590    1.4950   77.5050 O.3   600  PLP600     -0.1145
     14  O2P      -20.5400    0.0920   76.9330 O.3   600  PLP600     -0.1145
     15  O3P      -22.6030   -0.1470   75.6330 O.2   600  PLP600     -0.2224
@<TRIPOS>BOND
     1     5     4    1
     2     3     2    1
     3     7     6    1
     4     4     2    1
     5     4     6    1
     6     2     1    2
     7     6     8    1
     8     1     9    1
     9     8     9    1
    10     8    10    1
    11    11    10    1
    12    11    12    1
    13    15    12    2
    14    12    14    1
    15    12    13    1
