@<TRIPOS>MOLECULE
2zp8_TRP_A_1.pdb
 15 16 0 0 0
SMALL
GASTEIGER

@<TRIPOS>ATOM
      1  N         -6.3560  -27.9310   38.6430 N.3   100  TRP100     -0.1205
      2  CA        -7.0730  -27.2150   39.7270 C.3   100  TRP100      0.1984
      3  C         -7.0260  -25.7250   39.4920 C.2   100  TRP100      0.3822
      4  O         -5.9680  -25.1750   39.2140 O.co2 100  TRP100     -0.2440
      5  CB        -6.4440  -27.5180   41.0740 C.3   100  TRP100      0.0549
      6  CG        -7.1100  -26.7950   42.1950 C.2   100  TRP100     -0.0138
      7  CD1       -6.8790  -25.5040   42.6010 C.2   100  TRP100      0.0907
      8  CD2       -8.1260  -27.3120   43.0600 C.3   100  TRP100      0.0819
      9  NE1       -7.6890  -25.1940   43.6640 N.2   100  TRP100     -0.2482
     10  CE2       -8.4620  -26.2880   43.9670 C.2   100  TRP100      0.0665
     11  CE3       -8.7750  -28.5450   43.1640 C.2   100  TRP100     -0.0164
     12  CZ2       -9.4250  -26.4630   44.9630 C.2   100  TRP100      0.0153
     13  CZ3       -9.7310  -28.7130   44.1470 C.2   100  TRP100     -0.0038
     14  CH2      -10.0450  -27.6810   45.0340 C.2   100  TRP100      0.0009
     15  OXT       -8.0360  -25.0370   39.6050 O.co2 100  TRP100     -0.2440
@<TRIPOS>BOND
     1     1     2    1
     2     4     3   ar
     3     3    15   ar
     4     3     2    1
     5     2     5    1
     6     5     6    1
     7     6     7    2
     8     6     8    1
     9     7     9    1
    10     8    11    1
    11     8    10    1
    12    11    13    2
    13     9    10    2
    14    10    12    1
    15    13    14    1
    16    12    14    2
