@<TRIPOS>MOLECULE
2zp9_TRP_A_1.pdb
 15 16 0 0 0
SMALL
GASTEIGER

@<TRIPOS>ATOM
      1  N        -28.3850    5.2870   -0.5830 N.3   100  TRP100     -0.1205
      2  CA       -27.6230    5.9020    0.4950 C.3   100  TRP100      0.1984
      3  C        -26.1720    5.6010    0.2520 C.2   100  TRP100      0.3822
      4  O        -25.8900    4.5140   -0.2600 O.co2 100  TRP100     -0.2440
      5  CB       -28.0260    5.3310    1.8480 C.3   100  TRP100      0.0549
      6  CG       -27.3070    5.9570    2.9780 C.2   100  TRP100     -0.0138
      7  CD1      -26.0930    5.6080    3.4500 C.2   100  TRP100      0.0907
      8  CD2      -27.7560    7.0480    3.7890 C.3   100  TRP100      0.0819
      9  NE1      -25.7460    6.4080    4.5010 N.2   100  TRP100     -0.2482
     10  CE2      -26.7540    7.3000    4.7330 C.2   100  TRP100      0.0665
     11  CE3      -28.9160    7.8350    3.8090 C.2   100  TRP100     -0.0164
     12  CZ2      -26.8600    8.3100    5.6870 C.2   100  TRP100      0.0153
     13  CZ3      -29.0280    8.8430    4.7710 C.2   100  TRP100     -0.0038
     14  CH2      -28.0050    9.0660    5.6950 C.2   100  TRP100      0.0009
     15  OXT      -25.2910    6.4110    0.5620 O.co2 100  TRP100     -0.2440
@<TRIPOS>BOND
     1     1     2    1
     2     4     3   ar
     3     3     2    1
     4     3    15   ar
     5     2     5    1
     6     5     6    1
     7     6     7    2
     8     6     8    1
     9     7     9    1
    10     8    11    1
    11     8    10    1
    12    11    13    2
    13     9    10    2
    14    10    12    1
    15    13    14    1
    16    12    14    2
