@<TRIPOS>MOLECULE
2zpa_ADP_A_1.pdb
 27 29 0 0 0
SMALL
GASTEIGER

@<TRIPOS>ATOM
      1  PB        34.9740   77.5110  110.4480 P.3   800  ADP800      0.5373
      2  O1B       35.7290   77.5280  111.7030 O.3   800  ADP800     -0.1143
      3  O2B       35.3130   76.2470  109.5390 O.2   800  ADP800     -0.2221
      4  O3B       33.4400   77.5120  110.8370 O.3   800  ADP800     -0.1143
      5  PA        36.7610   79.1900  109.4150 P.3   800  ADP800      0.2231
      6  O1A       36.9980   80.3570  110.2740 O.3   800  ADP800     -0.4370
      7  O2A       37.8270   78.1790  110.0180 O.2   800  ADP800     -0.5169
      8  O3A       35.1910   78.8980  109.6340 O.3   800  ADP800     -0.2261
      9  O5'       37.2610   79.6380  107.9930 O.3   800  ADP800     -0.3111
     10  C5'       36.3040   80.3680  107.2320 C.3   800  ADP800      0.1813
     11  C4'       37.0510   80.8530  105.9640 C.3   800  ADP800      0.1821
     12  O4'       37.0400   82.2670  105.7520 O.3   800  ADP800     -0.3135
     13  C3'       38.5350   80.4210  105.9560 C.3   800  ADP800      0.2184
     14  O3'       39.0190   80.2870  104.6330 O.3   800  ADP800     -0.2174
     15  C2'       39.1550   81.6250  106.7440 C.3   800  ADP800      0.2570
     16  O2'       40.5450   81.8010  106.4680 O.3   800  ADP800     -0.2130
     17  C1'       38.3250   82.8110  106.1620 C.3   800  ADP800      0.3186
     18  N9        38.0010   83.8840  107.1020 N.pl3 800  ADP800     -0.1439
     19  C8        37.2960   83.7700  108.2660 C.3   800  ADP800      0.3377
     20  N7        37.1730   84.9210  108.8380 N.2   800  ADP800     -0.2095
     21  C5        37.7860   85.8560  108.0860 C.2   800  ADP800      0.2526
     22  C6        37.9750   87.2540  108.1900 C.2   800  ADP800      0.4393
     23  N6        37.4560   87.9370  109.2770 N.pl3 800  ADP800      0.2180
     24  N1        38.6610   87.8940  107.2210 N.2   800  ADP800      0.0021
     25  C2        39.1620   87.2370  106.1660 C.3   800  ADP800      0.5254
     26  N3        39.0080   85.9190  106.0250 N.2   800  ADP800     -0.0055
     27  C4        38.3310   85.1980  106.9540 C.2   800  ADP800      0.3518
@<TRIPOS>BOND
     1    14    13    1
     2    12    11    1
     3    12    17    1
     4    13    11    1
     5    13    15    1
     6    11    10    1
     7    26    25    1
     8    26    27    2
     9    17    15    1
    10    17    18    1
    11    25    24    1
    12    16    15    1
    13    27    18    1
    14    27    21    1
    15    18    19    1
    16    24    22    2
    17    10     9    1
    18     9     5    1
    19    21    22    1
    20    21    20    2
    21    22    23    1
    22    19    20    1
    23     5     8    1
    24     5     7    2
    25     5     6    1
    26     3     1    2
    27     8     1    1
    28     1     4    1
    29     1     2    1
