@<TRIPOS>MOLECULE
2zpn_III_E_1.pdb
 41 42 0 0 0
SMALL
GASTEIGER

@<TRIPOS>ATOM
      1  N         -7.4860    6.5270   -2.9810 N.3     1  TRP1       -0.1227
      2  CA        -8.8970    6.1460   -2.6800 C.3     1  TRP1        0.1734
      3  C         -8.9770    5.1690   -1.5290 C.2     1  TRP1        0.2595
      4  O         -8.0200    4.4580   -1.2290 O.2     1  TRP1       -0.2718
      5  CB        -9.5550    5.4530   -3.8680 C.3     1  TRP1        0.0527
      6  CG        -9.7060    6.2670   -5.0750 C.2     1  TRP1       -0.0139
      7  CD1       -8.7530    6.5360   -6.0040 C.2     1  TRP1        0.0907
      8  CD2      -10.9000    6.9220   -5.5130 C.3     1  TRP1        0.0819
      9  NE1       -9.2770    7.3220   -7.0050 N.2     1  TRP1       -0.2482
     10  CE2      -10.5910    7.5730   -6.7270 C.2     1  TRP1        0.0665
     11  CE3      -12.1990    7.0210   -4.9980 C.2     1  TRP1       -0.0164
     12  CZ2      -11.5340    8.3130   -7.4330 C.2     1  TRP1        0.0153
     13  CZ3      -13.1370    7.7560   -5.7010 C.2     1  TRP1       -0.0038
     14  CH2      -12.7990    8.3920   -6.9060 C.2     1  TRP1        0.0009
     15  N        -10.1340    5.1310   -0.8890 N.am    2  GLU2       -0.1965
     16  CA       -10.3440    4.1850    0.1780 C.3     2  GLU2        0.1733
     17  C        -11.5400    3.3060   -0.1630 C.2     2  GLU2        0.2616
     18  O        -12.6430    3.7860   -0.4320 O.2     2  GLU2       -0.2715
     19  CB       -10.5780    4.8720    1.5140 C.3     2  GLU2        0.0429
     20  CG       -10.8880    3.8500    2.5850 C.3     2  GLU2        0.1163
     21  CD       -10.5030    4.2950    3.9670 C.2     2  GLU2        0.3649
     22  OE1      -11.0380    5.3180    4.4330 O.co2   2  GLU2       -0.2457
     23  OE2       -9.6670    3.6150    4.5880 O.co2   2  GLU2       -0.2457
     24  N        -11.3050    2.0080   -0.1840 N.am    3  GLU3       -0.1963
     25  CA       -12.3620    1.0720   -0.4680 C.3     3  GLU3        0.1733
     26  C        -13.1020    0.8350    0.8410 C.2     3  GLU3        0.2617
     27  O        -12.5200    0.3440    1.8040 O.2     3  GLU3       -0.2715
     28  CB       -11.7730   -0.2420   -0.9780 C.3     3  GLU3        0.0429
     29  CG       -12.7450   -1.3880   -0.9010 C.3     3  GLU3        0.1163
     30  CD       -13.9490   -1.1480   -1.7640 C.2     3  GLU3        0.3649
     31  OE1      -15.0650   -1.4970   -1.3420 O.co2   3  GLU3       -0.2457
     32  OE2      -13.7780   -0.6100   -2.8740 O.co2   3  GLU3       -0.2457
     33  N        -14.3730    1.2080    0.8950 N.am    4  LEU4       -0.1942
     34  CA       -15.1510    0.9800    2.1010 C.3     4  LEU4        0.1978
     35  C        -15.9330   -0.2970    1.8580 C.2     4  LEU4        0.3842
     36  O        -15.8350   -0.8130    0.7300 O.co2   4  LEU4       -0.2437
     37  CB       -16.1170    2.1340    2.3590 C.3     4  LEU4        0.0333
     38  CG       -15.5390    3.5480    2.3500 C.3     4  LEU4        0.0023
     39  CD1      -16.6270    4.5190    2.7900 C.3     4  LEU4        0.0001
     40  CD2      -14.3360    3.6360    3.2680 C.3     4  LEU4        0.0001
     41  OXT      -16.6310   -0.7670    2.7770 O.co2   4  LEU4       -0.2437
@<TRIPOS>BOND
     1    12    14    2
     2    12    10    1
     3     9    10    2
     4     9     7    1
     5    14    13    1
     6    10     8    1
     7     7     6    2
     8    13    11    2
     9     8     6    1
    10     8    11    1
    11     6     5    1
    12     5     2    1
    13     1     2    1
    14    32    30   ar
    15     2     3    1
    16    30    31   ar
    17    30    29    1
    18     3     4    2
    19     3    15   am
    20    28    29    1
    21    28    25    1
    22    15    16    1
    23    25    24    1
    24    25    26    1
    25    18    17    2
    26    24    17   am
    27    17    16    1
    28    16    19    1
    29    36    35   ar
    30    26    33   am
    31    26    27    2
    32    33    34    1
    33    19    20    1
    34    35    34    1
    35    35    41   ar
    36    34    37    1
    37    38    37    1
    38    38    39    1
    39    38    40    1
    40    20    21    1
    41    21    22   ar
    42    21    23   ar
