@<TRIPOS>MOLECULE
2zpt_A3P_X_1.pdb
 27 29 0 0 0
SMALL
GASTEIGER

@<TRIPOS>ATOM
      1  P1        54.5120   -1.1750   21.3440 P.3   301  A3P301      0.5327
      2  O1P       54.9580   -2.4210   20.6160 O.2   301  A3P301     -0.2224
      3  O2P       54.2070   -1.4150   22.8060 O.3   301  A3P301     -0.1145
      4  O3P       55.4230    0.0090   21.1150 O.3   301  A3P301     -0.1145
      5  P2        48.7730   -1.7410   16.4240 P.3   301  A3P301      0.5327
      6  O4P       48.6960   -0.6770   15.3500 O.2   301  A3P301     -0.2224
      7  O5P       49.3190   -3.0600   15.9530 O.3   301  A3P301     -0.1145
      8  O6P       47.5200   -1.8700   17.2590 O.3   301  A3P301     -0.1145
      9  O5'       49.8580   -1.0960   17.4220 O.3   301  A3P301     -0.2675
     10  C5'       50.3620   -1.8280   18.5350 C.3   301  A3P301      0.1859
     11  C4'       51.1430   -0.8450   19.3990 C.3   301  A3P301      0.1796
     12  O4'       50.2420    0.0140   20.1150 O.3   301  A3P301     -0.3136
     13  C3'       51.9940   -1.5420   20.4530 C.3   301  A3P301      0.1928
     14  O3'       53.1210   -0.6820   20.6790 O.3   301  A3P301     -0.2673
     15  C2'       51.0410   -1.5560   21.6330 C.3   301  A3P301      0.2543
     16  O2'       51.6160   -1.8220   22.9150 O.3   301  A3P301     -0.2131
     17  C1'       50.4570   -0.1540   21.5100 C.3   301  A3P301      0.3185
     18  N9        49.1790    0.0200   22.2130 N.pl3 301  A3P301     -0.1439
     19  C8        48.0820   -0.7700   22.1700 C.3   301  A3P301      0.3377
     20  N7        47.0870   -0.2850   22.9450 N.2   301  A3P301     -0.2095
     21  C5        47.5780    0.8380   23.4860 C.2   301  A3P301      0.2526
     22  C6        47.0560    1.8370   24.4130 C.2   301  A3P301      0.4393
     23  N6        45.8160    1.7120   24.9120 N.pl3 301  A3P301      0.2180
     24  N1        47.8500    2.8640   24.7540 N.2   301  A3P301      0.0021
     25  C2        49.0990    2.9820   24.2640 C.3   301  A3P301      0.5254
     26  N3        49.6630    2.1190   23.3960 N.2   301  A3P301     -0.0055
     27  C4        48.9370    1.0460   23.0050 C.2   301  A3P301      0.3518
@<TRIPOS>BOND
     1     6     5    2
     2     7     5    1
     3     5     8    1
     4     5     9    1
     5     9    10    1
     6    10    11    1
     7    11    12    1
     8    11    13    1
     9    12    17    1
    10    13    14    1
    11    13    15    1
    12     2     1    2
    13    14     1    1
    14     4     1    1
    15     1     3    1
    16    17    15    1
    17    17    18    1
    18    15    16    1
    19    19    18    1
    20    19    20    1
    21    18    27    1
    22    20    21    2
    23    27    26    2
    24    27    21    1
    25    26    25    1
    26    21    22    1
    27    25    24    1
    28    22    24    2
    29    22    23    1
