@<TRIPOS>MOLECULE
2zpu_PDD_A_1.pdb
 21 21 0 0 0
SMALL
GASTEIGER

@<TRIPOS>ATOM
      1  N         11.9970   -3.3110   15.0240 N.2   350  PDD350     -0.2593
      2  N1        16.9760   -2.8260   16.8570 N.ar  350  PDD350     -0.2452
      3  C2        15.9080   -3.3320   17.6260 C.ar  350  PDD350      0.0981
      4  C2A       16.1150   -3.6710   19.0640 C.3   350  PDD350      0.0555
      5  C3        14.5940   -3.5070   16.9490 C.ar  350  PDD350      0.2103
      6  O3A       13.4640   -3.9760   17.5190 O.3   350  PDD350     -0.2853
      7  C4        14.5210   -3.1190   15.4710 C.ar  350  PDD350      0.0587
      8  C4A       13.2520   -3.2470   14.6720 C.2   350  PDD350      0.0967
      9  C5        15.6910   -2.6070   14.7790 C.ar  350  PDD350      0.0316
     10  C5A       15.6410   -2.2210   13.3070 C.3   350  PDD350      0.1819
     11  OP4       14.7810   -1.1270   12.9360 O.3   350  PDD350     -0.2653
     12  P         14.3220   -0.8850   11.6320 P.3   350  PDD350      0.5329
     13  OP1       13.3890   -2.0350   11.3540 O.3   350  PDD350     -0.1145
     14  OP2       13.5510    0.3000   11.7120 O.3   350  PDD350     -0.1145
     15  OP3       15.1030   -0.8300   10.4830 O.2   350  PDD350     -0.2224
     16  C6        16.9380   -2.4640   15.5060 C.ar  350  PDD350      0.0968
     17  CA        10.7710   -3.4300   14.2120 C.3   350  PDD350      0.2057
     18  CB        10.3830   -2.1290   13.5660 C.3   350  PDD350      0.0385
     19  C          9.5490   -3.8690   15.1430 C.2   350  PDD350      0.3866
     20  O          9.7060   -4.0390   16.3470 O.co2 350  PDD350     -0.2435
     21  OXT        8.4100   -4.0470   14.6800 O.co2 350  PDD350     -0.2435
@<TRIPOS>BOND
     1    15    12    2
     2    13    12    1
     3    12    14    1
     4    12    11    1
     5    11    10    1
     6    10     9    1
     7    18    17    1
     8    17     1    1
     9    17    19    1
    10     8     1    2
    11     8     7    1
    12    21    19   ar
    13     9     7   ar
    14     9    16   ar
    15    19    20   ar
    16     7     5   ar
    17    16     2   ar
    18     2     3   ar
    19     5     6    1
    20     5     3   ar
    21     3     4    1
