@<TRIPOS>MOLECULE
2zq0_ACR_A_1.pdb
 44 47 0 0 0
SMALL
GASTEIGER

@<TRIPOS>ATOM
      1  C1A       31.8660   51.7960   36.1020 C.3   801  ACR801      0.1273
      2  C2A       32.3290   50.6950   35.0560 C.3   801  ACR801      0.2049
      3  C3A       31.2340   49.6430   34.6820 C.3   801  ACR801      0.2179
      4  C4A       30.7630   48.8510   35.9860 C.3   801  ACR801      0.2053
      5  C5A       30.8060   49.6760   37.3120 C.2   801  ACR801      0.0180
      6  C6A       30.3440   48.9850   38.5690 C.3   801  ACR801      0.2066
      7  C7A       31.2950   51.0120   37.3460 C.2   801  ACR801     -0.0100
      8  O2A       32.8230   51.4420   33.9640 O.3   801  ACR801     -0.2184
      9  O3A       31.8060   48.8000   33.7360 O.3   801  ACR801     -0.2172
     10  O4A       29.4940   48.3220   35.6130 O.3   801  ACR801     -0.2157
     11  O6A       31.1980   48.1790   39.3810 O.3   801  ACR801     -0.2155
     12  C1B       29.0210   56.2950   37.2250 C.3   801  ACR801      0.2694
     13  C2B       30.5550   56.2750   37.1420 C.3   801  ACR801      0.2394
     14  C3B       31.0260   55.2620   36.0780 C.3   801  ACR801      0.2054
     15  C4B       30.4810   53.8540   36.4800 C.3   801  ACR801      0.1333
     16  C5B       28.9120   53.9460   36.4870 C.3   801  ACR801      0.1364
     17  C6B       28.2460   52.6130   36.8570 C.3   801  ACR801      0.0337
     18  N4B       30.9420   52.8350   35.5190 N.3   801  ACR801     -0.2087
     19  O2B       31.0140   57.6030   36.8580 O.3   801  ACR801     -0.2149
     20  O3B       32.4550   55.2690   36.0380 O.3   801  ACR801     -0.2186
     21  O5B       28.4780   54.9510   37.4680 O.3   801  ACR801     -0.3295
     22  C1C       25.6090   60.0580   35.7110 C.3   801  ACR801      0.2695
     23  C2C       27.1160   60.3990   35.8020 C.3   801  ACR801      0.2404
     24  C3C       27.9640   59.1700   35.4410 C.3   801  ACR801      0.2167
     25  C4C       27.6160   58.0150   36.3960 C.3   801  ACR801      0.1804
     26  C5C       26.0850   57.6920   36.2290 C.3   801  ACR801      0.1803
     27  C6C       25.6350   56.5440   37.1520 C.3   801  ACR801      0.2141
     28  O2C       27.4090   61.4990   34.9190 O.3   801  ACR801     -0.2149
     29  O3C       29.3520   59.5030   35.5650 O.3   801  ACR801     -0.2175
     30  O4C       28.4270   56.8750   36.0530 O.3   801  ACR801     -0.3257
     31  O5C       25.2860   58.9000   36.5650 O.3   801  ACR801     -0.3257
     32  O6C       25.8610   56.8940   38.5250 O.3   801  ACR801     -0.2176
     33  C1D       21.3960   60.9040   32.5120 C.3   801  ACR801      0.3023
     34  C2D       22.3500   62.0350   33.0190 C.3   801  ACR801      0.2433
     35  C3D       23.7820   61.4930   33.1910 C.3   801  ACR801      0.2168
     36  C4D       23.7770   60.3200   34.1850 C.3   801  ACR801      0.1804
     37  C5D       22.8020   59.2030   33.6580 C.3   801  ACR801      0.1804
     38  C6D       22.6960   58.0340   34.6600 C.3   801  ACR801      0.2141
     39  O1D       21.7710   60.4620   31.2040 O.3   801  ACR801     -0.1869
     40  O2D       22.3540   63.1370   32.0900 O.3   801  ACR801     -0.2148
     41  O3D       24.6510   62.5340   33.6660 O.3   801  ACR801     -0.2175
     42  O4D       25.1440   59.8410   34.3510 O.3   801  ACR801     -0.3257
     43  O5D       21.4360   59.7650   33.4630 O.3   801  ACR801     -0.3237
     44  O6D       22.0770   58.4580   35.8830 O.3   801  ACR801     -0.2176
@<TRIPOS>BOND
     1    39    33    1
     2    40    34    1
     3    33    34    1
     4    33    43    1
     5    34    35    1
     6    35    41    1
     7    35    36    1
     8    43    37    1
     9    37    36    1
    10    37    38    1
    11     9     3    1
    12     8     2    1
    13    36    42    1
    14    42    22    1
    15    38    44    1
    16     3     2    1
    17     3     4    1
    18    28    23    1
    19     2     1    1
    20    24    29    1
    21    24    23    1
    22    24    25    1
    23    18     1    1
    24    18    15    1
    25    10     4    1
    26    22    23    1
    27    22    31    1
    28     4     5    1
    29    20    14    1
    30    30    25    1
    31    30    12    1
    32    14    15    1
    33    14    13    1
    34     1     7    1
    35    26    25    1
    36    26    31    1
    37    26    27    1
    38    15    16    1
    39    16    17    1
    40    16    21    1
    41    19    13    1
    42    13    12    1
    43    27    32    1
    44    12    21    1
    45     5     7    2
    46     5     6    1
    47     6    11    1
