@<TRIPOS>MOLECULE
2zq1_11U_A_1.pdb
 28 30 0 0 0
SMALL
GASTEIGER

@<TRIPOS>ATOM
      1  C14      -28.5500    0.6150   17.0920 C.2   501  11U501      0.2437
      2  O32      -27.4060    0.4690   17.5260 O.2   501  11U501     -0.2733
      3  C15      -29.7300    0.8660   17.9930 C.3   501  11U501      0.1737
      4  N5       -29.5380    0.3620   19.3210 N.3   501  11U501     -0.2100
      5  C16      -29.4990   -1.0840   19.4450 C.3   501  11U501      0.0733
      6  C21      -29.3690   -1.5990   20.8510 C.3   501  11U501      0.0174
      7  C20      -29.4640   -3.1180   20.9490 C.3   501  11U501      0.0014
      8  C19      -30.7720   -3.6020   20.3400 C.3   501  11U501      0.0001
      9  C18      -30.8470   -3.1540   18.8960 C.3   501  11U501      0.0014
     10  C17      -30.7430   -1.6390   18.7950 C.3   501  11U501      0.0174
     11  N1       -28.8100    0.5730   15.7780 N.am  501  11U501     -0.2718
     12  C2       -27.8060    0.2630   14.7160 C.3   501  11U501      0.1535
     13  C7       -26.6900    1.2320   14.5650 C.2   501  11U501      0.2598
     14  O22      -26.9130    2.3890   14.8910 O.2   501  11U501     -0.2715
     15  C3       -28.6960    0.2510   13.4830 C.3   501  11U501      0.0310
     16  C4       -29.9140    1.1260   13.6900 C.3   501  11U501      0.0237
     17  C5       -30.1340    0.9520   15.1860 C.3   501  11U501      0.0939
     18  N23      -25.5260    0.9130   14.1420 N.am  501  11U501     -0.1992
     19  C24      -24.4520    1.7750   13.8220 C.3   501  11U501      0.1415
     20  C25      -23.3300    1.6090   14.7910 C.ar  501  11U501     -0.0006
     21  C26      -22.1650    1.0140   14.3150 C.ar  501  11U501     -0.0023
     22  C27      -21.0730    0.8250   15.1600 C.ar  501  11U501      0.0077
     23  C28      -21.0980    1.2150   16.4960 C.ar  501  11U501      0.0975
     24  C31      -19.9230    1.0150   17.4160 C.2   501  11U501      0.4766
     25  N49      -19.7540    1.8620   18.4450 N.pl3 501  11U501      0.2047
     26  N48      -19.0720    0.0060   17.2020 N.pl3 501  11U501      0.2047
     27  C29      -22.2710    1.8000   16.9210 C.ar  501  11U501      0.0077
     28  C30      -23.3880    2.0090   16.1110 C.ar  501  11U501     -0.0023
@<TRIPOS>BOND
     1    15    16    1
     2    15    12    1
     3    16    17    1
     4    19    18    1
     5    19    20    1
     6    18    13   am
     7    21    20   ar
     8    21    22   ar
     9    13    12    1
    10    13    14    2
    11    12    11    1
    12    20    28   ar
    13    22    23   ar
    14    17    11    1
    15    11     1   am
    16    28    27   ar
    17    23    27   ar
    18    23    24    1
    19     1     2    2
    20     1     3    1
    21    26    24    2
    22    24    25    1
    23     3     4    1
    24    10     9    1
    25    10     5    1
    26     9     8    1
    27     4     5    1
    28     5     6    1
    29     8     7    1
    30     6     7    1
