@<TRIPOS>MOLECULE
2zq2_13U_A_1.pdb
 30 32 0 0 0
SMALL
GASTEIGER

@<TRIPOS>ATOM
      1  C14       18.1440   -9.2160   12.0880 C.2   501  13U501      0.2437
      2  O32       18.2090   -8.3550   11.1860 O.2   501  13U501     -0.2733
      3  C5        19.1360  -10.3680   12.3490 C.3   501  13U501      0.1740
      4  N21       19.6170  -11.1920   11.2710 N.3   501  13U501     -0.2055
      5  C49       18.9480  -12.3840   10.7680 C.3   501  13U501      0.0949
      6  C48       17.4640  -12.2730   11.0760 C.3   501  13U501      0.0219
      7  C47       16.4050  -12.6450   10.0700 C.3   501  13U501      0.0018
      8  C46       15.8690  -13.9960    9.6210 C.3   501  13U501      0.0004
      9  C45       16.7480  -14.8180    8.6800 C.3   501  13U501      0.0047
     10  C44       18.1820  -14.8970    9.1880 C.3   501  13U501      0.0257
     11  C43       19.2410  -13.9450    8.6070 C.2   501  13U501     -0.0293
     12  C42       19.5170  -12.6340    9.3730 C.2   501  13U501     -0.0137
     13  N1        17.0770   -9.1690   12.9290 N.am  501  13U501     -0.2718
     14  C1        16.1240   -8.1230   12.8880 C.3   501  13U501      0.1535
     15  C7        16.6770   -6.7160   12.8730 C.2   501  13U501      0.2598
     16  O22       17.6510   -6.4370   13.5740 O.2   501  13U501     -0.2715
     17  C2        15.2700   -8.3010   14.1440 C.3   501  13U501      0.0310
     18  C3        15.6350   -9.6200   14.8050 C.3   501  13U501      0.0237
     19  C4        16.9800   -9.9810   14.1930 C.3   501  13U501      0.0939
     20  N23       16.0940   -5.8290   12.1060 N.am  501  13U501     -0.1992
     21  C24       16.4830   -4.4560   12.0400 C.3   501  13U501      0.1415
     22  C25       17.1400   -4.2180   10.7210 C.ar  501  13U501     -0.0006
     23  C30       18.2830   -4.9340   10.3640 C.ar  501  13U501     -0.0023
     24  C29       18.8740   -4.7050    9.1490 C.ar  501  13U501      0.0077
     25  C28       18.3670   -3.7720    8.2440 C.ar  501  13U501      0.0975
     26  C21       19.0080   -3.5050    6.8910 C.2   501  13U501      0.4766
     27  N46       18.1940   -3.1330    5.9020 N.pl3 501  13U501      0.2047
     28  N47       20.3180   -3.6390    6.7170 N.pl3 501  13U501      0.2047
     29  C27       17.2220   -3.0650    8.6120 C.ar  501  13U501      0.0077
     30  C26       16.6200   -3.2920    9.8430 C.ar  501  13U501     -0.0023
@<TRIPOS>BOND
     1    27    26    2
     2    28    26    1
     3    26    25    1
     4    25    29   ar
     5    25    24   ar
     6    11    10    1
     7    11    12    2
     8    29    30   ar
     9     9    10    1
    10     9     8    1
    11    24    23   ar
    12    12     5    1
    13     8     7    1
    14    30    22   ar
    15     7     6    1
    16    23    22   ar
    17    22    21    1
    18     5     6    1
    19     5     4    1
    20     2     1    2
    21     4     3    1
    22    21    20    1
    23     1     3    1
    24     1    13   am
    25    20    15   am
    26    15    14    1
    27    15    16    2
    28    14    13    1
    29    14    17    1
    30    13    19    1
    31    17    18    1
    32    19    18    1
