@<TRIPOS>MOLECULE
2zq9_CLS_A_1.pdb
 26 28 0 0 0
SMALL
GASTEIGER

@<TRIPOS>ATOM
      1  S1        33.0450   -7.0000   21.8170 S.3    11  CLS11      -0.1140
      2  C2        33.3040   -8.2570   20.5210 C.3    11  CLS11       0.0862
      3  C3        32.0260   -8.8060   19.8840 C.2    11  CLS11       0.0301
      4  C3'       32.1810  -10.0050   19.1730 C.3    11  CLS11       0.2331
      5  O20       32.0120  -11.2470   19.8650 O.3    11  CLS11      -0.4438
      6  C21       33.1120  -12.0160   20.0540 C.2    11  CLS11       0.3179
      7  O22       34.2430  -11.5280   20.0030 O.2    11  CLS11      -0.2501
      8  C23       32.9250  -13.2950   20.5700 C.3    11  CLS11       0.1212
      9  C4        30.8330   -8.0940   19.8280 C.2    11  CLS11       0.1314
     10  C4'       29.5470   -8.5850   19.1430 C.2    11  CLS11       0.4007
     11  O4A       29.2560   -9.7980   19.1610 O.co2  11  CLS11      -0.2392
     12  O4B       28.8860   -7.7150   18.5210 O.co2  11  CLS11      -0.2392
     13  N5        30.7060   -6.8830   20.4990 N.am   11  CLS11      -0.2420
     14  C6        31.8580   -6.0170   20.8580 C.3    11  CLS11       0.1570
     15  C7        30.8610   -5.1560   21.6550 C.3    11  CLS11       0.2002
     16  C8        29.8590   -6.2620   21.3210 C.2    11  CLS11       0.2526
     17  O9        28.6950   -6.5340   21.5890 O.2    11  CLS11      -0.2726
     18  N10       31.0560   -5.0070   23.1180 N.am   11  CLS11      -0.1948
     19  C11       31.1070   -3.7900   23.6720 C.2    11  CLS11       0.2468
     20  O12       31.0050   -2.7440   23.0400 O.2    11  CLS11      -0.2729
     21  C13       31.2740   -3.7650   25.1850 C.3    11  CLS11       0.1196
     22  C14       32.5150   -3.0060   25.6270 C.ar   11  CLS11       0.0165
     23  C15       33.6760   -3.4910   26.0940 C.ar   11  CLS11       0.0032
     24  C16       34.5880   -2.5430   26.4090 C.ar   11  CLS11       0.0072
     25  C17       34.1980   -1.2750   26.2200 C.ar   11  CLS11       0.0351
     26  S19       32.6160   -1.3210   25.6260 S.2    11  CLS11      -0.0903
@<TRIPOS>BOND
     1    12    10   ar
     2    10    11   ar
     3    10     9    1
     4     4     5    1
     5     4     3    1
     6     9     3    2
     7     9    13    1
     8     5     6    1
     9     3     2    1
    10     7     6    2
    11     6     8    1
    12    13    14    1
    13    13    16   am
    14     2     1    1
    15    14    15    1
    16    14     1    1
    17    16    17    2
    18    16    15    1
    19    15    18    1
    20    20    19    2
    21    18    19   am
    22    19    21    1
    23    21    22    1
    24    26    22   ar
    25    26    25   ar
    26    22    23   ar
    27    23    24   ar
    28    25    24   ar
