@<TRIPOS>MOLECULE
2zq9_CEO_A_1.pdb
 22 23 0 0 0
SMALL
GASTEIGER

@<TRIPOS>ATOM
      1  S1        41.0250  -17.2740   12.3210 S.3   301  CEO301     -0.1145
      2  C2        39.9170  -16.0330   13.0720 C.3   301  CEO301      0.0656
      3  C3        38.4930  -16.5560   13.0630 C.3   301  CEO301      0.0574
      4  C3'       37.6870  -16.1990   14.1460 C.3   301  CEO301      0.0074
      5  C4        38.0010  -17.3970   12.0610 C.2   301  CEO301      0.1345
      6  C4'       36.4960  -17.3550   11.8760 C.2   301  CEO301      0.4007
      7  O4A       35.9920  -18.0810   11.0310 O.co2 301  CEO301     -0.2392
      8  O4B       35.8730  -16.3980   12.3870 O.co2 301  CEO301     -0.2392
      9  N5        38.6730  -17.5180   10.9230 N.2   301  CEO301     -0.2568
     10  C6        40.1410  -17.5110   10.7550 C.3   301  CEO301      0.1777
     11  C7        40.5500  -16.5090    9.6380 C.3   301  CEO301      0.1920
     12  C8        39.3640  -16.4410    8.7220 C.2   301  CEO301      0.2316
     13  O9        38.5770  -15.5060    8.6720 O.2   301  CEO301     -0.2863
     14  N10       40.8930  -15.1960   10.1530 N.am  301  CEO301     -0.1959
     15  C11       42.1520  -14.8720   10.4510 C.2   301  CEO301      0.2468
     16  O12       43.1050  -15.6220   10.2630 O.2   301  CEO301     -0.2729
     17  C13       42.3260  -13.5010   11.1040 C.3   301  CEO301      0.1196
     18  C14       43.3000  -12.5530   10.4370 C.ar  301  CEO301      0.0165
     19  C15       44.4110  -12.7690    9.7310 C.ar  301  CEO301      0.0032
     20  C16       45.0170  -11.6370    9.3020 C.ar  301  CEO301      0.0072
     21  C17       44.4190  -10.4850    9.6590 C.ar  301  CEO301      0.0351
     22  S19       43.0460  -10.8980   10.5580 S.2   301  CEO301     -0.0903
@<TRIPOS>BOND
     1    13    12    2
     2    12    11    1
     3    20    21   ar
     4    20    19   ar
     5    11    14    1
     6    11    10    1
     7    21    22   ar
     8    19    18   ar
     9    14    15   am
    10    16    15    2
    11    18    22   ar
    12    18    17    1
    13    15    17    1
    14    10     9    1
    15    10     1    1
    16     9     5    2
    17     7     6   ar
    18     6     5    1
    19     6     8   ar
    20     5     3    1
    21     1     2    1
    22     3     2    1
    23     3     4    1
