@<TRIPOS>MOLECULE
2zqa_PCZ_A_1.pdb
 26 27 0 0 0
SMALL
GASTEIGER

@<TRIPOS>ATOM
      1  O1        38.6200  -15.4960    8.6410 O.2   301  PCZ301     -0.2863
      2  C1        39.4170  -16.4130    8.7080 C.2   301  PCZ301      0.2316
      3  C2        40.5580  -16.4750    9.6920 C.3   301  PCZ301      0.1923
      4  C3        40.1270  -17.4690   10.7360 C.3   301  PCZ301      0.1777
      5  C5        38.6270  -18.3010   13.1470 C.3   301  PCZ301      0.0574
      6  C51       38.0550  -19.1600   14.1100 C.3   301  PCZ301      0.0074
      7  C52       40.1390  -18.5780   13.1590 C.3   301  PCZ301      0.0656
      8  C6        38.0920  -17.5300   12.0350 C.2   301  PCZ301      0.1345
      9  C61       36.5970  -17.4500   11.9360 C.2   301  PCZ301      0.4007
     10  O62       36.0620  -16.7000   12.7700 O.co2 301  PCZ301     -0.2392
     11  O63       36.0730  -18.1020   11.0480 O.co2 301  PCZ301     -0.2392
     12  N7        38.7240  -17.3730   10.9360 N.2   301  PCZ301     -0.2568
     13  N8        40.8810  -15.1580   10.1760 N.am  301  PCZ301     -0.1910
     14  C9        42.1330  -14.8180   10.4930 C.2   301  PCZ301      0.2884
     15  O91       43.0880  -15.5800   10.3970 O.2   301  PCZ301     -0.2665
     16  C10       42.3680  -13.4090   10.9910 C.2   301  PCZ301      0.2002
     17  N11       43.2920  -12.5930   10.5160 N.2   301  PCZ301     -0.0759
     18  O12       44.1300  -12.9060    9.5140 O.2   301  PCZ301     -0.3729
     19  C13       44.8080  -11.6930    9.1650 C.3   301  PCZ301      0.2885
     20  C14       41.5920  -12.8960   11.9610 C.2   301  PCZ301      0.1478
     21  C15       41.2790  -11.6010   11.9580 C.3   301  PCZ301      0.1266
     22  S16       40.3460  -11.3920   13.2980 S.3   301  PCZ301     -0.0564
     23  C17       40.4290  -12.9510   13.8020 C.2   301  PCZ301      0.2461
     24  N18       41.1520  -13.6500   12.9630 N.2   301  PCZ301     -0.3794
     25  N19       39.8780  -13.4560   14.8500 N.pl3 301  PCZ301     -0.0867
     26  S1        41.1300  -17.4430   12.2320 S.3   301  PCZ301     -0.1145
@<TRIPOS>BOND
     1     1     2    2
     2     2     3    1
     3    19    18    1
     4    18    17    1
     5     3    13    1
     6     3     4    1
     7    13    14   am
     8    15    14    2
     9    14    16    1
    10    17    16    2
    11     4    12    1
    12     4    26    1
    13    12     8    2
    14    16    20    1
    15    11     9   ar
    16     9     8    1
    17     9    10   ar
    18    21    20    1
    19    21    22    1
    20    20    24    2
    21     8     5    1
    22    26     7    1
    23    24    23    2
    24     5     7    1
    25     5     6    1
    26    22    23    1
    27    23    25    1
