@<TRIPOS>MOLECULE
2zqc_AZR_A_1.pdb
 28 28 0 0 0
SMALL
GASTEIGER

@<TRIPOS>ATOM
      1  C7        40.5200  -18.1600   11.6190 C.3   301  AZR301      0.0230
      2  S8        43.5710  -10.1590   10.5370 S.3   301  AZR301     -0.0564
      3  O9        38.3290  -15.4540    8.6260 O.2   301  AZR301     -0.2864
      4  O10       42.8410  -15.7580   10.4790 O.2   301  AZR301     -0.2665
      5  O11       41.1190  -14.7310   13.0350 O.2   301  AZR301     -0.3735
      6  N12       38.2900  -17.8030   10.6020 N.3   301  AZR301     -0.1187
      7  N13       40.6870  -15.1170   10.1460 N.am  301  AZR301     -0.1925
      8  N14       41.7790  -13.6190   12.6100 N.2   301  AZR301     -0.0757
      9  N15       43.6990  -12.6560    9.9130 N.2   301  AZR301     -0.3794
     10  N16       45.0830  -11.4750    8.7710 N.pl3 301  AZR301     -0.0867
     11  S17       36.9930  -17.7010   11.5860 S.3   301  AZR301     -0.1290
     12  C18       39.5490  -17.1520   11.0210 C.3   301  AZR301      0.1215
     13  C19       40.1870  -16.4460    9.8010 C.3   301  AZR301      0.1775
     14  C20       39.1310  -16.3730    8.7350 C.2   301  AZR301      0.2302
     15  C21       41.9300  -14.9390   10.5870 C.2   301  AZR301      0.2884
     16  C22       42.1560  -13.6450   11.3580 C.2   301  AZR301      0.2002
     17  C23       40.8930  -14.8000   14.4340 C.3   301  AZR301      0.2530
     18  C24       42.8100  -12.5310   10.8760 C.2   301  AZR301      0.1478
     19  C25       42.6150  -11.2540   11.3290 C.3   301  AZR301      0.1266
     20  C26       44.2080  -11.4670    9.6490 C.2   301  AZR301      0.2461
     21  C27       39.6800  -15.6810   14.7180 C.3   301  AZR301      0.0583
     22  C28       42.1230  -15.4200   15.1000 C.3   301  AZR301      0.0583
     23  C29       40.6510  -13.3890   15.0280 C.2   301  AZR301      0.4027
     24  O30       41.1800  -13.1410   16.1330 O.co2 301  AZR301     -0.2417
     25  O31       39.9350  -12.5890   14.3750 O.co2 301  AZR301     -0.2417
     26  O32       36.0000  -18.5150   10.8920 O.3   301  AZR301     -0.2919
     27  O33       36.6380  -16.2930   11.6650 O.3   301  AZR301     -0.2919
     28  O34       37.3190  -18.2480   12.8880 O.3   301  AZR301     -0.2919
@<TRIPOS>BOND
     1     3    14    2
     2    14    13    1
     3    10    20    1
     4    20     9    2
     5    20     2    1
     6    13     7    1
     7    13    12    1
     8     9    18    2
     9     7    15   am
    10     4    15    2
    11     2    19    1
    12    15    16    1
    13     6    12    1
    14     6    11    1
    15    18    19    1
    16    18    16    1
    17    26    11    1
    18    12     1    1
    19    16     8    2
    20    11    27    1
    21    11    28    1
    22     8     5    1
    23     5    17    1
    24    25    23   ar
    25    17    21    1
    26    17    23    1
    27    17    22    1
    28    23    24   ar
