@<TRIPOS>MOLECULE
2zqd_CAZ_A_1.pdb
 31 32 0 0 0
SMALL
GASTEIGER

@<TRIPOS>ATOM
      1  S1        41.0780  -17.4460   12.1510 S.3   301  CAZ301     -0.1145
      2  C2        40.0670  -18.6030   13.0960 C.3   301  CAZ301      0.0656
      3  C3        38.6050  -18.2530   13.0610 C.3   301  CAZ301      0.0574
      4  C3'       37.8530  -18.9580   13.9800 C.3   301  CAZ301      0.0074
      5  C4        38.0160  -17.5700   11.9860 C.2   301  CAZ301      0.1345
      6  C4'       36.5350  -17.4200   11.8210 C.2   301  CAZ301      0.4007
      7  O4A       36.0010  -16.4480   12.3560 O.co2 301  CAZ301     -0.2392
      8  O4B       35.9630  -18.2490   11.1080 O.co2 301  CAZ301     -0.2392
      9  N5        38.6490  -17.3700   10.8510 N.2   301  CAZ301     -0.2568
     10  C6        40.0940  -17.5240   10.6360 C.3   301  CAZ301      0.1777
     11  C7        40.5260  -16.4890    9.5970 C.3   301  CAZ301      0.1923
     12  C8        39.3620  -16.4250    8.6510 C.2   301  CAZ301      0.2316
     13  O9        38.5680  -15.4930    8.5880 O.2   301  CAZ301     -0.2863
     14  N10       40.8090  -15.1350   10.1130 N.am  301  CAZ301     -0.1910
     15  C11       42.0640  -14.8060   10.4460 C.2   301  CAZ301      0.2884
     16  O12       43.0360  -15.5590   10.3650 O.2   301  CAZ301     -0.2665
     17  C13       42.2840  -13.3720   10.9260 C.2   301  CAZ301      0.2002
     18  N16       41.8300  -13.0440   12.1220 N.2   301  CAZ301     -0.0757
     19  O17       40.9140  -13.8530   12.7290 O.2   301  CAZ301     -0.3735
     20  C18       41.0240  -13.8740   14.1460 C.3   301  CAZ301      0.2530
     21  C14       43.2400  -12.5330   10.3140 C.2   301  CAZ301      0.1478
     22  C15       44.2110  -12.9380    9.4730 C.3   301  CAZ301      0.1266
     23  S16       45.1440  -11.6060    8.9240 S.3   301  CAZ301     -0.0564
     24  C17       44.1920  -10.5230    9.8350 C.2   301  CAZ301      0.2461
     25  N18       44.3770   -9.2010    9.8740 N.pl3 301  CAZ301     -0.0867
     26  N19       43.2400  -11.1710   10.5180 N.2   301  CAZ301     -0.3794
     27  C19       42.3980  -14.4100   14.5890 C.3   301  CAZ301      0.0583
     28  C20       39.9020  -14.7210   14.7430 C.3   301  CAZ301      0.0583
     29  C21       40.8100  -12.4310   14.5960 C.2   301  CAZ301      0.4027
     30  O2A       41.5180  -12.0030   15.5470 O.co2 301  CAZ301     -0.2417
     31  O2B       39.9350  -11.7810   13.9640 O.co2 301  CAZ301     -0.2417
@<TRIPOS>BOND
     1    13    12    2
     2    12    11    1
     3    23    22    1
     4    23    24    1
     5    22    21    1
     6    11    14    1
     7    11    10    1
     8    24    25    1
     9    24    26    2
    10    14    15   am
    11    21    26    2
    12    21    17    1
    13    16    15    2
    14    15    17    1
    15    10     9    1
    16    10     1    1
    17     9     5    2
    18    17    18    2
    19     8     6   ar
    20     6     5    1
    21     6     7   ar
    22     5     3    1
    23    18    19    1
    24     1     2    1
    25    19    20    1
    26     3     2    1
    27     3     4    1
    28    31    29   ar
    29    20    27    1
    30    20    29    1
    31    20    28    1
    32    29    30   ar
