@<TRIPOS>MOLECULE
2zqj_HEM_A_1.pdb
 43 49 0 0 0
SMALL
GASTEIGER

@<TRIPOS>ATOM
      1  CHA       57.5930  -50.5890   27.0170 C.2   501  HEM501      0.0000
      2  CHB       55.6720  -52.5370   22.9640 C.2   501  HEM501      0.0000
      3  CHC       55.9980  -48.0530   20.7340 C.2   501  HEM501      0.0000
      4  CHD       58.2510  -46.2490   24.5420 C.2   501  HEM501      0.0000
      5  C1A       56.8730  -51.5160   26.2070 C.2   501  HEM501      0.0000
      6  C2A       56.5530  -52.9090   26.4570 C.2   501  HEM501      0.0000
      7  C3A       56.0300  -53.4660   25.2930 C.2   501  HEM501      0.0000
      8  C4A       55.9730  -52.3980   24.3470 C.2   501  HEM501      0.0000
      9  CMA       55.4110  -54.8300   25.0580 C.3   501  HEM501      0.0000
     10  CAA       56.7560  -53.5980   27.7830 C.3   501  HEM501      0.0000
     11  CBA       55.6600  -53.7180   28.8200 C.3   501  HEM501      0.0000
     12  CGA       56.1550  -54.4070   30.0700 C.2   501  HEM501      0.0000
     13  O1A       55.3420  -54.7360   30.9620 O.co2 501  HEM501      0.0000
     14  O2A       57.3770  -54.6250   30.1700 O.co2 501  HEM501      0.0000
     15  C1B       55.8140  -51.5220   21.9670 C.ar  501  HEM501      0.0000
     16  C2B       55.3960  -51.7040   20.6270 C.ar  501  HEM501      0.0000
     17  C3B       55.5540  -50.4790   19.9830 C.ar  501  HEM501      0.0000
     18  C4B       55.9500  -49.4790   20.9840 C.ar  501  HEM501      0.0000
     19  CMB       54.7780  -52.9950   20.1040 C.3   501  HEM501      0.0000
     20  CAB       55.3600  -50.3290   18.5810 C.2   501  HEM501      0.0000
     21  CBB       56.0150  -49.5550   17.6830 C.2   501  HEM501      0.0000
     22  C1C       56.5410  -46.9920   21.4860 C.1   501  HEM501      0.0000
     23  C2C       56.7480  -45.6200   21.1650 C.2   501  HEM501      0.0000
     24  C3C       57.4240  -45.0760   22.2640 C.2   501  HEM501      0.0000
     25  C4C       57.6620  -46.1460   23.2350 C.2   501  HEM501      0.0000
     26  CMC       56.5650  -45.0720   19.7840 C.3   501  HEM501      0.0000
     27  CAC       57.8950  -43.7990   22.3890 C.2   501  HEM501      0.0000
     28  CBC       57.1530  -42.6970   22.1210 C.2   501  HEM501      0.0000
     29  C1D       58.3760  -47.3460   25.4930 C.ar  501  HEM501      0.0000
     30  C2D       59.0970  -47.2650   26.7700 C.ar  501  HEM501      0.0000
     31  C3D       58.8620  -48.4140   27.4890 C.ar  501  HEM501      0.0000
     32  C4D       58.0410  -49.2630   26.6520 C.ar  501  HEM501      0.0000
     33  CMD       60.1510  -46.2320   27.1760 C.3   501  HEM501      0.0000
     34  CAD       59.4910  -48.8410   28.8200 C.3   501  HEM501      0.0000
     35  CBD       58.5500  -48.5370   29.9780 C.3   501  HEM501      0.0000
     36  CGD       58.9370  -49.2110   31.2870 C.2   501  HEM501      0.0000
     37  O1D       58.3390  -48.8730   32.3280 O.co2 501  HEM501      0.0000
     38  O2D       59.8260  -50.0860   31.2890 O.co2 501  HEM501      0.0000
     39  NA        56.5200  -51.2200   24.9070 N.2   501  HEM501      0.0000
     40  NB        56.2110  -50.1650   22.1980 N.ar  501  HEM501      0.0000
     41  NC        57.1090  -47.2350   22.6990 N.2   501  HEM501      0.0000
     42  ND        57.8140  -48.6420   25.4090 N.ar  501  HEM501      0.0000
     43 FE         56.9070  -49.5630   23.9680 Fe    501  HEM501      0.0000
@<TRIPOS>BOND
     1    21    20    2
     2    20    17    1
     3    26    23    1
     4    17    16   ar
     5    17    18   ar
     6    19    16    1
     7    16    15   ar
     8     3    18    1
     9     3    22    2
    10    18    40   ar
    11    23    22    1
    12    23    24    2
    13    22    41    2
    14    15    40   ar
    15    15     2    1
    16    28    27    2
    17    40    43    1
    18    24    27    1
    19    24    25    1
    20    41    25    2
    21     2     8    2
    22    25     4    1
    23    43    39    1
    24    43    42    1
    25     8    39    1
    26     8     7    1
    27     4    29    2
    28    39     5    2
    29     9     7    1
    30     7     6    2
    31    42    29   ar
    32    42    32   ar
    33    29    30   ar
    34     5     6    1
    35     5     1    1
    36     6    10    1
    37    32     1    2
    38    32    31   ar
    39    30    33    1
    40    30    31   ar
    41    31    34    1
    42    10    11    1
    43    34    35    1
    44    11    12    1
    45    35    36    1
    46    12    14   ar
    47    12    13   ar
    48    36    38   ar
    49    36    37   ar
