@<TRIPOS>MOLECULE
2zqn_GAL_A_1.pdb
 11 11 0 0 0
SMALL
GASTEIGER

@<TRIPOS>ATOM
      1  C1        11.8630   36.3640   44.3600 C.3   302  GAL302      0.1777
      2  C2        11.2250   35.4390   43.3140 C.3   302  GAL302      0.2141
      3  C3        11.8730   35.6680   41.9460 C.3   302  GAL302      0.2173
      4  C4        11.8440   37.1430   41.5840 C.3   302  GAL302      0.2142
      5  C5        12.5180   37.9510   42.7130 C.3   302  GAL302      0.1810
      6  C6        12.4830   39.4440   42.4130 C.3   302  GAL302      0.2141
      7  O2        11.3950   34.0880   43.6860 O.3   302  GAL302     -0.2176
      8  O3        11.1810   34.8940   40.9840 O.3   302  GAL302     -0.2175
      9  O4        10.4790   37.5470   41.4270 O.3   302  GAL302     -0.2176
     10  O5        11.8210   37.7100   43.9310 O.3   302  GAL302     -0.3481
     11  O6        12.9160   40.1800   43.5570 O.3   302  GAL302     -0.2176
@<TRIPOS>BOND
     1     8     3    1
     2     9     4    1
     3     4     3    1
     4     4     5    1
     5     3     2    1
     6     6     5    1
     7     6    11    1
     8     5    10    1
     9     2     7    1
    10     2     1    1
    11    10     1    1
