@<TRIPOS>MOLECULE
2zqo_NGA_A_1.pdb
 15 15 0 0 0
SMALL
GASTEIGER

@<TRIPOS>ATOM
      1  C1        42.6110   10.9620   17.7840 C.3   270  NGA270      0.2917
      2  C2        42.7500   10.5000   19.2320 C.3   270  NGA270      0.1871
      3  C3        41.3550   10.5140   19.8860 C.3   270  NGA270      0.2095
      4  C4        40.7470   11.9070   19.7730 C.3   270  NGA270      0.2136
      5  C5        40.7450   12.3240   18.2870 C.3   270  NGA270      0.1835
      6  C6        40.1520   13.6960   18.0310 C.3   270  NGA270      0.2142
      7  C7        44.5820    8.8690   19.2700 C.2   270  NGA270      0.2421
      8  C8        44.8810    7.4430   19.6220 C.3   270  NGA270      0.0964
      9  N2        43.2750    9.1590   19.2520 N.am  270  NGA270     -0.1991
     10  O1        43.8990   11.0650   17.1730 O.3   270  NGA270     -0.1879
     11  O3        41.4530   10.1100   21.2530 O.3   270  NGA270     -0.2183
     12  O4        41.5350   12.8210   20.5520 O.3   270  NGA270     -0.2176
     13  O5        42.0870   12.2820   17.8040 O.3   270  NGA270     -0.3242
     14  O6        40.0180   13.9200   16.6050 O.3   270  NGA270     -0.2176
     15  O7        45.4610    9.6820   18.9870 O.2   270  NGA270     -0.2733
@<TRIPOS>BOND
     1    14     6    1
     2    10     1    1
     3     1    13    1
     4     1     2    1
     5    13     5    1
     6     6     5    1
     7     5     4    1
     8    15     7    2
     9     2     9    1
    10     2     3    1
    11     9     7   am
    12     7     8    1
    13     4     3    1
    14     4    12    1
    15     3    11    1
