@<TRIPOS>MOLECULE
2zqx_HEM_A_1.pdb
 43 49 0 0 0
SMALL
GASTEIGER

@<TRIPOS>ATOM
      1  CHA       57.4400  -50.8050   26.9730 C.2   501  HEM501      0.0000
      2  CHB       55.5250  -52.8460   23.0400 C.2   501  HEM501      0.0000
      3  CHC       55.7610  -48.4840   20.7410 C.2   501  HEM501      0.0000
      4  CHD       58.0110  -46.5020   24.5210 C.2   501  HEM501      0.0000
      5  C1A       56.7370  -51.7550   26.1980 C.2   501  HEM501      0.0000
      6  C2A       56.4960  -53.1400   26.5490 C.2   501  HEM501      0.0000
      7  C3A       55.8820  -53.6730   25.4290 C.2   501  HEM501      0.0000
      8  C4A       55.8460  -52.6560   24.4120 C.2   501  HEM501      0.0000
      9  CMA       55.1790  -55.0410   25.3260 C.3   501  HEM501      0.0000
     10  CAA       56.7500  -53.8560   27.9110 C.3   501  HEM501      0.0000
     11  CBA       55.5630  -53.8190   28.9000 C.3   501  HEM501      0.0000
     12  CGA       55.8920  -54.4060   30.2730 C.2   501  HEM501      0.0000
     13  O1A       54.9620  -54.6120   31.0760 O.co2 501  HEM501      0.0000
     14  O2A       57.0770  -54.6550   30.5670 O.co2 501  HEM501      0.0000
     15  C1B       55.5530  -51.8580   22.0500 C.ar  501  HEM501      0.0000
     16  C2B       55.1250  -52.0770   20.6760 C.ar  501  HEM501      0.0000
     17  C3B       55.3140  -50.9010   19.9910 C.ar  501  HEM501      0.0000
     18  C4B       55.7260  -49.8900   20.9770 C.ar  501  HEM501      0.0000
     19  CMB       54.4680  -53.3600   20.1200 C.3   501  HEM501      0.0000
     20  CAB       55.1070  -50.8280   18.5950 C.2   501  HEM501      0.0000
     21  CBB       55.7070  -49.9830   17.7010 C.2   501  HEM501      0.0000
     22  C1C       56.1680  -47.3480   21.5530 C.1   501  HEM501      0.0000
     23  C2C       56.3480  -45.9600   21.2430 C.2   501  HEM501      0.0000
     24  C3C       57.0970  -45.3660   22.3050 C.2   501  HEM501      0.0000
     25  C4C       57.3280  -46.4140   23.2650 C.2   501  HEM501      0.0000
     26  CMC       55.9340  -45.4320   19.9030 C.3   501  HEM501      0.0000
     27  CAC       57.6010  -44.0650   22.4000 C.2   501  HEM501      0.0000
     28  CBC       56.9070  -42.9910   21.9160 C.2   501  HEM501      0.0000
     29  C1D       58.1200  -47.5730   25.4500 C.ar  501  HEM501      0.0000
     30  C2D       58.8740  -47.4920   26.7090 C.ar  501  HEM501      0.0000
     31  C3D       58.7610  -48.6940   27.3840 C.ar  501  HEM501      0.0000
     32  C4D       57.9270  -49.5390   26.5330 C.ar  501  HEM501      0.0000
     33  CMD       59.7150  -46.3380   27.2420 C.3   501  HEM501      0.0000
     34  CAD       59.2490  -49.0640   28.8300 C.3   501  HEM501      0.0000
     35  CBD       58.2140  -48.7070   29.9110 C.3   501  HEM501      0.0000
     36  CGD       58.5700  -49.2230   31.3050 C.2   501  HEM501      0.0000
     37  O1D       57.9680  -48.7390   32.2910 O.co2 501  HEM501      0.0000
     38  O2D       59.4370  -50.1140   31.4350 O.co2 501  HEM501      0.0000
     39  NA        56.3220  -51.4800   24.9100 N.2   501  HEM501      0.0000
     40  NB        55.8960  -50.5240   22.2420 N.ar  501  HEM501      0.0000
     41  NC        56.7160  -47.5210   22.7790 N.2   501  HEM501      0.0000
     42  ND        57.5560  -48.8910   25.3470 N.ar  501  HEM501      0.0000
     43 FE         56.3310  -49.7190   23.9800 Fe    501  HEM501      0.0000
@<TRIPOS>BOND
     1    21    20    2
     2    20    17    1
     3    26    23    1
     4    17    16   ar
     5    17    18   ar
     6    19    16    1
     7    16    15   ar
     8     3    18    1
     9     3    22    2
    10    18    40   ar
    11    23    22    1
    12    23    24    2
    13    22    41    2
    14    28    27    2
    15    15    40   ar
    16    15     2    1
    17    40    43    1
    18    24    27    1
    19    24    25    1
    20    41    25    2
    21     2     8    2
    22    25     4    1
    23    43    39    1
    24    43    42    1
    25     8    39    1
    26     8     7    1
    27     4    29    2
    28    39     5    2
    29     9     7    1
    30    42    29   ar
    31    42    32   ar
    32     7     6    2
    33    29    30   ar
    34     5     6    1
    35     5     1    1
    36    32     1    2
    37    32    31   ar
    38     6    10    1
    39    30    33    1
    40    30    31   ar
    41    31    34    1
    42    10    11    1
    43    34    35    1
    44    11    12    1
    45    35    36    1
    46    12    14   ar
    47    12    13   ar
    48    36    38   ar
    49    36    37   ar
