@<TRIPOS>MOLECULE
2zr2_AMP_A_1.pdb
 23 25 0 0 0
SMALL
GASTEIGER

@<TRIPOS>ATOM
      1  P         34.3050    4.7960   12.9650 P.3   1001  AMP1001     0.5327
      2  O1P       34.7670    3.9990   11.8110 O.2   1001  AMP1001    -0.2224
      3  O2P       33.5210    6.1830   12.7690 O.3   1001  AMP1001    -0.1145
      4  O3P       34.0470    4.1400   14.4290 O.3   1001  AMP1001    -0.1145
      5  O5'       35.6910    5.5080   13.4140 O.3   1001  AMP1001    -0.2675
      6  C5'       36.6450    5.9270   12.4350 C.3   1001  AMP1001     0.1860
      7  C4'       37.8610    6.5630   13.0910 C.3   1001  AMP1001     0.1823
      8  O4'       37.4690    7.6480   13.9550 O.3   1001  AMP1001    -0.3135
      9  C3'       38.6130    5.5990   14.0040 C.3   1001  AMP1001     0.2184
     10  O3'       39.4630    4.7600   13.2190 O.3   1001  AMP1001    -0.2174
     11  C2'       39.4770    6.5780   14.7600 C.3   1001  AMP1001     0.2570
     12  O2'       40.5420    7.0450   13.9280 O.3   1001  AMP1001    -0.2130
     13  C1'       38.4790    7.7160   15.0470 C.3   1001  AMP1001     0.3186
     14  N9        37.7730    7.4850   16.3420 N.pl3 1001  AMP1001    -0.1439
     15  C8        36.6820    6.7210   16.5390 C.3   1001  AMP1001     0.3377
     16  N7        36.3160    6.8040   17.8220 N.2   1001  AMP1001    -0.2095
     17  C5        37.1750    7.6130   18.4370 C.2   1001  AMP1001     0.2526
     18  C6        37.3020    8.0740   19.7450 C.2   1001  AMP1001     0.4393
     19  N6        36.4410    7.6940   20.6740 N.pl3 1001  AMP1001     0.2180
     20  N1        38.3100    8.9220   20.0580 N.2   1001  AMP1001     0.0021
     21  C2        39.1870    9.3270   19.1270 C.3   1001  AMP1001     0.5254
     22  N3        39.0840    8.8960   17.8650 N.2   1001  AMP1001    -0.0055
     23  C4        38.0970    8.0450   17.5000 C.2   1001  AMP1001     0.3518
@<TRIPOS>BOND
     1     2     1    2
     2     6     7    1
     3     6     5    1
     4     3     1    1
     5     1     5    1
     6     1     4    1
     7     7     8    1
     8     7     9    1
     9    10     9    1
    10    12    11    1
    11     8    13    1
    12     9    11    1
    13    11    13    1
    14    13    14    1
    15    14    15    1
    16    14    23    1
    17    15    16    1
    18    23    22    2
    19    23    17    1
    20    16    17    2
    21    22    21    1
    22    17    18    1
    23    21    20    1
    24    18    20    2
    25    18    19    1
