@<TRIPOS>MOLECULE
2zr8_PDD_A_1.pdb
 21 21 0 0 0
SMALL
GASTEIGER

@<TRIPOS>ATOM
      1  N         12.0100   -3.3150   15.1090 N.2   350  PDD350     -0.2593
      2  N1        17.0260   -2.9250   16.8750 N.ar  350  PDD350     -0.2452
      3  C2        15.9820   -3.4380   17.6840 C.ar  350  PDD350      0.0981
      4  C2A       16.2240   -3.7250   19.1240 C.3   350  PDD350      0.0555
      5  C3        14.6600   -3.6710   17.0410 C.ar  350  PDD350      0.2103
      6  O3A       13.5430   -4.1540   17.6420 O.3   350  PDD350     -0.2853
      7  C4        14.5470   -3.3330   15.5540 C.ar  350  PDD350      0.0587
      8  C4A       13.2590   -3.5210   14.7850 C.2   350  PDD350      0.0967
      9  C5        15.6850   -2.8080   14.8210 C.ar  350  PDD350      0.0316
     10  C5A       15.5970   -2.4620   13.3330 C.3   350  PDD350      0.1819
     11  OP4       14.7590   -1.3480   12.9380 O.3   350  PDD350     -0.2653
     12  P         14.2880   -1.1290   11.6160 P.3   350  PDD350      0.5329
     13  OP1       13.3390   -2.2840   11.3730 O.3   350  PDD350     -0.1145
     14  OP2       13.5340    0.0780   11.6700 O.3   350  PDD350     -0.1145
     15  OP3       15.0630   -1.1110   10.4610 O.2   350  PDD350     -0.2224
     16  C6        16.9480   -2.6070   15.5180 C.ar  350  PDD350      0.0968
     17  CA        10.7640   -3.4950   14.3310 C.3   350  PDD350      0.2057
     18  CB        10.3090   -2.2130   13.6990 C.3   350  PDD350      0.0385
     19  C          9.5790   -3.9930   15.2760 C.2   350  PDD350      0.3866
     20  O          9.7590   -4.1630   16.4770 O.co2 350  PDD350     -0.2435
     21  OXT        8.4390   -4.2210   14.8270 O.co2 350  PDD350     -0.2435
@<TRIPOS>BOND
     1    15    12    2
     2    13    12    1
     3    12    14    1
     4    12    11    1
     5    11    10    1
     6    10     9    1
     7    18    17    1
     8    17     1    1
     9    17    19    1
    10     8     1    2
    11     8     7    1
    12     9    16   ar
    13     9     7   ar
    14    21    19   ar
    15    19    20   ar
    16    16     2   ar
    17     7     5   ar
    18     2     3   ar
    19     5     6    1
    20     5     3   ar
    21     3     4    1
