@<TRIPOS>MOLECULE
2zr9_DTP_A_1.pdb
 30 32 0 0 0
SMALL
GASTEIGER

@<TRIPOS>ATOM
      1  PG        23.9220    5.2410   -9.1430 P.3   600  DTP600      0.5373
      2  O1G       23.2680    4.6430   -7.9550 O.3   600  DTP600     -0.1143
      3  O2G       23.4100    4.6570  -10.5600 O.2   600  DTP600     -0.2221
      4  O3G       25.5170    4.9990   -9.0670 O.3   600  DTP600     -0.1143
      5  PB        24.6390    7.8820   -8.5010 P.3   600  DTP600      0.2277
      6  O1B       25.4810    7.2900   -7.4550 O.3   600  DTP600     -0.4368
      7  O2B       23.7400    9.0500   -7.9000 O.2   600  DTP600     -0.5168
      8  O3B       23.6720    6.8310   -9.2190 O.3   600  DTP600     -0.2258
      9  PA        26.8940    8.0230  -10.3060 P.3   600  DTP600      0.2189
     10  O1A       27.9280    8.9950   -9.9030 O.3   600  DTP600     -0.4371
     11  O2A       27.2850    6.4990   -9.9920 O.2   600  DTP600     -0.5170
     12  O3A       25.5300    8.5440   -9.6550 O.3   600  DTP600     -0.2700
     13  O5'       26.4470    8.0880  -11.8430 O.3   600  DTP600     -0.3112
     14  C5'       26.0520    9.4220  -12.1040 C.3   600  DTP600      0.1813
     15  C4'       27.1860   10.0920  -12.8550 C.3   600  DTP600      0.1795
     16  O4'       28.2040    9.1360  -13.1900 O.3   600  DTP600     -0.3155
     17  C3'       26.2360   10.1740  -14.0470 C.3   600  DTP600      0.1883
     18  O3'       26.2250   11.5250  -14.5140 O.3   600  DTP600     -0.2202
     19  C2'       26.7250    9.0960  -15.0210 C.3   600  DTP600      0.1151
     20  C1'       28.1830    8.8740  -14.6070 C.3   600  DTP600      0.2873
     21  N9        28.6310    7.4610  -14.6950 N.pl3 600  DTP600     -0.1460
     22  C8        28.5220    6.6810  -13.6300 C.3   600  DTP600      0.3377
     23  N7        29.0670    5.4870  -13.8640 N.2   600  DTP600     -0.2095
     24  C5        29.5250    5.5150  -15.1060 C.2   600  DTP600      0.2526
     25  C6        30.1750    4.5620  -15.8860 C.2   600  DTP600      0.4393
     26  N6        30.4210    3.3540  -15.3900 N.pl3 600  DTP600      0.2180
     27  N1        30.5320    4.8600  -17.1380 N.2   600  DTP600      0.0021
     28  C2        30.2570    6.0620  -17.6200 C.3   600  DTP600      0.5254
     29  N3        29.6400    6.9910  -16.9120 N.2   600  DTP600     -0.0055
     30  C4        29.2560    6.7630  -15.6520 C.2   600  DTP600      0.3518
@<TRIPOS>BOND
     1    28    27    1
     2    28    29    1
     3    27    25    2
     4    29    30    2
     5    25    26    1
     6    25    24    1
     7    30    24    1
     8    30    21    1
     9    24    23    2
    10    19    20    1
    11    19    17    1
    12    21    20    1
    13    21    22    1
    14    20    16    1
    15    18    17    1
    16    17    15    1
    17    23    22    1
    18    16    15    1
    19    15    14    1
    20    14    13    1
    21    13     9    1
    22     3     1    2
    23     9    11    2
    24     9    10    1
    25     9    12    1
    26    12     5    1
    27     8     1    1
    28     8     5    1
    29     1     4    1
    30     1     2    1
    31     5     7    2
    32     5     6    1
