@<TRIPOS>MOLECULE
2zra_AGS_A_1.pdb
 31 33 0 0 0
SMALL
GASTEIGER

@<TRIPOS>ATOM
      1  PG         3.8640   24.1840    8.4900 P.3   500  AGS500      0.4340
      2  S1G        2.4300   25.3300    9.0920 S.3   500  AGS500      0.0416
      3  O2G        3.2420   23.7710    7.2110 O.2   500  AGS500     -0.2423
      4  O3G        3.9510   23.3450    9.7030 O.3   500  AGS500     -0.1305
      5  PB         6.4530   25.2110    8.7490 P.3   500  AGS500      0.2262
      6  O1B        6.9480   24.8810    7.3960 O.2   500  AGS500     -0.5168
      7  O2B        6.2390   24.2410    9.8380 O.3   500  AGS500     -0.4369
      8  O3B        4.9040   25.4050    8.3450 O.3   500  AGS500     -0.2405
      9  PA         5.8750   27.2670   10.5160 P.3   500  AGS500      0.2189
     10  O1A        5.4220   28.6630   10.3480 O.2   500  AGS500     -0.5170
     11  O2A        4.8910   26.2540   10.9540 O.3   500  AGS500     -0.4371
     12  O3A        6.5690   26.7660    9.1540 O.3   500  AGS500     -0.2701
     13  O5'        7.0830   27.2300   11.5760 O.3   500  AGS500     -0.3112
     14  C5'        6.9140   26.4610   12.7720 C.3   500  AGS500      0.1813
     15  C4'        7.3590   27.2470   14.0070 C.3   500  AGS500      0.1821
     16  O4'        7.0470   28.6510   13.8730 O.3   500  AGS500     -0.3135
     17  C3'        6.5730   26.7680   15.2200 C.3   500  AGS500      0.2184
     18  O3'        7.2360   25.6690   15.8610 O.3   500  AGS500     -0.2174
     19  C2'        6.6670   28.0100   16.1040 C.3   500  AGS500      0.2570
     20  O2'        7.9820   28.1680   16.6330 O.3   500  AGS500     -0.2130
     21  C1'        6.3820   29.0920   15.0670 C.3   500  AGS500      0.3186
     22  N9         4.9370   29.2010   14.7500 N.pl3 500  AGS500     -0.1439
     23  C8         4.3600   28.8830   13.5850 C.3   500  AGS500      0.3377
     24  N7         3.0730   29.1750   13.6300 N.2   500  AGS500     -0.2095
     25  C5         2.8070   29.6850   14.8280 C.2   500  AGS500      0.2526
     26  C6         1.6610   30.1590   15.4400 C.2   500  AGS500      0.4393
     27  N6         0.4960   30.1860   14.7950 N.pl3 500  AGS500      0.2180
     28  N1         1.7380   30.6150   16.7080 N.2   500  AGS500      0.0021
     29  C2         2.8910   30.6060   17.3560 C.3   500  AGS500      0.5254
     30  N3         4.0000   30.1630   16.8060 N.2   500  AGS500     -0.0055
     31  C4         3.9900   29.6860   15.5380 C.2   500  AGS500      0.3518
@<TRIPOS>BOND
     1     3     1    2
     2     6     5    2
     3     8     1    1
     4     8     5    1
     5     1     2    1
     6     1     4    1
     7     5    12    1
     8     5     7    1
     9    12     9    1
    10    10     9    2
    11     9    11    1
    12     9    13    1
    13    13    14    1
    14    14    15    1
    15    23    24    1
    16    23    22    1
    17    24    25    2
    18    16    15    1
    19    16    21    1
    20    15    17    1
    21    22    21    1
    22    22    31    1
    23    27    26    1
    24    25    26    1
    25    25    31    1
    26    21    19    1
    27    17    18    1
    28    17    19    1
    29    26    28    2
    30    31    30    2
    31    19    20    1
    32    28    29    1
    33    30    29    1
