@<TRIPOS>MOLECULE
2zrd_ADP_A_1.pdb
 27 29 0 0 0
SMALL
GASTEIGER

@<TRIPOS>ATOM
      1  PB       -19.1550   17.3410   -7.7930 P.3   500  ADP500      0.5373
      2  O1B      -17.6060   17.0520   -7.4780 O.3   500  ADP500     -0.1143
      3  O2B      -20.0100   16.1430   -7.6240 O.2   500  ADP500     -0.2221
      4  O3B      -19.5750   18.5290   -6.8040 O.3   500  ADP500     -0.1143
      5  PA       -20.3190   19.0670   -9.6590 P.3   500  ADP500      0.2231
      6  O1A      -19.6950   20.4040   -9.5620 O.2   500  ADP500     -0.5169
      7  O2A      -21.5250   18.7910   -8.8460 O.3   500  ADP500     -0.4370
      8  O3A      -19.2120   17.9500   -9.2880 O.3   500  ADP500     -0.2261
      9  O5'      -20.6340   18.7590  -11.2110 O.3   500  ADP500     -0.3111
     10  C5'      -21.8860   18.2040  -11.6230 C.3   500  ADP500      0.1813
     11  C4'      -22.3070   18.7990  -12.9750 C.3   500  ADP500      0.1821
     12  O4'      -22.5130   20.2230  -12.8940 O.3   500  ADP500     -0.3135
     13  C3'      -21.2170   18.6200  -14.0390 C.3   500  ADP500      0.2184
     14  O3'      -21.3210   17.3020  -14.5860 O.3   500  ADP500     -0.2174
     15  C2'      -21.7100   19.6470  -15.0560 C.3   500  ADP500      0.2570
     16  O2'      -22.8720   19.1660  -15.7360 O.3   500  ADP500     -0.2130
     17  C1'      -22.0890   20.8160  -14.1390 C.3   500  ADP500      0.3186
     18  N9       -20.9220   21.6740  -13.8260 N.pl3 500  ADP500     -0.1439
     19  C8       -20.3150   21.7550  -12.6450 C.3   500  ADP500      0.3377
     20  N7       -19.3590   22.6850  -12.6910 N.2   500  ADP500     -0.2095
     21  C5       -19.3710   23.2090  -13.9140 C.2   500  ADP500      0.2526
     22  C6       -18.6330   24.2090  -14.5410 C.2   500  ADP500      0.4393
     23  N6       -17.6880   24.8610  -13.8720 N.pl3 500  ADP500      0.2180
     24  N1       -18.9100   24.5110  -15.8180 N.2   500  ADP500      0.0021
     25  C2       -19.8590   23.8740  -16.4800 C.3   500  ADP500      0.5254
     26  N3       -20.5760   22.9140  -15.9140 N.2   500  ADP500     -0.0055
     27  C4       -20.3630   22.5600  -14.6430 C.2   500  ADP500      0.3518
@<TRIPOS>BOND
     1    25    26    1
     2    25    24    1
     3    26    27    2
     4    24    22    2
     5    16    15    1
     6    15    17    1
     7    15    13    1
     8    27    21    1
     9    27    18    1
    10    14    13    1
    11    22    21    1
    12    22    23    1
    13    17    18    1
    14    17    12    1
    15    13    11    1
    16    21    20    2
    17    18    19    1
    18    11    12    1
    19    11    10    1
    20    20    19    1
    21    10     9    1
    22     9     5    1
    23     5     6    2
    24     5     8    1
    25     5     7    1
    26     8     1    1
    27     1     3    2
    28     1     2    1
    29     1     4    1
