@<TRIPOS>MOLECULE
2zre_AGS_A_1.pdb
 31 33 0 0 0
SMALL
GASTEIGER

@<TRIPOS>ATOM
      1  PG        -6.5790  -23.7900   -7.6110 P.3   430  AGS430      0.4340
      2  S1G       -8.5140  -23.8420   -7.6790 S.3   430  AGS430      0.0416
      3  O2G       -6.4330  -23.3220   -6.2170 O.3   430  AGS430     -0.1305
      4  O3G       -6.3570  -22.9800   -8.8210 O.2   430  AGS430     -0.2423
      5  PB        -4.9980  -26.0450   -7.6610 P.3   430  AGS430      0.2262
      6  O1B       -4.2990  -25.0210   -8.4740 O.2   430  AGS430     -0.5168
      7  O2B       -4.9600  -26.1090   -6.1900 O.3   430  AGS430     -0.4369
      8  O3B       -6.4640  -25.3890   -7.7620 O.3   430  AGS430     -0.2405
      9  PA        -6.4380  -27.2100   -9.7510 P.3   430  AGS430      0.2189
     10  O1A       -6.2820  -25.8350  -10.2880 O.2   430  AGS430     -0.5170
     11  O2A       -7.8030  -27.7130   -9.5110 O.3   430  AGS430     -0.4371
     12  O3A       -5.5610  -27.3560   -8.4140 O.3   430  AGS430     -0.2701
     13  O5'       -5.6900  -28.2060  -10.7800 O.3   430  AGS430     -0.3112
     14  C5'       -5.0220  -27.6420  -11.9150 C.3   430  AGS430      0.1813
     15  C4'       -5.3790  -28.4110  -13.1960 C.3   430  AGS430      0.1821
     16  O4'       -6.6190  -29.1350  -13.0440 O.3   430  AGS430     -0.3135
     17  C3'       -5.6800  -27.4160  -14.3180 C.3   430  AGS430      0.2184
     18  O3'       -4.4700  -26.9500  -14.9160 O.3   430  AGS430     -0.2174
     19  C2'       -6.4030  -28.3570  -15.2790 C.3   430  AGS430      0.2570
     20  O2'       -5.4710  -29.2160  -15.9440 O.3   430  AGS430     -0.2130
     21  C1'       -7.2810  -29.1690  -14.3180 C.3   430  AGS430      0.3186
     22  N9        -8.6080  -28.5630  -14.0990 N.pl3 430  AGS430     -0.1439
     23  C8        -8.9730  -27.8550  -13.0390 C.3   430  AGS430      0.3377
     24  N7       -10.2580  -27.5530  -13.1080 N.2   430  AGS430     -0.2095
     25  C5       -10.7240  -28.0670  -14.2460 C.2   430  AGS430      0.2526
     26  C6       -11.9800  -28.0760  -14.8480 C.2   430  AGS430      0.4393
     27  N6       -13.0240  -27.5030  -14.2590 N.pl3 430  AGS430      0.2180
     28  N1       -12.1210  -28.7010  -16.0340 N.2   430  AGS430      0.0021
     29  C2       -11.0910  -29.2940  -16.6140 C.3   430  AGS430      0.5254
     30  N3        -9.8930  -29.3040  -16.0520 N.2   430  AGS430     -0.0055
     31  C4        -9.6790  -28.7020  -14.8790 C.2   430  AGS430      0.3518
@<TRIPOS>BOND
     1    29    30    1
     2    29    28    1
     3    30    31    2
     4    28    26    2
     5    20    19    1
     6    19    21    1
     7    19    17    1
     8    18    17    1
     9    31    25    1
    10    31    22    1
    11    26    27    1
    12    26    25    1
    13    21    22    1
    14    21    16    1
    15    17    15    1
    16    25    24    2
    17    22    23    1
    18    15    16    1
    19    15    14    1
    20    24    23    1
    21    14    13    1
    22    13     9    1
    23    10     9    2
    24     9    11    1
    25     9    12    1
    26     4     1    2
    27     6     5    2
    28    12     5    1
    29     8     5    1
    30     8     1    1
    31     2     1    1
    32     5     7    1
    33     1     3    1
