@<TRIPOS>MOLECULE
2zrf_DTP_A_1.pdb
 30 32 0 0 0
SMALL
GASTEIGER

@<TRIPOS>ATOM
      1  PG       -17.3890   17.7480   -6.9360 P.3   600  DTP600      0.5373
      2  O1G      -18.3270   17.9000   -5.8010 O.3   600  DTP600     -0.1143
      3  O2G      -16.5000   19.0830   -7.0800 O.2   600  DTP600     -0.2221
      4  O3G      -16.4240   16.4870   -6.6690 O.3   600  DTP600     -0.1143
      5  PB       -19.7890   17.2970   -8.1210 P.3   600  DTP600      0.2277
      6  O1B      -20.4700   18.3660   -7.2830 O.3   600  DTP600     -0.4368
      7  O2B      -20.1770   15.7830   -7.7360 O.2   600  DTP600     -0.5168
      8  O3B      -18.2140   17.5110   -8.2800 O.3   600  DTP600     -0.2258
      9  PA       -20.5560   19.0620  -10.1380 P.3   600  DTP600      0.2189
     10  O1A      -19.4500   20.0430  -10.2130 O.2   600  DTP600     -0.5170
     11  O2A      -22.0970   19.5300  -10.0870 O.3   600  DTP600     -0.4371
     12  O3A      -20.3310   17.5580   -9.6090 O.3   600  DTP600     -0.2700
     13  O5'      -20.6010   18.5410  -11.6640 O.3   600  DTP600     -0.3112
     14  C5'      -21.7720   17.8780  -12.1540 C.3   600  DTP600      0.1813
     15  C4'      -22.3410   18.6580  -13.3420 C.3   600  DTP600      0.1795
     16  O4'      -22.3440   20.0720  -13.0820 O.3   600  DTP600     -0.3155
     17  C3'      -21.4020   18.5210  -14.5390 C.3   600  DTP600      0.1883
     18  O3'      -21.6860   17.2760  -15.1830 O.3   600  DTP600     -0.2202
     19  C2'      -21.9500   19.6650  -15.3900 C.3   600  DTP600      0.1151
     20  C1'      -22.1700   20.7560  -14.3390 C.3   600  DTP600      0.2873
     21  N9       -21.0470   21.6940  -14.1590 N.pl3 600  DTP600     -0.1460
     22  C8       -20.5500   22.0130  -12.9630 C.3   600  DTP600      0.3377
     23  N7       -19.5650   22.9110  -13.1340 N.2   600  DTP600     -0.2095
     24  C5       -19.4640   23.1840  -14.3910 C.2   600  DTP600      0.2526
     25  C6       -18.6890   24.0600  -15.1740 C.2   600  DTP600      0.4393
     26  N6       -17.7220   24.8030  -14.5840 N.pl3 600  DTP600      0.2180
     27  N1       -18.7950   24.0560  -16.5130 N.2   600  DTP600      0.0021
     28  C2       -19.7040   23.2860  -17.1100 C.3   600  DTP600      0.5254
     29  N3       -20.5120   22.4730  -16.4290 N.2   600  DTP600     -0.0055
     30  C4       -20.3640   22.3550  -15.0940 C.2   600  DTP600      0.3518
@<TRIPOS>BOND
     1    28    27    1
     2    28    29    1
     3    27    25    2
     4    29    30    2
     5    19    17    1
     6    19    20    1
     7    18    17    1
     8    25    26    1
     9    25    24    1
    10    30    24    1
    11    30    21    1
    12    17    15    1
    13    24    23    2
    14    20    21    1
    15    20    16    1
    16    21    22    1
    17    15    16    1
    18    15    14    1
    19    23    22    1
    20    14    13    1
    21    13     9    1
    22    10     9    2
    23     9    11    1
    24     9    12    1
    25    12     5    1
    26     8     5    1
    27     8     1    1
    28     5     7    2
    29     5     6    1
    30     3     1    2
    31     1     4    1
    32     1     2    1
