@<TRIPOS>MOLECULE
2zrg_DTP_A_1.pdb
 30 32 0 0 0
SMALL
GASTEIGER

@<TRIPOS>ATOM
      1  PG       -23.8470   -6.5970   -6.4440 P.3   600  DTP600      0.5373
      2  O1G      -24.0440   -5.2170   -6.9410 O.2   600  DTP600     -0.2221
      3  O2G      -22.4520   -6.6850   -5.6450 O.3   600  DTP600     -0.1143
      4  O3G      -25.0570   -6.9890   -5.4570 O.3   600  DTP600     -0.1143
      5  PB       -24.8150   -8.8820   -7.6190 P.3   600  DTP600      0.2277
      6  O1B      -26.1370   -8.8250   -6.9190 O.3   600  DTP600     -0.4368
      7  O2B      -23.9150  -10.0990   -7.0790 O.2   600  DTP600     -0.5168
      8  O3B      -23.8180   -7.6170   -7.6890 O.3   600  DTP600     -0.2258
      9  PA       -26.7230   -8.8900   -9.5950 P.3   600  DTP600      0.2189
     10  O1A      -27.2580   -7.5160   -9.6790 O.2   600  DTP600     -0.5170
     11  O2A      -27.6810  -10.1850   -9.5170 O.3   600  DTP600     -0.4371
     12  O3A      -25.2130   -9.2090   -9.1410 O.3   600  DTP600     -0.2700
     13  O5'      -26.3800   -9.0820  -11.1630 O.3   600  DTP600     -0.3112
     14  C5'      -26.5350  -10.3470  -11.8150 C.3   600  DTP600      0.1813
     15  C4'      -27.1340  -10.1020  -13.2050 C.3   600  DTP600      0.1795
     16  O4'      -28.4090   -9.4440  -13.1230 O.3   600  DTP600     -0.3155
     17  C3'      -26.2730   -9.0930  -13.9650 C.3   600  DTP600      0.1883
     18  O3'      -25.1380   -9.7800  -14.4950 O.3   600  DTP600     -0.2202
     19  C2'      -27.2600   -8.7920  -15.1000 C.3   600  DTP600      0.1151
     20  C1'      -28.5850   -8.7130  -14.3470 C.3   600  DTP600      0.2873
     21  N9       -28.9550   -7.3290  -13.9840 N.pl3 600  DTP600     -0.1460
     22  C8       -28.6500   -6.7060  -12.8470 C.3   600  DTP600      0.3377
     23  N7       -29.2590   -5.5200  -12.8080 N.2   600  DTP600     -0.2095
     24  C5       -29.9580   -5.3860  -13.9290 C.2   600  DTP600      0.2526
     25  C6       -30.7910   -4.3990  -14.4420 C.2   600  DTP600      0.4393
     26  N6       -30.9620   -3.2310  -13.7770 N.pl3 600  DTP600      0.2180
     27  N1       -31.3580   -4.5860  -15.6410 N.2   600  DTP600      0.0021
     28  C2       -31.1300   -5.6850  -16.3410 C.3   600  DTP600      0.5254
     29  N3       -30.3930   -6.6880  -15.8640 N.2   600  DTP600     -0.0055
     30  C4       -29.7600   -6.5350  -14.6840 C.2   600  DTP600      0.3518
@<TRIPOS>BOND
     1    28    29    1
     2    28    27    1
     3    29    30    2
     4    27    25    2
     5    19    20    1
     6    19    17    1
     7    30    21    1
     8    30    24    1
     9    18    17    1
    10    25    24    1
    11    25    26    1
    12    20    21    1
    13    20    16    1
    14    21    22    1
    15    17    15    1
    16    24    23    2
    17    15    16    1
    18    15    14    1
    19    22    23    1
    20    14    13    1
    21    13     9    1
    22    10     9    2
    23     9    11    1
    24     9    12    1
    25    12     5    1
    26     8     5    1
    27     8     1    1
    28     5     7    2
    29     5     6    1
    30     2     1    2
    31     1     3    1
    32     1     4    1
