@<TRIPOS>MOLECULE
2zri_ADP_A_1.pdb
 27 29 0 0 0
SMALL
GASTEIGER

@<TRIPOS>ATOM
      1  PB         5.2830   25.1130   -9.9440 P.3   500  ADP500      0.5373
      2  O1B        5.6370   23.5440   -9.9560 O.2   500  ADP500     -0.2221
      3  O2B        3.8850   25.3800   -9.5350 O.3   500  ADP500     -0.1143
      4  O3B        6.3420   25.7770   -8.9300 O.3   500  ADP500     -0.1143
      5  PA         6.6900   26.8770  -11.5750 P.3   500  ADP500      0.2231
      6  O1A        8.0570   26.3110  -11.5350 O.2   500  ADP500     -0.5169
      7  O2A        6.3310   27.9300  -10.5990 O.3   500  ADP500     -0.4370
      8  O3A        5.6360   25.6760  -11.4100 O.3   500  ADP500     -0.2261
      9  O5'        6.3990   27.4220  -13.0670 O.3   500  ADP500     -0.3111
     10  C5'        5.2320   28.1880  -13.3620 C.3   500  ADP500      0.1813
     11  C4'        5.2930   28.6600  -14.8160 C.3   500  ADP500      0.1821
     12  O4'        6.4250   29.4990  -15.0530 O.3   500  ADP500     -0.3135
     13  C3'        5.4820   27.4410  -15.7250 C.3   500  ADP500      0.2184
     14  O3'        4.1950   26.8950  -16.0320 O.3   500  ADP500     -0.2174
     15  C2'        6.0440   28.1490  -16.9610 C.3   500  ADP500      0.2570
     16  O2'        4.9950   28.8710  -17.6250 O.3   500  ADP500     -0.2130
     17  C1'        7.0170   29.1420  -16.3150 C.3   500  ADP500      0.3186
     18  N9         8.3350   28.5380  -16.0090 N.pl3 500  ADP500     -0.1439
     19  C8         8.7340   28.1100  -14.8190 C.3   500  ADP500      0.3377
     20  N7        10.0120   27.7240  -14.8850 N.2   500  ADP500     -0.2095
     21  C5        10.4200   27.9060  -16.1340 C.2   500  ADP500      0.2526
     22  C6        11.6270   27.7020  -16.7960 C.2   500  ADP500      0.4393
     23  N6        12.6870   27.2430  -16.1370 N.pl3 500  ADP500      0.2180
     24  N1        11.7100   27.9980  -18.0990 N.2   500  ADP500      0.0021
     25  C2        10.6690   28.4820  -18.7570 C.3   500  ADP500      0.5254
     26  N3         9.5090   28.6930  -18.1620 N.2   500  ADP500     -0.0055
     27  C4         9.3510   28.4180  -16.8520 C.2   500  ADP500      0.3518
@<TRIPOS>BOND
     1    25    26    1
     2    25    24    1
     3    26    27    2
     4    24    22    2
     5    16    15    1
     6    15    17    1
     7    15    13    1
     8    27    21    1
     9    27    18    1
    10    22    23    1
    11    22    21    1
    12    17    18    1
    13    17    12    1
    14    21    20    2
    15    14    13    1
    16    18    19    1
    17    13    11    1
    18    12    11    1
    19    20    19    1
    20    11    10    1
    21    10     9    1
    22     9     5    1
    23     5     6    2
    24     5     8    1
    25     5     7    1
    26     8     1    1
    27     2     1    2
    28     1     3    1
    29     1     4    1
