@<TRIPOS>MOLECULE
2zrj_AGS_A_1.pdb
 31 33 0 0 0
SMALL
GASTEIGER

@<TRIPOS>ATOM
      1  PG        16.6250  -17.4150   -7.5010 P.3   500  AGS500      0.4340
      2  S1G       15.8470  -18.3830   -8.9870 S.3   500  AGS500      0.0416
      3  O2G       17.1100  -18.5860   -6.7330 O.3   500  AGS500     -0.1305
      4  O3G       15.4570  -16.5810   -7.1330 O.2   500  AGS500     -0.2423
      5  PB        19.2850  -17.1420   -8.1670 P.3   500  AGS500      0.2262
      6  O1B       20.0230  -15.9360   -7.7240 O.2   500  AGS500     -0.5168
      7  O2B       19.3110  -18.3440   -7.2990 O.3   500  AGS500     -0.4369
      8  O3B       17.7500  -16.7450   -8.4400 O.3   500  AGS500     -0.2405
      9  PA        20.3070  -19.1110   -9.8690 P.3   500  AGS500      0.2189
     10  O1A       19.1410  -19.9770  -10.1700 O.2   500  AGS500     -0.5170
     11  O2A       21.2290  -19.5260   -8.7860 O.3   500  AGS500     -0.4371
     12  O3A       19.8130  -17.5940   -9.6230 O.3   500  AGS500     -0.2701
     13  O5'       21.1620  -18.9600  -11.2260 O.3   500  AGS500     -0.3112
     14  C5'       20.4780  -18.6780  -12.4480 C.3   500  AGS500      0.1813
     15  C4'       21.4410  -18.7480  -13.6340 C.3   500  AGS500      0.1821
     16  O4'       22.2340  -19.9490  -13.5850 O.3   500  AGS500     -0.3135
     17  C3'       20.6280  -18.8080  -14.9300 C.3   500  AGS500      0.2184
     18  O3'       20.5510  -17.5160  -15.5390 O.3   500  AGS500     -0.2174
     19  C2'       21.4820  -19.7380  -15.7830 C.3   500  AGS500      0.2570
     20  O2'       22.6470  -19.0810  -16.2900 O.3   500  AGS500     -0.2130
     21  C1'       21.8800  -20.7630  -14.7180 C.3   500  AGS500      0.3186
     22  N9        20.7420  -21.6300  -14.3380 N.pl3 500  AGS500     -0.1439
     23  C8        20.2250  -21.7630  -13.1190 C.3   500  AGS500      0.3377
     24  N7        19.2780  -22.6970  -13.1300 N.2   500  AGS500     -0.2095
     25  C5        19.1870  -23.1620  -14.3700 C.2   500  AGS500      0.2526
     26  C6        18.4020  -24.1340  -14.9860 C.2   500  AGS500      0.4393
     27  N6        17.5070  -24.8260  -14.2820 N.pl3 500  AGS500      0.2180
     28  N1        18.5690  -24.3660  -16.2930 N.2   500  AGS500      0.0021
     29  C2        19.4620  -23.6970  -16.9990 C.3   500  AGS500      0.5254
     30  N3        20.2260  -22.7680  -16.4470 N.2   500  AGS500     -0.0055
     31  C4        20.1110  -22.4830  -15.1440 C.2   500  AGS500      0.3518
@<TRIPOS>BOND
     1    29    30    1
     2    29    28    1
     3    30    31    2
     4    28    26    2
     5    20    19    1
     6    19    17    1
     7    19    21    1
     8    18    17    1
     9    31    25    1
    10    31    22    1
    11    26    25    1
    12    26    27    1
    13    17    15    1
    14    21    22    1
    15    21    16    1
    16    25    24    2
    17    22    23    1
    18    15    16    1
    19    15    14    1
    20    24    23    1
    21    14    13    1
    22    13     9    1
    23    10     9    2
    24     9    12    1
    25     9    11    1
    26    12     5    1
    27     2     1    1
    28     8     5    1
    29     8     1    1
    30     5     6    2
    31     5     7    1
    32     1     4    2
    33     1     3    1
