@<TRIPOS>MOLECULE
2zrk_DTP_A_1.pdb
 30 32 0 0 0
SMALL
GASTEIGER

@<TRIPOS>ATOM
      1  PG        23.8320   -6.1650    7.0920 P.3   600  DTP600      0.5373
      2  O1G       24.6940   -6.7240    6.0260 O.2   600  DTP600     -0.2221
      3  O2G       24.4450   -4.7650    7.5980 O.3   600  DTP600     -0.1143
      4  O3G       22.3500   -5.9230    6.5120 O.3   600  DTP600     -0.1143
      5  PB        24.7410   -8.4750    8.3210 P.3   600  DTP600      0.2277
      6  O1B       25.8960   -8.5980    7.4010 O.2   600  DTP600     -0.5168
      7  O2B       23.7890   -9.7600    8.1730 O.3   600  DTP600     -0.4368
      8  O3B       23.7640   -7.2000    8.3270 O.3   600  DTP600     -0.2258
      9  PA        26.7620   -7.8300   10.1780 P.3   600  DTP600      0.2189
     10  O1A       26.9400   -6.3610   10.1970 O.2   600  DTP600     -0.5170
     11  O2A       28.0220   -8.8290   10.2240 O.3   600  DTP600     -0.4371
     12  O3A       25.3460   -8.5140    9.8080 O.3   600  DTP600     -0.2700
     13  O5'       26.4170   -8.0780   11.7280 O.3   600  DTP600     -0.3112
     14  C5'       26.0850   -9.4060   12.1380 C.3   600  DTP600      0.1813
     15  C4'       26.9510   -9.8130   13.3310 C.3   600  DTP600      0.1795
     16  O4'       28.2350   -9.1930   13.1700 O.3   600  DTP600     -0.3155
     17  C3'       26.3790   -9.2590   14.6390 C.3   600  DTP600      0.1883
     18  O3'       25.5010  -10.2520   15.1800 O.3   600  DTP600     -0.2202
     19  C2'       27.6530   -9.2220   15.4790 C.3   600  DTP600      0.1151
     20  C1'       28.7100   -8.7640   14.4640 C.3   600  DTP600      0.2873
     21  N9        28.9280   -7.2960   14.3570 N.pl3 600  DTP600     -0.1460
     22  C8        28.7010   -6.5560   13.2540 C.3   600  DTP600      0.3377
     23  N7        29.0350   -5.2550   13.4510 N.2   600  DTP600     -0.2095
     24  C5        29.5040   -5.1510   14.7070 C.2   600  DTP600      0.2526
     25  C6        30.0330   -4.0750   15.5760 C.2   600  DTP600      0.4393
     26  N6        30.1350   -2.7980   15.1360 N.pl3 600  DTP600      0.2180
     27  N1        30.4080   -4.4210   16.8280 N.2   600  DTP600      0.0021
     28  C2        30.3450   -5.6970   17.2550 C.3   600  DTP600      0.5254
     29  N3        29.7950   -6.6800   16.5640 N.2   600  DTP600     -0.0055
     30  C4        29.4470   -6.5010   15.2840 C.2   600  DTP600      0.3518
@<TRIPOS>BOND
     1     2     1    2
     2     4     1    1
     3     1     3    1
     4     1     8    1
     5     6     5    2
     6     7     5    1
     7     5     8    1
     8     5    12    1
     9    12     9    1
    10     9    10    2
    11     9    11    1
    12     9    13    1
    13    13    14    1
    14    14    15    1
    15    16    15    1
    16    16    20    1
    17    22    23    1
    18    22    21    1
    19    15    17    1
    20    23    24    2
    21    21    20    1
    22    21    30    1
    23    20    19    1
    24    17    18    1
    25    17    19    1
    26    24    30    1
    27    24    25    1
    28    26    25    1
    29    30    29    2
    30    25    27    2
    31    29    28    1
    32    27    28    1
