@<TRIPOS>MOLECULE
2zrl_DTP_A_1.pdb
 30 32 0 0 0
SMALL
GASTEIGER

@<TRIPOS>ATOM
      1  PG        23.3940    5.3960   -7.5040 P.3   600  DTP600      0.5373
      2  O1G       23.1890    4.2530   -8.3890 O.2   600  DTP600     -0.2221
      3  O2G       22.3790    5.3870   -6.4490 O.3   600  DTP600     -0.1143
      4  O3G       24.7210    5.3120   -6.9000 O.3   600  DTP600     -0.1143
      5  PB        24.3530    7.9790   -8.1120 P.3   600  DTP600      0.2277
      6  O1B       25.3130    7.9650   -6.9680 O.3   600  DTP600     -0.4368
      7  O2B       23.3700    9.2370   -7.8440 O.2   600  DTP600     -0.5168
      8  O3B       23.2760    6.7670   -8.3580 O.3   600  DTP600     -0.2258
      9  PA        26.6660    8.3590   -9.6930 P.3   600  DTP600      0.2189
     10  O1A       27.5130    7.3930  -10.4270 O.2   600  DTP600     -0.5170
     11  O2A       27.1370    9.1360   -8.3570 O.3   600  DTP600     -0.4371
     12  O3A       25.0700    8.1770   -9.5310 O.3   600  DTP600     -0.2700
     13  O5'       26.5510    9.6470  -10.6510 O.3   600  DTP600     -0.3112
     14  C5'       26.0060    9.5210  -11.9590 C.3   600  DTP600      0.1813
     15  C4'       27.0640    9.6580  -13.0530 C.3   600  DTP600      0.1795
     16  O4'       28.0930    8.6460  -12.9110 O.3   600  DTP600     -0.3155
     17  C3'       26.4030    9.3850  -14.4060 C.3   600  DTP600      0.1883
     18  O3'       25.9090   10.6420  -14.8610 O.3   600  DTP600     -0.2202
     19  C2'       27.6700    9.0610  -15.2110 C.3   600  DTP600      0.1151
     20  C1'       28.4530    8.1750  -14.2270 C.3   600  DTP600      0.2873
     21  N9        28.0480    6.7870  -14.3700 N.pl3 600  DTP600     -0.1460
     22  C8        27.2520    6.1820  -13.3240 C.3   600  DTP600      0.3377
     23  N7        27.0200    4.9380  -13.6860 N.2   600  DTP600     -0.2095
     24  C5        27.6990    4.6820  -15.0580 C.2   600  DTP600      0.2526
     25  C6        27.7700    3.4470  -15.9550 C.2   600  DTP600      0.4393
     26  N6        27.1100    2.2050  -15.5510 N.pl3 600  DTP600      0.2180
     27  N1        28.4030    3.5020  -17.0520 N.2   600  DTP600      0.0021
     28  C2        29.0840    4.7770  -17.4740 C.3   600  DTP600      0.5254
     29  N3        29.0270    5.8470  -16.7050 N.2   600  DTP600     -0.0055
     30  C4        28.2990    5.7970  -15.4340 C.2   600  DTP600      0.3518
@<TRIPOS>BOND
     1    28    27    1
     2    28    29    1
     3    27    25    2
     4    29    30    2
     5    25    26    1
     6    25    24    1
     7    30    24    1
     8    30    21    1
     9    19    17    1
    10    19    20    1
    11    24    23    2
    12    18    17    1
    13    17    15    1
    14    21    20    1
    15    21    22    1
    16    20    16    1
    17    23    22    1
    18    15    16    1
    19    15    14    1
    20    14    13    1
    21    13     9    1
    22    10     9    2
    23     9    12    1
    24     9    11    1
    25    12     5    1
    26     2     1    2
    27     8     5    1
    28     8     1    1
    29     5     7    2
    30     5     6    1
    31     1     4    1
    32     1     3    1
