@<TRIPOS>MOLECULE
2zrm_DTP_A_1.pdb
 30 32 0 0 0
SMALL
GASTEIGER

@<TRIPOS>ATOM
      1  PG       -17.1080  -17.7290    6.5240 P.3   600  DTP600      0.5373
      2  O1G      -18.0620  -17.7830    5.3550 O.2   600  DTP600     -0.2221
      3  O2G      -16.6010  -19.0760    6.9800 O.3   600  DTP600     -0.1143
      4  O3G      -16.0390  -16.6680    6.4080 O.3   600  DTP600     -0.1143
      5  PB       -19.6220  -17.2780    7.6460 P.3   600  DTP600      0.2277
      6  O1B      -19.9900  -18.4790    6.8080 O.2   600  DTP600     -0.5168
      7  O2B      -20.1040  -15.9080    7.2310 O.3   600  DTP600     -0.4368
      8  O3B      -18.0230  -17.2240    7.7490 O.3   600  DTP600     -0.2258
      9  PA       -20.3000  -19.0540    9.6890 P.3   600  DTP600      0.2189
     10  O1A      -18.9980  -19.7980    9.5110 O.3   600  DTP600     -0.4371
     11  O2A      -21.6160  -19.6270    9.2200 O.2   600  DTP600     -0.5170
     12  O3A      -20.1420  -17.5490    9.1490 O.3   600  DTP600     -0.2700
     13  O5'      -20.4370  -18.5570   11.2170 O.3   600  DTP600     -0.3112
     14  C5'      -21.6480  -17.9520   11.6740 C.3   600  DTP600      0.1813
     15  C4'      -22.1650  -18.6770   12.9170 C.3   600  DTP600      0.1795
     16  O4'      -22.3120  -20.0880   12.6810 O.3   600  DTP600     -0.3155
     17  C3'      -21.1520  -18.5960   14.0600 C.3   600  DTP600      0.1883
     18  O3'      -21.2650  -17.3240   14.7090 O.3   600  DTP600     -0.2202
     19  C2'      -21.7620  -19.6780   14.9500 C.3   600  DTP600      0.1151
     20  C1'      -22.0660  -20.7670   13.9280 C.3   600  DTP600      0.2873
     21  N9       -20.9080  -21.6680   13.7050 N.pl3 600  DTP600     -0.1460
     22  C8       -20.3890  -21.9890   12.5220 C.3   600  DTP600      0.3377
     23  N7       -19.4160  -22.8810   12.6870 N.2   600  DTP600     -0.2095
     24  C5       -19.3090  -23.1290   13.9860 C.2   600  DTP600      0.2526
     25  C6       -18.4950  -23.9580   14.7480 C.2   600  DTP600      0.4393
     26  N6       -17.6000  -24.7460   14.1640 N.pl3 600  DTP600      0.2180
     27  N1       -18.6500  -23.9700   16.0820 N.2   600  DTP600      0.0021
     28  C2       -19.5560  -23.2130   16.6720 C.3   600  DTP600      0.5254
     29  N3       -20.3560  -22.4120   15.9730 N.2   600  DTP600     -0.0055
     30  C4       -20.2570  -22.3510   14.6380 C.2   600  DTP600      0.3518
@<TRIPOS>BOND
     1     2     1    2
     2     4     1    1
     3     1     3    1
     4     1     8    1
     5     6     5    2
     6     7     5    1
     7     5     8    1
     8     5    12    1
     9    12     9    1
    10    11     9    2
    11    10     9    1
    12     9    13    1
    13    13    14    1
    14    14    15    1
    15    22    23    1
    16    22    21    1
    17    16    15    1
    18    16    20    1
    19    23    24    2
    20    15    17    1
    21    21    20    1
    22    21    30    1
    23    20    19    1
    24    24    30    1
    25    24    25    1
    26    17    18    1
    27    17    19    1
    28    26    25    1
    29    30    29    2
    30    25    27    2
    31    29    28    1
    32    27    28    1
