@<TRIPOS>MOLECULE
2zro_ADP_A_1.pdb
 27 29 0 0 0
SMALL
GASTEIGER

@<TRIPOS>ATOM
      1  PB       -19.3640  -17.2730    7.3120 P.3   500  ADP500      0.5373
      2  O1B      -17.8340  -16.8110    7.1570 O.3   500  ADP500     -0.1143
      3  O2B      -20.3210  -16.1830    6.9930 O.3   500  ADP500     -0.1143
      4  O3B      -19.5310  -18.5290    6.3240 O.2   500  ADP500     -0.2221
      5  PA       -20.3710  -19.1770    9.1000 P.3   500  ADP500      0.2231
      6  O1A      -19.5030  -20.3570    8.8830 O.3   500  ADP500     -0.4370
      7  O2A      -21.6320  -19.0830    8.3340 O.2   500  ADP500     -0.5169
      8  O3A      -19.5210  -17.8390    8.8110 O.3   500  ADP500     -0.2261
      9  O5'      -20.7090  -19.0630   10.6670 O.3   500  ADP500     -0.3111
     10  C5'      -21.8310  -18.2960   11.1160 C.3   500  ADP500      0.1813
     11  C4'      -22.2480  -18.7800   12.5100 C.3   500  ADP500      0.1821
     12  O4'      -22.5800  -20.1780   12.4970 O.3   500  ADP500     -0.3135
     13  C3'      -21.0940  -18.6580   13.4990 C.3   500  ADP500      0.2184
     14  O3'      -21.0420  -17.3160   13.9960 O.3   500  ADP500     -0.2174
     15  C2'      -21.6470  -19.5810   14.5850 C.3   500  ADP500      0.2570
     16  O2'      -22.7870  -18.9740   15.1970 O.3   500  ADP500     -0.2130
     17  C1'      -22.0990  -20.7670   13.7210 C.3   500  ADP500      0.3186
     18  N9       -20.9590  -21.6580   13.3820 N.pl3 500  ADP500     -0.1439
     19  C8       -20.3350  -21.7090   12.2070 C.3   500  ADP500      0.3377
     20  N7       -19.4140  -22.6650   12.2280 N.2   500  ADP500     -0.2095
     21  C5       -19.4530  -23.2360   13.4300 C.2   500  ADP500      0.2526
     22  C6       -18.7450  -24.2740   14.0310 C.2   500  ADP500      0.4393
     23  N6       -17.8000  -24.9270   13.3550 N.pl3 500  ADP500      0.2180
     24  N1       -19.0480  -24.6130   15.2930 N.2   500  ADP500      0.0021
     25  C2       -19.9830  -23.9710   15.9640 C.3   500  ADP500      0.5254
     26  N3       -20.6760  -22.9860   15.4230 N.2   500  ADP500     -0.0055
     27  C4       -20.4430  -22.5930   14.1650 C.2   500  ADP500      0.3518
@<TRIPOS>BOND
     1     4     1    2
     2     3     1    1
     3     2     1    1
     4     1     8    1
     5     7     5    2
     6     8     5    1
     7     6     5    1
     8     5     9    1
     9     9    10    1
    10    10    11    1
    11    19    20    1
    12    19    18    1
    13    20    21    2
    14    12    11    1
    15    12    17    1
    16    11    13    1
    17    23    22    1
    18    18    17    1
    19    18    27    1
    20    21    22    1
    21    21    27    1
    22    13    14    1
    23    13    15    1
    24    17    15    1
    25    22    24    2
    26    27    26    2
    27    15    16    1
    28    24    25    1
    29    26    25    1
