@<TRIPOS>MOLECULE
2zrp_DTP_A_1.pdb
 30 32 0 0 0
SMALL
GASTEIGER

@<TRIPOS>ATOM
      1  PG       -23.8340    6.3990    6.5570 P.3   600  DTP600      0.5373
      2  O1G      -23.4430    5.2050    7.3400 O.3   600  DTP600     -0.1143
      3  O2G      -22.5970    6.8660    5.6380 O.3   600  DTP600     -0.1143
      4  O3G      -25.0930    6.0380    5.6200 O.2   600  DTP600     -0.2221
      5  PB       -24.9520    8.9380    7.0550 P.3   600  DTP600      0.2277
      6  O1B      -25.6670    8.7300    5.7740 O.2   600  DTP600     -0.5168
      7  O2B      -23.7390    9.9900    6.8580 O.3   600  DTP600     -0.4368
      8  O3B      -24.2360    7.5900    7.5600 O.3   600  DTP600     -0.2258
      9  PA       -26.8080    8.1200    8.9010 P.3   600  DTP600      0.2189
     10  O1A      -26.3250    6.8270    9.4280 O.3   600  DTP600     -0.4371
     11  O2A      -28.2480    8.2380    8.1960 O.2   600  DTP600     -0.5170
     12  O3A      -25.8160    9.2530    8.3580 O.3   600  DTP600     -0.2700
     13  O5'      -27.3040    8.7380   10.2990 O.3   600  DTP600     -0.3112
     14  C5'      -26.9390    9.9990   10.8620 C.3   600  DTP600      0.1813
     15  C4'      -27.4340   10.0630   12.3150 C.3   600  DTP600      0.1795
     16  O4'      -28.7360    9.4510   12.4140 O.3   600  DTP600     -0.3155
     17  C3'      -26.5670    9.2290   13.2610 C.3   600  DTP600      0.1883
     18  O3'      -25.4470   10.0370   13.6140 O.3   600  DTP600     -0.2202
     19  C2'      -27.5370    9.2100   14.4450 C.3   600  DTP600      0.1151
     20  C1'      -28.8590    8.8900   13.7370 C.3   600  DTP600      0.2873
     21  N9       -28.9910    7.4270   13.5450 N.pl3 600  DTP600     -0.1460
     22  C8       -28.6300    6.7820   12.4340 C.3   600  DTP600      0.3377
     23  N7       -28.9600    5.4880   12.5680 N.2   600  DTP600     -0.2095
     24  C5       -29.5850    5.3400   13.7370 C.2   600  DTP600      0.2526
     25  C6       -30.1760    4.2620   14.3790 C.2   600  DTP600      0.4393
     26  N6       -30.1910    3.0480   13.8220 N.pl3 600  DTP600      0.2180
     27  N1       -30.7160    4.4640   15.5860 N.2   600  DTP600      0.0021
     28  C2       -30.7240    5.6600   16.1680 C.3   600  DTP600      0.5254
     29  N3       -30.1510    6.7010   15.5700 N.2   600  DTP600     -0.0055
     30  C4       -29.6200    6.6230   14.3630 C.2   600  DTP600      0.3518
@<TRIPOS>BOND
     1     4     1    2
     2     3     1    1
     3     6     5    2
     4     1     2    1
     5     1     8    1
     6     7     5    1
     7     5     8    1
     8     5    12    1
     9    11     9    2
    10    12     9    1
    11     9    10    1
    12     9    13    1
    13    13    14    1
    14    14    15    1
    15    15    16    1
    16    15    17    1
    17    16    20    1
    18    22    23    1
    19    22    21    1
    20    23    24    2
    21    17    18    1
    22    17    19    1
    23    21    20    1
    24    21    30    1
    25    20    19    1
    26    24    30    1
    27    24    25    1
    28    26    25    1
    29    30    29    2
    30    25    27    2
    31    29    28    1
    32    27    28    1
