@<TRIPOS>MOLECULE
2zru_FMN_A_1.pdb
 31 33 0 0 0
SMALL
GASTEIGER

@<TRIPOS>ATOM
      1  N1        60.3500   18.0320   17.6340 N.2   669  FMN669     -0.2887
      2  C2        60.3690   16.8060   18.1840 C.1   669  FMN669      0.3669
      3  O2        60.5950   16.7560   19.4030 O.2   669  FMN669     -0.1744
      4  N3        60.3970   15.6870   17.4170 N.2   669  FMN669     -0.2300
      5  C4        60.1770   15.7060   16.0950 C.1   669  FMN669      0.2513
      6  O4        60.1220   14.6380   15.4400 O.2   669  FMN669     -0.2057
      7  C4A       60.1710   17.0170   15.4110 C.2   669  FMN669      0.2703
      8  N5        60.0740   17.1780   14.0700 N.2   669  FMN669     -0.3882
      9  C5A       60.1700   18.4130   13.5050 C.2   669  FMN669      0.1277
     10  C6        60.2680   18.5110   12.1190 C.3   669  FMN669      0.0820
     11  C7        60.5580   19.7320   11.5080 C.2   669  FMN669     -0.0408
     12  C7M       60.6130   19.7930    9.9860 C.3   669  FMN669      0.0265
     13  C8        60.7700   20.8610   12.2890 C.2   669  FMN669     -0.0280
     14  C8M       61.0210   22.2320   11.6760 C.3   669  FMN669      0.0304
     15  C9        60.6010   20.7880   13.6790 C.2   669  FMN669      0.0123
     16  C9A       60.3230   19.5720   14.2990 C.2   669  FMN669      0.0793
     17  N10       60.3700   19.4550   15.7220 N.pl3 669  FMN669     -0.2545
     18  C10       60.2180   18.1990   16.2930 C.2   669  FMN669      0.2449
     19  C1'       60.2890   20.6220   16.6160 C.3   669  FMN669      0.1336
     20  C2'       61.6830   21.2140   16.8190 C.3   669  FMN669      0.2048
     21  O2'       62.5200   20.2700   17.5250 O.3   669  FMN669     -0.2185
     22  C3'       61.6370   22.5360   17.6040 C.3   669  FMN669      0.2165
     23  O3'       61.1850   22.2410   18.9360 O.3   669  FMN669     -0.2175
     24  C4'       60.7340   23.6030   16.9820 C.3   669  FMN669      0.2147
     25  O4'       60.8150   23.4950   15.5340 O.3   669  FMN669     -0.2176
     26  C5'       61.1130   25.0180   17.4530 C.3   669  FMN669      0.1892
     27  O5'       62.4610   25.3680   17.0850 O.3   669  FMN669     -0.2674
     28  P         62.8230   26.2200   15.7390 P.3   669  FMN669      0.5327
     29  O1P       64.3030   26.4810   15.8700 O.3   669  FMN669     -0.1145
     30  O2P       61.9750   27.4660   15.7920 O.3   669  FMN669     -0.1145
     31  O3P       62.4370   25.3180   14.5640 O.2   669  FMN669     -0.2224
@<TRIPOS>BOND
     1    12    11    1
     2    11    10    1
     3    11    13    2
     4    14    13    1
     5    10     9    1
     6    13    15    1
     7     9     8    2
     8     9    16    1
     9    15    16    2
    10     8     7    2
    11    16    17    1
    12    31    28    2
    13     7     5    1
    14     7    18    1
    15     6     5    2
    16    25    24    1
    17    17    18    1
    18    17    19    1
    19    28    30    1
    20    28    29    1
    21    28    27    1
    22     5     4    2
    23    18     1    2
    24    19    20    1
    25    20    21    1
    26    20    22    1
    27    24    26    1
    28    24    22    1
    29    27    26    1
    30     4     2    2
    31    22    23    1
    32     1     2    2
    33     2     3    2
