@<TRIPOS>MOLECULE
2zrv_FNR_A_1.pdb
 31 33 0 0 0
SMALL
GASTEIGER

@<TRIPOS>ATOM
      1  C9A       60.9420   20.0540   13.6920 C.3   669  FNR669      0.1497
      2  N10       60.8740   19.9440   15.1220 N.pl3 669  FNR669     -0.2691
      3  CAA       60.7170   18.6590   15.6850 C.2   669  FNR669      0.2416
      4  N1        60.9210   18.4310   17.0130 N.2   669  FNR669     -0.2890
      5  C2        61.0500   17.1930   17.4960 C.1   669  FNR669      0.3669
      6  O2        61.2290   17.1180   18.7320 O.2   669  FNR669     -0.1744
      7  N3        60.7160   16.0960   16.7320 N.2   669  FNR669     -0.2300
      8  C4        60.6520   16.1590   15.3720 C.1   669  FNR669      0.2513
      9  O4        60.5260   15.1520   14.6300 O.2   669  FNR669     -0.2057
     10  C4A       60.5880   17.5040   14.7420 C.2   669  FNR669      0.2700
     11  N5        60.4700   17.7100   13.4160 N.2   669  FNR669     -0.3878
     12  C5A       60.8140   18.9060   12.8850 C.2   669  FNR669      0.1320
     13  C6        60.8800   19.0330   11.4920 C.2   669  FNR669      0.0250
     14  C7        61.3170   20.2290   10.9190 C.2   669  FNR669     -0.0238
     15  C7M       61.3770   20.3360    9.4060 C.3   669  FNR669      0.0308
     16  C8        61.5890   21.3430   11.7400 C.2   669  FNR669     -0.0280
     17  C8M       61.8660   22.7280   11.1710 C.3   669  FNR669      0.0304
     18  C9        61.5020   21.2010   13.1210 C.2   669  FNR669     -0.0041
     19  C1'       60.8530   21.1010   16.0490 C.3   669  FNR669      0.1294
     20  C2'       62.2720   21.6640   16.2830 C.3   669  FNR669      0.2044
     21  O2'       63.1310   20.7200   16.9600 O.3   669  FNR669     -0.2185
     22  C3'       62.2490   22.9770   17.0780 C.3   669  FNR669      0.2164
     23  O3'       61.7950   22.6690   18.4170 O.3   669  FNR669     -0.2175
     24  C4'       61.3250   24.0590   16.4840 C.3   669  FNR669      0.2147
     25  O4'       61.3420   23.9920   15.0610 O.3   669  FNR669     -0.2176
     26  C5'       61.6580   25.4890   16.9660 C.3   669  FNR669      0.1892
     27  O5'       63.0040   25.8640   16.6160 O.3   669  FNR669     -0.2674
     28  P         63.4090   26.6000   15.2430 P.3   669  FNR669      0.5327
     29  O1P       64.8690   26.8610   15.4950 O.3   669  FNR669     -0.1145
     30  O2P       62.5630   27.8680   15.2820 O.3   669  FNR669     -0.1145
     31  O3P       63.0290   25.7430   14.0540 O.2   669  FNR669     -0.2224
@<TRIPOS>BOND
     1    15    14    1
     2    14    13    2
     3    14    16    1
     4    17    16    1
     5    13    12    1
     6    16    18    2
     7    12    11    2
     8    12     1    1
     9    18     1    1
    10    11    10    2
    11     1     2    1
    12    31    28    2
    13     9     8    2
    14    10     8    1
    15    10     3    1
    16    25    24    1
    17     2     3    1
    18     2    19    1
    19    28    30    1
    20    28    29    1
    21    28    27    1
    22     8     7    2
    23     3     4    2
    24    19    20    1
    25    20    21    1
    26    20    22    1
    27    24    26    1
    28    24    22    1
    29    27    26    1
    30     7     5    2
    31     4     5    2
    32    22    23    1
    33     5     6    2
