@<TRIPOS>MOLECULE
2zrw_FMN_A_1.pdb
 31 33 0 0 0
SMALL
GASTEIGER

@<TRIPOS>ATOM
      1  N1        60.5600   18.1850   17.2570 N.2   669  FMN669     -0.2887
      2  C2        60.4770   16.9620   17.8060 C.1   669  FMN669      0.3669
      3  O2        60.5460   16.8930   19.0570 O.2   669  FMN669     -0.1744
      4  N3        60.2890   15.8530   17.0570 N.2   669  FMN669     -0.2300
      5  C4        60.0530   15.8960   15.7300 C.1   669  FMN669      0.2513
      6  O4        59.9290   14.8420   15.0420 O.2   669  FMN669     -0.2057
      7  C4A       60.2120   17.2000   15.0420 C.2   669  FMN669      0.2706
      8  N5        60.0290   17.3800   13.7140 N.2   669  FMN669     -0.3841
      9  C5A       60.3850   18.5540   13.1370 C.2   669  FMN669      0.1452
     10  C6        60.4410   18.6060   11.7450 C.2   669  FMN669      0.0252
     11  C7        60.8070   19.7960   11.1030 C.2   669  FMN669     -0.0375
     12  C7M       60.8300   19.8110    9.5850 C.3   669  FMN669      0.0268
     13  C8        61.1380   20.9280   11.8720 C.3   669  FMN669      0.0417
     14  C8M       61.5150   22.2460   11.2320 C.3   669  FMN669      0.0091
     15  C9        61.0890   20.8630   13.2640 C.2   669  FMN669     -0.0049
     16  C9A       60.6090   19.7160   13.9060 C.2   669  FMN669      0.0795
     17  N10       60.5890   19.6320   15.3330 N.pl3 669  FMN669     -0.2545
     18  C10       60.5060   18.3570   15.9170 C.2   669  FMN669      0.2449
     19  C1'       60.4350   20.7810   16.2430 C.3   669  FMN669      0.1336
     20  C2'       61.7960   21.4340   16.4970 C.3   669  FMN669      0.2048
     21  O2'       62.6330   20.4570   17.1180 O.3   669  FMN669     -0.2185
     22  C3'       61.7070   22.7280   17.3310 C.3   669  FMN669      0.2165
     23  O3'       61.2340   22.4400   18.6540 O.3   669  FMN669     -0.2175
     24  C4'       60.7850   23.7960   16.7140 C.3   669  FMN669      0.2147
     25  O4'       60.7980   23.6980   15.2830 O.3   669  FMN669     -0.2176
     26  C5'       61.1830   25.2190   17.1070 C.3   669  FMN669      0.1892
     27  O5'       62.5370   25.5170   16.7250 O.3   669  FMN669     -0.2674
     28  P         62.9270   26.3510   15.3980 P.3   669  FMN669      0.5327
     29  O1P       64.3910   26.6540   15.5360 O.3   669  FMN669     -0.1145
     30  O2P       62.0660   27.6030   15.4400 O.3   669  FMN669     -0.1145
     31  O3P       62.5920   25.4540   14.2150 O.2   669  FMN669     -0.2224
@<TRIPOS>BOND
     1    12    11    1
     2    11    10    2
     3    11    13    1
     4    14    13    1
     5    10     9    1
     6    13    15    1
     7     9     8    2
     8     9    16    1
     9    15    16    2
    10     8     7    2
    11    16    17    1
    12    31    28    2
    13     6     5    2
    14     7     5    1
    15     7    18    1
    16    25    24    1
    17    17    18    1
    18    17    19    1
    19    28    30    1
    20    28    29    1
    21    28    27    1
    22     5     4    2
    23    18     1    2
    24    19    20    1
    25    20    21    1
    26    20    22    1
    27    24    26    1
    28    24    22    1
    29    27    26    1
    30     4     2    2
    31     1     2    2
    32    22    23    1
    33     2     3    2
