@<TRIPOS>MOLECULE
2zrw_IPE_A_1.pdb
 14 13 0 0 0
SMALL
GASTEIGER

@<TRIPOS>ATOM
      1  C1        56.5110   15.6930   14.5430 C.3   701  IPE701      0.1535
      2  O1        55.1380   15.4750   14.8570 O.3   701  IPE701     -0.3135
      3  C2        56.7700   17.1850   14.4050 C.3   701  IPE701      0.0545
      4  C3        57.0850   17.8470   15.7310 C.2   701  IPE701     -0.0414
      5  C4        57.3340   19.1530   15.7330 C.2   701  IPE701     -0.0090
      6  C5        56.8890   17.1290   17.0400 C.3   701  IPE701      0.0264
      7  PA        54.4020   14.0760   14.5190 P.3   701  IPE701      0.2230
      8  O1A       53.1280   14.0320   15.3510 O.3   701  IPE701     -0.4370
      9  O2A       54.2920   13.9300   13.0190 O.2   701  IPE701     -0.5169
     10  O3A       55.4670   13.0150   15.1220 O.3   701  IPE701     -0.2261
     11  PB        55.1700   11.4460   15.3950 P.3   701  IPE701      0.5373
     12  O1B       55.8200   11.1400   16.7270 O.3   701  IPE701     -0.1143
     13  O2B       53.6650   11.4020   15.4370 O.3   701  IPE701     -0.1143
     14  O3B       55.8320   10.7350   14.2320 O.2   701  IPE701     -0.2221
@<TRIPOS>BOND
     1     9     7    2
     2    14    11    2
     3     3     1    1
     4     3     4    1
     5     7     2    1
     6     7    10    1
     7     7     8    1
     8     1     2    1
     9    10    11    1
    10    11    13    1
    11    11    12    1
    12     4     5    2
    13     4     6    1
