@<TRIPOS>MOLECULE
2zrx_FMN_A_1.pdb
 31 33 0 0 0
SMALL
GASTEIGER

@<TRIPOS>ATOM
      1  N1        60.7450   18.5710   17.1150 N.2   669  FMN669     -0.2887
      2  C2        60.4510   17.3590   17.6590 C.1   669  FMN669      0.3669
      3  O2        60.5570   17.1960   18.8910 O.2   669  FMN669     -0.1744
      4  N3        60.2710   16.2660   16.8870 N.2   669  FMN669     -0.2300
      5  C4        60.1840   16.3130   15.5370 C.1   669  FMN669      0.2513
      6  O4        60.3320   15.2460   14.8860 O.2   669  FMN669     -0.2057
      7  C4A       60.3280   17.6460   14.8820 C.2   669  FMN669      0.2703
      8  N5        60.2130   17.8500   13.5580 N.2   669  FMN669     -0.3882
      9  C5A       60.6510   18.9910   12.9750 C.2   669  FMN669      0.1277
     10  C6        60.7100   19.0640   11.5790 C.3   669  FMN669      0.0820
     11  C7        61.1070   20.2370   10.9380 C.2   669  FMN669     -0.0408
     12  C7M       61.1900   20.2560    9.4320 C.3   669  FMN669      0.0265
     13  C8        61.3950   21.3670   11.7040 C.2   669  FMN669     -0.0280
     14  C8M       61.7320   22.6940   11.0820 C.3   669  FMN669      0.0304
     15  C9        61.2960   21.3070   13.0920 C.2   669  FMN669      0.0123
     16  C9A       60.8940   20.1340   13.7460 C.2   669  FMN669      0.0793
     17  N10       60.8370   20.0600   15.1750 N.pl3 669  FMN669     -0.2545
     18  C10       60.5960   18.7990   15.7750 C.2   669  FMN669      0.2449
     19  C1'       60.6900   21.2580   16.0180 C.3   669  FMN669      0.1336
     20  C2'       62.0460   21.8260   16.4360 C.3   669  FMN669      0.2048
     21  O2'       62.7950   20.8450   17.1660 O.3   669  FMN669     -0.2185
     22  C3'       61.9220   23.1060   17.2680 C.3   669  FMN669      0.2165
     23  O3'       61.5110   22.8140   18.6090 O.3   669  FMN669     -0.2175
     24  C4'       60.9750   24.1380   16.6570 C.3   669  FMN669      0.2147
     25  O4'       60.8950   24.0060   15.2300 O.3   669  FMN669     -0.2176
     26  C5'       61.4100   25.5540   17.0280 C.3   669  FMN669      0.1892
     27  O5'       62.7450   25.8260   16.5960 O.3   669  FMN669     -0.2674
     28  P         63.0980   26.6780   15.2770 P.3   669  FMN669      0.5327
     29  O1P       64.5300   27.0800   15.4860 O.3   669  FMN669     -0.1145
     30  O2P       62.1190   27.8220   15.2850 O.3   669  FMN669     -0.1145
     31  O3P       62.8980   25.7220   14.1300 O.2   669  FMN669     -0.2224
@<TRIPOS>BOND
     1    12    11    1
     2    11    10    1
     3    11    13    2
     4    14    13    1
     5    10     9    1
     6    13    15    1
     7     9     8    2
     8     9    16    1
     9    15    16    2
    10     8     7    2
    11    16    17    1
    12    31    28    2
    13     7     5    1
    14     7    18    1
    15     6     5    2
    16    17    18    1
    17    17    19    1
    18    25    24    1
    19    28    30    1
    20    28    29    1
    21    28    27    1
    22     5     4    2
    23    18     1    2
    24    19    20    1
    25    20    21    1
    26    20    22    1
    27    27    26    1
    28    24    26    1
    29    24    22    1
    30     4     2    2
    31     1     2    2
    32    22    23    1
    33     2     3    2
