@<TRIPOS>MOLECULE
2zrx_DMA_A_1.pdb
 14 13 0 0 0
SMALL
GASTEIGER

@<TRIPOS>ATOM
      1  C1        56.7130   15.8370   14.5700 C.3   701  DMA701      0.1747
      2  O1        55.2970   15.6710   14.5700 O.3   701  DMA701     -0.3089
      3  C2        57.0050   17.3130   14.5890 C.2   701  DMA701     -0.0024
      4  C3        57.0480   18.0410   15.7130 C.2   701  DMA701     -0.0454
      5  C4        57.3370   19.5050   15.6000 C.3   701  DMA701      0.0261
      6  C5        56.8110   17.4480   17.0700 C.3   701  DMA701      0.0261
      7  PA        54.5860   14.2640   14.2200 P.3   701  DMA701      0.2233
      8  O1A       54.7560   13.9820   12.7470 O.2   701  DMA701     -0.5169
      9  O2A       53.1880   14.3310   14.7970 O.3   701  DMA701     -0.4370
     10  O3A       55.5060   13.2290   15.0540 O.3   701  DMA701     -0.2261
     11  PB        55.2350   11.6420   15.2010 P.3   701  DMA701      0.5373
     12  O1B       53.7430   11.4900   15.0400 O.3   701  DMA701     -0.1143
     13  O2B       55.7500   11.3670   16.6000 O.3   701  DMA701     -0.1143
     14  O3B       56.0300   10.9730   14.0870 O.2   701  DMA701     -0.2221
@<TRIPOS>BOND
     1     8     7    2
     2    14    11    2
     3     7     2    1
     4     7     9    1
     5     7    10    1
     6     1     2    1
     7     1     3    1
     8     3     4    2
     9    12    11    1
    10    10    11    1
    11    11    13    1
    12     5     4    1
    13     4     6    1
