@<TRIPOS>MOLECULE
2zry_FNR_A_1.pdb
 31 33 0 0 0
SMALL
GASTEIGER

@<TRIPOS>ATOM
      1  C9A       60.6090   19.7440   13.9020 C.2   669  FNR669      0.0793
      2  N10       60.4430   19.7390   15.3230 N.pl3 669  FNR669     -0.2545
      3  CAA       60.3080   18.4760   15.9410 C.2   669  FNR669      0.2449
      4  N1        60.3650   18.3010   17.2760 N.2   669  FNR669     -0.2887
      5  C2        60.4930   17.0730   17.8160 C.1   669  FNR669      0.3669
      6  O2        60.5250   16.9810   19.0680 O.2   669  FNR669     -0.1744
      7  N3        60.2390   15.9580   17.0820 N.2   669  FNR669     -0.2300
      8  C4        60.0000   15.9900   15.7430 C.1   669  FNR669      0.2513
      9  O4        60.1360   14.9570   15.0470 O.2   669  FNR669     -0.2057
     10  C4A       60.0500   17.3060   15.0570 C.2   669  FNR669      0.2703
     11  N5        59.8730   17.4640   13.7290 N.2   669  FNR669     -0.3882
     12  C5A       60.2340   18.6190   13.1320 C.2   669  FNR669      0.1277
     13  C6        60.4040   18.6310   11.7460 C.3   669  FNR669      0.0820
     14  C7        60.8150   19.8030   11.1130 C.2   669  FNR669     -0.0408
     15  C7M       60.8320   19.8120    9.6110 C.3   669  FNR669      0.0265
     16  C8        61.0270   20.9700   11.8770 C.2   669  FNR669     -0.0280
     17  C8M       61.3600   22.3130   11.2800 C.3   669  FNR669      0.0304
     18  C9        61.0490   20.8950   13.2580 C.2   669  FNR669      0.0123
     19  C1'       60.3300   20.9590   16.1470 C.3   669  FNR669      0.1336
     20  C2'       61.7070   21.5270   16.4840 C.3   669  FNR669      0.2048
     21  O2'       62.5220   20.5390   17.1390 O.3   669  FNR669     -0.2185
     22  C3'       61.6270   22.8100   17.3200 C.3   669  FNR669      0.2165
     23  O3'       61.1570   22.5360   18.6380 O.3   669  FNR669     -0.2175
     24  C4'       60.7140   23.8660   16.7090 C.3   669  FNR669      0.2147
     25  O4'       60.7850   23.7310   15.2850 O.3   669  FNR669     -0.2176
     26  C5'       61.1180   25.2850   17.1120 C.3   669  FNR669      0.1892
     27  O5'       62.4790   25.5980   16.7370 O.3   669  FNR669     -0.2674
     28  P         62.8670   26.3310   15.3490 P.3   669  FNR669      0.5327
     29  O1P       64.3560   26.4940   15.4720 O.3   669  FNR669     -0.1145
     30  O2P       62.0800   27.6430   15.3840 O.3   669  FNR669     -0.1145
     31  O3P       62.4660   25.3830   14.2200 O.2   669  FNR669     -0.2224
@<TRIPOS>BOND
     1    15    14    1
     2    14    13    1
     3    14    16    2
     4    17    16    1
     5    13    12    1
     6    16    18    1
     7    12    11    2
     8    12     1    1
     9    18     1    2
    10    11    10    2
    11     1     2    1
    12    31    28    2
    13     9     8    2
    14    10     8    1
    15    10     3    1
    16    25    24    1
    17     2     3    1
    18     2    19    1
    19    28    30    1
    20    28    29    1
    21    28    27    1
    22     8     7    2
    23     3     4    2
    24    19    20    1
    25    20    21    1
    26    20    22    1
    27    24    26    1
    28    24    22    1
    29    27    26    1
    30     7     5    2
    31     4     5    2
    32    22    23    1
    33     5     6    2
