@<TRIPOS>MOLECULE
2zry_IPE_A_1.pdb
 14 13 0 0 0
SMALL
GASTEIGER

@<TRIPOS>ATOM
      1  C1        56.3330   15.4440   14.9200 C.3   701  IPE701      0.1535
      2  O1        55.0000   15.3060   14.4530 O.3   701  IPE701     -0.3135
      3  C2        56.9050   16.7570   14.4180 C.3   701  IPE701      0.0545
      4  C3        57.0460   17.7590   15.5350 C.2   701  IPE701     -0.0414
      5  C4        57.1610   19.0320   15.2100 C.2   701  IPE701     -0.0090
      6  C5        57.0380   17.3600   16.9890 C.3   701  IPE701      0.0264
      7  PA        54.3180   13.8610   14.2930 P.3   701  IPE701      0.2230
      8  O1A       52.9960   13.9280   15.0280 O.3   701  IPE701     -0.4370
      9  O2A       54.3470   13.4810   12.8300 O.2   701  IPE701     -0.5169
     10  O3A       55.3580   12.9640   15.1300 O.3   701  IPE701     -0.2261
     11  PB        55.1800   11.4010   15.4540 P.3   701  IPE701      0.5373
     12  O1B       55.8250   11.2710   16.8190 O.3   701  IPE701     -0.1143
     13  O2B       53.6720   11.2110   15.4540 O.3   701  IPE701     -0.1143
     14  O3B       55.9240   10.7040   14.3240 O.2   701  IPE701     -0.2221
@<TRIPOS>BOND
     1     9     7    2
     2     7     2    1
     3     7     8    1
     4     7    10    1
     5    14    11    2
     6     3     1    1
     7     3     4    1
     8     2     1    1
     9    10    11    1
    10     5     4    2
    11    11    13    1
    12    11    12    1
    13     4     6    1
