@<TRIPOS>MOLECULE
2zrz_DMA_A_1.pdb
 14 13 0 0 0
SMALL
GASTEIGER

@<TRIPOS>ATOM
      1  C1        56.7180   15.5690   14.6340 C.3   701  DMA701      0.1747
      2  O1        55.3170   15.3800   14.8590 O.3   701  DMA701     -0.3089
      3  C2        57.0540   17.0470   14.5990 C.2   701  DMA701     -0.0024
      4  C3        57.1580   17.8320   15.6890 C.2   701  DMA701     -0.0454
      5  C4        57.4920   19.2820   15.5080 C.3   701  DMA701      0.0261
      6  C5        56.9420   17.3150   17.0830 C.3   701  DMA701      0.0261
      7  PA        54.5140   14.0930   14.2990 P.3   701  DMA701      0.2233
      8  O1A       54.3400   14.2450   12.8000 O.2   701  DMA701     -0.5169
      9  O2A       53.3080   13.8740   15.2100 O.3   701  DMA701     -0.4370
     10  O3A       55.5830   12.9050   14.4720 O.3   701  DMA701     -0.2261
     11  PB        55.3380   11.5730   15.3430 P.3   701  DMA701      0.5373
     12  O1B       53.8850   11.2360   15.1100 O.3   701  DMA701     -0.1143
     13  O2B       55.6660   12.0070   16.7570 O.3   701  DMA701     -0.1143
     14  O3B       56.3160   10.5870   14.7090 O.2   701  DMA701     -0.2221
@<TRIPOS>BOND
     1     8     7    2
     2     7    10    1
     3     7     2    1
     4     7     9    1
     5    10    11    1
     6     3     1    1
     7     3     4    2
     8     1     2    1
     9    14    11    2
    10    12    11    1
    11    11    13    1
    12     5     4    1
    13     4     6    1
