@<TRIPOS>MOLECULE
2zrz_FNR_A_1.pdb
 31 33 0 0 0
SMALL
GASTEIGER

@<TRIPOS>ATOM
      1  C9A       60.8230   19.9210   13.8840 C.3   669  FNR669      0.1497
      2  N10       60.8310   19.8760   15.3200 N.pl3 669  FNR669     -0.2691
      3  CAA       60.6570   18.6080   15.9230 C.2   669  FNR669      0.2416
      4  N1        60.6160   18.4360   17.2580 N.2   669  FNR669     -0.2890
      5  C2        60.5780   17.2110   17.8140 C.1   669  FNR669      0.3669
      6  O2        60.7520   17.1090   19.0510 O.2   669  FNR669     -0.1744
      7  N3        60.2670   16.1190   17.0740 N.2   669  FNR669     -0.2300
      8  C4        60.1890   16.1420   15.7140 C.1   669  FNR669      0.2513
      9  O4        60.3320   15.0880   15.0430 O.2   669  FNR669     -0.2057
     10  C4A       60.3820   17.4460   15.0310 C.2   669  FNR669      0.2700
     11  N5        60.0630   17.6510   13.7470 N.2   669  FNR669     -0.3878
     12  C5A       60.4650   18.7830   13.1390 C.2   669  FNR669      0.1320
     13  C6        60.4780   18.8360   11.7480 C.2   669  FNR669      0.0250
     14  C7        60.9810   19.9480   11.0810 C.2   669  FNR669     -0.0238
     15  C7M       61.1270   19.9020    9.5800 C.3   669  FNR669      0.0308
     16  C8        61.3370   21.0790   11.8170 C.2   669  FNR669     -0.0280
     17  C8M       61.5670   22.4120   11.1600 C.3   669  FNR669      0.0304
     18  C9        61.2820   21.0490   13.2010 C.2   669  FNR669     -0.0041
     19  C1'       60.6610   21.0790   16.1570 C.3   669  FNR669      0.1294
     20  C2'       62.0220   21.6900   16.5040 C.3   669  FNR669      0.2044
     21  O2'       62.8350   20.7300   17.1990 O.3   669  FNR669     -0.2185
     22  C3'       61.9210   22.9920   17.3160 C.3   669  FNR669      0.2164
     23  O3'       61.4840   22.7140   18.6450 O.3   669  FNR669     -0.2175
     24  C4'       60.9830   24.0440   16.7120 C.3   669  FNR669      0.2147
     25  O4'       60.9360   23.9270   15.2900 O.3   669  FNR669     -0.2176
     26  C5'       61.4150   25.4610   17.0740 C.3   669  FNR669      0.1892
     27  O5'       62.7580   25.6910   16.6520 O.3   669  FNR669     -0.2674
     28  P         63.1200   26.5220   15.3300 P.3   669  FNR669      0.5327
     29  O1P       64.5800   26.8360   15.4580 O.3   669  FNR669     -0.1145
     30  O2P       62.2180   27.7270   15.3610 O.3   669  FNR669     -0.1145
     31  O3P       62.8230   25.5440   14.2130 O.2   669  FNR669     -0.2224
@<TRIPOS>BOND
     1    15    14    1
     2    14    13    2
     3    14    16    1
     4    17    16    1
     5    13    12    1
     6    16    18    2
     7    12    11    2
     8    12     1    1
     9    18     1    1
    10    11    10    2
    11     1     2    1
    12    31    28    2
    13    10     8    1
    14    10     3    1
    15     9     8    2
    16    25    24    1
    17     2     3    1
    18     2    19    1
    19    28    30    1
    20    28    29    1
    21    28    27    1
    22     8     7    2
    23     3     4    2
    24    19    20    1
    25    20    21    1
    26    20    22    1
    27    27    26    1
    28    24    26    1
    29    24    22    1
    30     7     5    2
    31     4     5    2
    32    22    23    1
    33     5     6    2
