@<TRIPOS>MOLECULE
2zs0_HEM_A_1.pdb
 43 50 0 0 0
SMALL
GASTEIGER

@<TRIPOS>ATOM
      1  CHA       41.0610   25.2360    5.4840 C.2   200  HEM200      0.0000
      2  CHB       37.0030   26.5260    7.7590 C.2   200  HEM200      0.0000
      3  CHC       36.4030   30.1120    4.5710 C.2   200  HEM200      0.0000
      4  CHD       40.0640   28.4300    1.9880 C.2   200  HEM200      0.0000
      5  C1A       40.0230   25.2650    6.3900 C.2   200  HEM200      0.0000
      6  C2A       39.8710   24.3740    7.5420 C.2   200  HEM200      0.0000
      7  C3A       38.7220   24.7290    8.1700 C.2   200  HEM200      0.0000
      8  C4A       38.1710   25.8410    7.4210 C.2   200  HEM200      0.0000
      9  CMA       38.1040   24.1140    9.4060 C.3   200  HEM200      0.0000
     10  CAA       40.8170   23.2850    7.9240 C.3   200  HEM200      0.0000
     11  CBA       41.8540   23.7840    8.9090 C.3   200  HEM200      0.0000
     12  CGA       42.8750   22.7190    9.2730 C.2   200  HEM200      0.0000
     13  O1A       42.5000   21.7640    9.9960 O.co2 200  HEM200      0.0000
     14  O2A       44.0400   22.8400    8.8030 O.co2 200  HEM200      0.0000
     15  C1B       36.4740   27.6440    7.1210 C.ar  200  HEM200      0.0000
     16  C2B       35.2900   28.3670    7.5400 C.ar  200  HEM200      0.0000
     17  C3B       35.1360   29.4030    6.6550 C.ar  200  HEM200      0.0000
     18  C4B       36.2150   29.2980    5.6850 C.ar  200  HEM200      0.0000
     19  CMB       34.4200   28.0120    8.7330 C.3   200  HEM200      0.0000
     20  CAB       34.0670   30.4360    6.6240 C.2   200  HEM200      0.0000
     21  CBB       34.1600   31.7570    6.4780 C.2   200  HEM200      0.0000
     22  C1C       37.2910   29.9390    3.5470 C.2   200  HEM200      0.0000
     23  C2C       37.3030   30.6980    2.3080 C.2   200  HEM200      0.0000
     24  C3C       38.2560   30.1270    1.5180 C.2   200  HEM200      0.0000
     25  C4C       38.9270   29.1320    2.3380 C.2   200  HEM200      0.0000
     26  CMC       36.3890   31.8760    2.0230 C.3   200  HEM200      0.0000
     27  CAC       38.6240   30.4330    0.1200 C.2   200  HEM200      0.0000
     28  CBC       37.8120   30.7900   -0.8850 C.2   200  HEM200      0.0000
     29  C1D       40.7190   27.4590    2.7450 C.ar  200  HEM200      0.0000
     30  C2D       41.9300   26.8040    2.3570 C.ar  200  HEM200      0.0000
     31  C3D       42.2260   25.9010    3.3490 C.ar  200  HEM200      0.0000
     32  C4D       41.1780   26.0060    4.3430 C.ar  200  HEM200      0.0000
     33  CMD       42.7030   27.0870    1.0840 C.3   200  HEM200      0.0000
     34  CAD       43.4100   24.9770    3.3930 C.3   200  HEM200      0.0000
     35  CBD       43.1970   23.6700    2.6140 C.3   200  HEM200      0.0000
     36  CGD       44.4600   22.8390    2.7410 C.2   200  HEM200      0.0000
     37  O1D       44.7000   22.2710    3.8390 O.co2 200  HEM200      0.0000
     38  O2D       45.2060   22.7710    1.7360 O.co2 200  HEM200      0.0000
     39  NA        38.9620   26.1260    6.3500 N.2   200  HEM200      0.0000
     40  NB        37.0080   28.2370    5.9940 N.ar  200  HEM200      0.0000
     41  NC        38.2710   29.0010    3.5170 N.2   200  HEM200      0.0000
     42  ND        40.2940   26.9790    3.9670 N.ar  200  HEM200      0.0000
     43 FE         38.6320   27.5810    4.9560 Fe    200  HEM200      0.0000
@<TRIPOS>BOND
     1    28    27    2
     2    27    24    1
     3    33    30    1
     4    24    23    2
     5    24    25    1
     6    38    36   ar
     7     4    25    1
     8     4    29    2
     9    26    23    1
    10    23    22    1
    11    25    41    2
    12    30    29   ar
    13    30    31   ar
    14    35    36    1
    15    35    34    1
    16    36    37   ar
    17    29    42   ar
    18    31    34    1
    19    31    32   ar
    20    41    22    1
    21    41    43    1
    22    22     3    2
    23    42    32   ar
    24    42    43    1
    25    32     1    2
    26     3    18    1
    27    43    40    1
    28    43    39    1
    29     1     5    1
    30    18    40   ar
    31    18    17   ar
    32    40    15   ar
    33    39     5    2
    34    39     8    1
    35     5     6    1
    36    21    20    2
    37    20    17    1
    38    17    16   ar
    39    15    16   ar
    40    15     2    1
    41     8     2    2
    42     8     7    1
    43    16    19    1
    44     6    10    1
    45     6     7    2
    46    10    11    1
    47     7     9    1
    48    14    12   ar
    49    11    12    1
    50    12    13   ar
