@<TRIPOS>MOLECULE
2zs1_HEM_A_1.pdb
 43 50 0 0 0
SMALL
GASTEIGER

@<TRIPOS>ATOM
      1  CHA       41.1480   25.1770    5.4300 C.2   200  HEM200      0.0000
      2  CHB       37.1090   26.5150    7.7460 C.2   200  HEM200      0.0000
      3  CHC       36.4590   30.0790    4.5210 C.2   200  HEM200      0.0000
      4  CHD       40.1860   28.4290    1.9550 C.2   200  HEM200      0.0000
      5  C1A       40.1130   25.2200    6.3440 C.2   200  HEM200      0.0000
      6  C2A       39.9490   24.3210    7.4840 C.2   200  HEM200      0.0000
      7  C3A       38.8070   24.6870    8.1270 C.2   200  HEM200      0.0000
      8  C4A       38.2590   25.8270    7.3960 C.2   200  HEM200      0.0000
      9  CMA       38.1900   24.0690    9.3690 C.3   200  HEM200      0.0000
     10  CAA       40.8880   23.2000    7.8510 C.3   200  HEM200      0.0000
     11  CBA       41.9730   23.6630    8.8110 C.3   200  HEM200      0.0000
     12  CGA       42.9690   22.5840    9.1990 C.2   200  HEM200      0.0000
     13  O1A       42.5880   21.6760    9.9740 O.co2 200  HEM200      0.0000
     14  O2A       44.1220   22.6390    8.6990 O.co2 200  HEM200      0.0000
     15  C1B       36.5780   27.6110    7.1070 C.ar  200  HEM200      0.0000
     16  C2B       35.3710   28.3360    7.5260 C.ar  200  HEM200      0.0000
     17  C3B       35.2050   29.3640    6.6300 C.ar  200  HEM200      0.0000
     18  C4B       36.2860   29.2530    5.6480 C.ar  200  HEM200      0.0000
     19  CMB       34.5180   27.9830    8.7150 C.3   200  HEM200      0.0000
     20  CAB       34.1320   30.4130    6.5960 C.2   200  HEM200      0.0000
     21  CBB       34.2570   31.7430    6.5590 C.2   200  HEM200      0.0000
     22  C1C       37.3730   29.9280    3.5050 C.2   200  HEM200      0.0000
     23  C2C       37.3970   30.7020    2.2760 C.2   200  HEM200      0.0000
     24  C3C       38.3990   30.1730    1.4960 C.2   200  HEM200      0.0000
     25  C4C       39.0540   29.1460    2.3050 C.2   200  HEM200      0.0000
     26  CMC       36.4380   31.8560    1.9890 C.3   200  HEM200      0.0000
     27  CAC       38.8070   30.5380    0.1090 C.2   200  HEM200      0.0000
     28  CBC       37.9980   30.7180   -0.9470 C.2   200  HEM200      0.0000
     29  C1D       40.8300   27.4260    2.6990 C.ar  200  HEM200      0.0000
     30  C2D       42.0430   26.7530    2.2960 C.ar  200  HEM200      0.0000
     31  C3D       42.3320   25.8420    3.2970 C.ar  200  HEM200      0.0000
     32  C4D       41.2720   25.9470    4.2850 C.ar  200  HEM200      0.0000
     33  CMD       42.8230   27.0080    1.0300 C.3   200  HEM200      0.0000
     34  CAD       43.5200   24.9250    3.3290 C.3   200  HEM200      0.0000
     35  CBD       43.3010   23.6090    2.5530 C.3   200  HEM200      0.0000
     36  CGD       44.5640   22.7700    2.6650 C.2   200  HEM200      0.0000
     37  O1D       44.8260   22.1940    3.7550 O.co2 200  HEM200      0.0000
     38  O2D       45.2910   22.7020    1.6430 O.co2 200  HEM200      0.0000
     39  NA        39.0570   26.1150    6.3170 N.2   200  HEM200      0.0000
     40  NB        37.1000   28.1930    5.9650 N.ar  200  HEM200      0.0000
     41  NC        38.3690   29.0030    3.4820 N.2   200  HEM200      0.0000
     42  ND        40.3990   26.9270    3.9160 N.ar  200  HEM200      0.0000
     43 FE         38.7550   27.5800    4.9200 Fe    200  HEM200      0.0000
@<TRIPOS>BOND
     1    28    27    2
     2    27    24    1
     3    33    30    1
     4    24    23    2
     5    24    25    1
     6    38    36   ar
     7     4    25    1
     8     4    29    2
     9    26    23    1
    10    23    22    1
    11    30    29   ar
    12    30    31   ar
    13    25    41    2
    14    35    36    1
    15    35    34    1
    16    36    37   ar
    17    29    42   ar
    18    31    34    1
    19    31    32   ar
    20    41    22    1
    21    41    43    1
    22    22     3    2
    23    42    32   ar
    24    42    43    1
    25    32     1    2
    26     3    18    1
    27    43    40    1
    28    43    39    1
    29     1     5    1
    30    18    40   ar
    31    18    17   ar
    32    40    15   ar
    33    39     5    2
    34    39     8    1
    35     5     6    1
    36    21    20    2
    37    20    17    1
    38    17    16   ar
    39    15    16   ar
    40    15     2    1
    41     8     2    2
    42     8     7    1
    43     6    10    1
    44     6     7    2
    45    16    19    1
    46    10    11    1
    47     7     9    1
    48    14    12   ar
    49    11    12    1
    50    12    13   ar
