@<TRIPOS>MOLECULE
2zs7_FLC_A_1.pdb
 13 12 0 0 0
SMALL
GASTEIGER

@<TRIPOS>ATOM
      1  CAC       43.1950   39.7150   28.4740 C.2   600  FLC600      0.3680
      2  CA        44.4910   40.5300   28.4230 C.3   600  FLC600      0.1560
      3  CB        44.4750   41.5460   27.2820 C.3   600  FLC600      0.2402
      4  CBC       43.3080   42.5180   27.4740 C.2   600  FLC600      0.3927
      5  CG        45.8000   42.3130   27.2820 C.3   600  FLC600      0.1560
      6  CGC       45.9070   43.2940   26.1140 C.2   600  FLC600      0.3680
      7  OA1       42.8980   39.0590   27.4550 O.co2 600  FLC600     -0.2455
      8  OA2       42.5430   39.7500   29.5400 O.co2 600  FLC600     -0.2455
      9  OB1       43.3130   43.2140   28.5120 O.co2 600  FLC600     -0.2429
     10  OB2       42.4340   42.5370   26.5810 O.co2 600  FLC600     -0.2429
     11  OG1       45.6140   44.4880   26.3410 O.co2 600  FLC600     -0.2455
     12  OG2       46.2970   42.8260   25.0230 O.co2 600  FLC600     -0.2455
     13  OHB       44.3220   40.8630   26.0350 O.3   600  FLC600     -0.2129
@<TRIPOS>BOND
     1    12     6   ar
     2    13     3    1
     3     6    11   ar
     4     6     5    1
     5    10     4   ar
     6     3     5    1
     7     3     4    1
     8     3     2    1
     9     7     1   ar
    10     4     9   ar
    11     2     1    1
    12     1     8   ar
