@<TRIPOS>MOLECULE
2zs8_ADP_A_1.pdb
 27 29 0 0 0
SMALL
GASTEIGER

@<TRIPOS>ATOM
      1  PB         8.6300   47.5830   28.1510 P.3   315  ADP315      0.5373
      2  O1B        8.4120   48.1590   26.8050 O.2   315  ADP315     -0.2221
      3  O2B        9.8410   46.5240   28.1640 O.3   315  ADP315     -0.1143
      4  O3B        7.3430   46.7810   28.6890 O.3   315  ADP315     -0.1143
      5  PA         8.5640   50.2260   29.0690 P.3   315  ADP315      0.2231
      6  O1A        8.8550   50.9560   27.8180 O.2   315  ADP315     -0.5169
      7  O2A        8.2660   50.9930   30.4520 O.3   315  ADP315     -0.4370
      8  O3A        8.9610   48.6800   29.2810 O.3   315  ADP315     -0.2261
      9  O5'        7.0140   49.8710   28.8140 O.3   315  ADP315     -0.3111
     10  C5'        6.0020   50.8370   29.1070 C.3   315  ADP315      0.1813
     11  C4'        4.5980   50.2700   28.8800 C.3   315  ADP315      0.1821
     12  O4'        3.6550   51.3550   28.8990 O.3   315  ADP315     -0.3135
     13  C3'        4.4700   49.7440   27.4500 C.3   315  ADP315      0.2184
     14  O3'        3.1670   49.1880   27.2470 O.3   315  ADP315     -0.2174
     15  C2'        4.5780   51.0790   26.7160 C.3   315  ADP315      0.2570
     16  O2'        4.0030   50.9490   25.4140 O.3   315  ADP315     -0.2130
     17  C1'        3.6760   51.9560   27.5900 C.3   315  ADP315      0.3186
     18  N9         4.2130   53.3320   27.6490 N.pl3 315  ADP315     -0.1439
     19  C8         5.4990   53.6710   27.7200 C.3   315  ADP315      0.3377
     20  N7         5.6110   54.9970   27.7720 N.2   315  ADP315     -0.2095
     21  C5         4.3890   55.5080   27.7330 C.2   315  ADP315      0.2526
     22  C6         3.8770   56.8030   27.7680 C.2   315  ADP315      0.4393
     23  N6         4.6960   57.8490   27.8370 N.pl3 315  ADP315      0.2180
     24  N1         2.5530   56.9750   27.7260 N.2   315  ADP315      0.0021
     25  C2         1.7270   55.9380   27.6500 C.3   315  ADP315      0.5254
     26  N3         2.1760   54.6990   27.6130 N.2   315  ADP315     -0.0055
     27  C4         3.4900   54.4520   27.6540 C.2   315  ADP315      0.3518
@<TRIPOS>BOND
     1    16    15    1
     2    15    13    1
     3    15    17    1
     4     2     1    2
     5    14    13    1
     6    13    11    1
     7    17    18    1
     8    17    12    1
     9    26    25    1
    10    26    27    2
    11    18    27    1
    12    18    19    1
    13    25    24    1
    14    27    21    1
    15    19    20    1
    16    24    22    2
    17    21    22    1
    18    21    20    2
    19    22    23    1
    20     6     5    2
    21     1     3    1
    22     1     4    1
    23     1     8    1
    24     9     5    1
    25     9    10    1
    26    11    12    1
    27    11    10    1
    28     5     8    1
    29     5     7    1
