@<TRIPOS>MOLECULE
2zs9_ADP_A_1.pdb
 27 29 0 0 0
SMALL
GASTEIGER

@<TRIPOS>ATOM
      1  PB        15.2260   58.9930   62.1010 P.3   315  ADP315      0.5373
      2  O1B       14.6030   58.9050   63.4410 O.3   315  ADP315     -0.1143
      3  O2B       16.6720   58.2890   62.0580 O.3   315  ADP315     -0.1143
      4  O3B       15.4560   60.5150   61.6350 O.2   315  ADP315     -0.2221
      5  PA        12.8980   57.7010   61.2080 P.3   315  ADP315      0.2231
      6  O1A       12.5390   57.0040   62.4620 O.3   315  ADP315     -0.4370
      7  O2A       12.0480   57.5130   59.8550 O.2   315  ADP315     -0.5169
      8  O3A       14.3680   58.2970   60.9300 O.3   315  ADP315     -0.2261
      9  O5'       12.3030   59.1640   61.5140 O.3   315  ADP315     -0.3111
     10  C5'       11.0060   59.5390   61.0460 C.3   315  ADP315      0.1813
     11  C4'       10.7600   61.0350   61.2580 C.3   315  ADP315      0.1821
     12  O4'        9.3410   61.2600   61.2500 O.3   315  ADP315     -0.3135
     13  C3'       11.1540   61.4160   62.6860 C.3   315  ADP315      0.2184
     14  O3'       10.9500   62.8160   62.9030 O.3   315  ADP315     -0.2174
     15  C2'       10.0750   60.6330   63.4290 C.3   315  ADP315      0.2570
     16  O2'        9.9010   61.1980   64.7300 O.3   315  ADP315     -0.2130
     17  C1'        8.8510   60.9580   62.5700 C.3   315  ADP315      0.3186
     18  N9         7.9470   59.7870   62.5540 N.pl3 315  ADP315     -0.1439
     19  C8         8.3190   58.5130   62.4620 C.3   315  ADP315      0.3377
     20  N7         7.2440   57.7290   62.4660 N.2   315  ADP315     -0.2095
     21  C5         6.1730   58.5100   62.5610 C.2   315  ADP315      0.2526
     22  C6         4.8050   58.2730   62.5960 C.2   315  ADP315      0.4393
     23  N6         4.3290   57.0330   62.5380 N.pl3 315  ADP315      0.2180
     24  N1         3.9700   59.3190   62.6870 N.2   315  ADP315      0.0021
     25  C2         4.4310   60.5550   62.7450 C.3   315  ADP315      0.5254
     26  N3         5.7280   60.8190   62.7140 N.2   315  ADP315     -0.0055
     27  C4         6.6160   59.8260   62.6210 C.2   315  ADP315      0.3518
@<TRIPOS>BOND
     1     7     5    2
     2     8     5    1
     3     8     1    1
     4    10    11    1
     5    10     9    1
     6     5     9    1
     7     5     6    1
     8    12    11    1
     9    12    17    1
    10    11    13    1
    11     4     1    2
    12     3     1    1
    13     1     2    1
    14    19    20    1
    15    19    18    1
    16    20    21    2
    17    23    22    1
    18    18    17    1
    19    18    27    1
    20    21    22    1
    21    21    27    1
    22    17    15    1
    23    22    24    2
    24    27    26    2
    25    13    14    1
    26    13    15    1
    27    24    25    1
    28    26    25    1
    29    15    16    1
