@<TRIPOS>MOLECULE
2zs9_PAU_A_1.pdb
 15 14 0 0 0
SMALL
GASTEIGER

@<TRIPOS>ATOM
      1  O2        10.6700   55.3020   55.8630 O.3   603  PAU603     -0.2203
      2  C1         8.8900   55.1680   57.6070 C.3   603  PAU603      0.0674
      3  C2         9.6110   54.5120   56.4290 C.3   603  PAU603      0.1849
      4  C3         7.5800   54.4050   57.4590 C.3   603  PAU603      0.0057
      5  C4         9.1160   56.5560   57.0070 C.3   603  PAU603      0.0057
      6  C5         9.7590   54.6670   58.7440 C.3   603  PAU603      0.2313
      7  O5'       10.5380   55.8530   58.9330 O.3   603  PAU603     -0.2131
      8  C6         9.1240   54.5560   60.1320 C.2   603  PAU603      0.2719
      9  O6'        9.1070   55.5740   60.8120 O.2   603  PAU603     -0.2706
     10  N          8.7570   53.4040   60.6860 N.am  603  PAU603     -0.2027
     11  C8         8.8300   52.0590   60.1110 C.3   603  PAU603      0.1270
     12  C9         7.4020   51.6440   59.7230 C.3   603  PAU603      0.1374
     13  C          7.4530   51.1640   58.2680 C.2   603  PAU603      0.3667
     14  OXT        8.5470   51.3560   57.6840 O.co2 603  PAU603     -0.2456
     15  O          6.4170   50.6160   57.8230 O.co2 603  PAU603     -0.2456
@<TRIPOS>BOND
     1     1     3    1
     2     3     2    1
     3     5     2    1
     4     4     2    1
     5     2     6    1
     6    14    13   ar
     7    15    13   ar
     8    13    12    1
     9     6     7    1
    10     6     8    1
    11    12    11    1
    12    11    10    1
    13     8    10   am
    14     8     9    2
