@<TRIPOS>MOLECULE
2zsa_PAZ_A_1.pdb
 19 18 0 0 0
SMALL
GASTEIGER

@<TRIPOS>ATOM
      1  O8        65.6310   32.7820    7.3280 O.3   801  PAZ801     -0.1145
      2  P1        65.3410   32.4310    5.7830 P.3   801  PAZ801      0.5326
      3  O6        64.9540   30.8680    5.7550 O.3   801  PAZ801     -0.1145
      4  O7        66.5060   32.7300    4.9180 O.2   801  PAZ801     -0.2224
      5  O2        64.0140   33.2520    5.3830 O.3   801  PAZ801     -0.2702
      6  C2        63.7030   33.4890    4.0080 C.3   801  PAZ801      0.1565
      7  C1        62.3840   34.2500    3.8580 C.3   801  PAZ801      0.0647
      8  C4        61.2840   33.5210    4.6310 C.3   801  PAZ801      0.0056
      9  C3        62.5490   35.6640    4.4190 C.3   801  PAZ801      0.0056
     10  C5        62.0200   34.3170    2.3720 C.3   801  PAZ801      0.2312
     11  O5'       61.9850   32.9870    1.8490 O.3   801  PAZ801     -0.2131
     12  C6        60.6440   34.9590    2.1830 C.2   801  PAZ801      0.2719
     13  O6'       59.6390   34.2610    2.0550 O.2   801  PAZ801     -0.2706
     14  N         60.6300   36.2880    2.1490 N.am  801  PAZ801     -0.2027
     15  C8        59.3760   37.0370    1.9770 C.3   801  PAZ801      0.1270
     16  C9        59.6530   38.3900    1.3170 C.3   801  PAZ801      0.1374
     17  C         60.2350   38.2250   -0.0880 C.2   801  PAZ801      0.3667
     18  O         61.2750   38.8690   -0.3460 O.co2 801  PAZ801     -0.2456
     19  OXT       59.6300   37.4690   -0.8790 O.co2 801  PAZ801     -0.2456
@<TRIPOS>BOND
     1    19    17   ar
     2    18    17   ar
     3    17    16    1
     4    16    15    1
     5    11    10    1
     6    15    14    1
     7    13    12    2
     8    14    12   am
     9    12    10    1
    10    10     7    1
    11     7     6    1
    12     7     9    1
    13     7     8    1
    14     6     5    1
    15     4     2    2
    16     5     2    1
    17     3     2    1
    18     2     1    1
