@<TRIPOS>MOLECULE
2zsa_ADP_A_1.pdb
 27 29 0 0 0
SMALL
GASTEIGER

@<TRIPOS>ATOM
      1  PB        67.1710   31.1620   -1.7460 P.3   800  ADP800      0.5373
      2  O1B       66.7340   31.5400   -3.1080 O.2   800  ADP800     -0.2221
      3  O2B       68.7350   31.4650   -1.5120 O.3   800  ADP800     -0.1143
      4  O3B       66.9760   29.5930   -1.4490 O.3   800  ADP800     -0.1143
      5  PA        64.9180   32.5400   -0.7720 P.3   800  ADP800      0.2231
      6  O1A       64.4550   33.1610   -2.0320 O.2   800  ADP800     -0.5169
      7  O2A       64.2100   32.8430    0.6410 O.3   800  ADP800     -0.4370
      8  O3A       66.4050   31.9510   -0.5710 O.3   800  ADP800     -0.2261
      9  O5'       64.2600   31.0780   -0.9180 O.3   800  ADP800     -0.3111
     10  C5'       62.9400   30.8630   -0.4170 C.3   800  ADP800      0.1813
     11  C4'       62.5200   29.3950   -0.5150 C.3   800  ADP800      0.1821
     12  O4'       61.0830   29.3640   -0.4840 O.3   800  ADP800     -0.3135
     13  C3'       62.8430   28.8720   -1.9150 C.3   800  ADP800      0.2184
     14  O3'       62.4610   27.4990   -2.0290 O.3   800  ADP800     -0.2174
     15  C2'       61.8620   29.7320   -2.7070 C.3   800  ADP800      0.2570
     16  O2'       61.5950   29.1090   -3.9650 O.3   800  ADP800     -0.2130
     17  C1'       60.6190   29.6250   -1.8210 C.3   800  ADP800      0.3186
     18  N9        59.8710   30.8980   -1.9250 N.pl3 800  ADP800     -0.1439
     19  C8        60.4030   32.1180   -1.9530 C.3   800  ADP800      0.3377
     20  N7        59.4380   33.0240   -2.0900 N.2   800  ADP800     -0.2095
     21  C5        58.2770   32.3780   -2.1490 C.2   800  ADP800      0.2526
     22  C6        56.9530   32.7750   -2.2760 C.2   800  ADP800      0.4393
     23  N6        56.6350   34.0640   -2.3790 N.pl3 800  ADP800      0.2180
     24  N1        55.9960   31.8360   -2.2910 N.2   800  ADP800      0.0021
     25  C2        56.2950   30.5540   -2.1860 C.3   800  ADP800      0.5254
     26  N3        57.5450   30.1390   -2.0650 N.2   800  ADP800     -0.0055
     27  C4        58.5520   31.0200   -2.0440 C.2   800  ADP800      0.3518
@<TRIPOS>BOND
     1    16    15    1
     2     2     1    2
     3    15    13    1
     4    15    17    1
     5    23    22    1
     6    24    22    2
     7    24    25    1
     8    22    21    1
     9    25    26    1
    10    21    20    2
    11    21    27    1
    12    20    19    1
    13    26    27    2
    14    27    18    1
    15     6     5    2
    16    14    13    1
    17    19    18    1
    18    18    17    1
    19    13    11    1
    20    17    12    1
    21     1     3    1
    22     1     4    1
    23     1     8    1
    24     9     5    1
    25     9    10    1
    26     5     8    1
    27     5     7    1
    28    11    12    1
    29    11    10    1
