@<TRIPOS>MOLECULE
2zsb_ADP_A_1.pdb
 27 29 0 0 0
SMALL
GASTEIGER

@<TRIPOS>ATOM
      1  PB         8.6450   47.5340   28.0060 P.3   315  ADP315      0.5373
      2  O1B        8.5230   48.0950   26.6410 O.2   315  ADP315     -0.2221
      3  O2B        9.8280   46.4470   28.1030 O.3   315  ADP315     -0.1143
      4  O3B        7.3070   46.7780   28.4820 O.3   315  ADP315     -0.1143
      5  PA         8.5790   50.1840   28.9210 P.3   315  ADP315      0.2231
      6  O1A        8.8720   50.9130   27.6680 O.2   315  ADP315     -0.5169
      7  O2A        8.2770   50.9530   30.3020 O.3   315  ADP315     -0.4370
      8  O3A        8.9590   48.6350   29.1380 O.3   315  ADP315     -0.2261
      9  O5'        7.0300   49.8390   28.6670 O.3   315  ADP315     -0.3111
     10  C5'        6.0270   50.8100   28.9680 C.3   315  ADP315      0.1813
     11  C4'        4.6290   50.2310   28.7450 C.3   315  ADP315      0.1821
     12  O4'        3.6870   51.3160   28.7600 O.3   315  ADP315     -0.3135
     13  C3'        4.5350   49.7040   27.3130 C.3   315  ADP315      0.2184
     14  O3'        3.2640   49.0890   27.0770 O.3   315  ADP315     -0.2174
     15  C2'        4.5970   51.0360   26.5700 C.3   315  ADP315      0.2570
     16  O2'        3.9840   50.8710   25.2880 O.3   315  ADP315     -0.2130
     17  C1'        3.6990   51.9100   27.4480 C.3   315  ADP315      0.3186
     18  N9         4.2420   53.2910   27.4890 N.pl3 315  ADP315     -0.1439
     19  C8         5.5270   53.6180   27.5530 C.3   315  ADP315      0.3377
     20  N7         5.6540   54.9450   27.5810 N.2   315  ADP315     -0.2095
     21  C5         4.4290   55.4670   27.5340 C.2   315  ADP315      0.2526
     22  C6         3.9400   56.7630   27.5460 C.2   315  ADP315      0.4393
     23  N6         4.7660   57.8040   27.6150 N.pl3 315  ADP315      0.2180
     24  N1         2.6090   56.9480   27.4950 N.2   315  ADP315      0.0021
     25  C2         1.7820   55.9240   27.4360 C.3   315  ADP315      0.5254
     26  N3         2.2150   54.6730   27.4230 N.2   315  ADP315     -0.0055
     27  C4         3.5300   54.4140   27.4730 C.2   315  ADP315      0.3518
@<TRIPOS>BOND
     1    16    15    1
     2    15    13    1
     3    15    17    1
     4     2     1    2
     5    14    13    1
     6    13    11    1
     7    26    25    1
     8    26    27    2
     9    25    24    1
    10    17    18    1
    11    17    12    1
    12    27    18    1
    13    27    21    1
    14    18    19    1
    15    24    22    2
    16    21    22    1
    17    21    20    2
    18    22    23    1
    19    19    20    1
    20     6     5    2
    21     1     3    1
    22     1     4    1
    23     1     8    1
    24     9     5    1
    25     9    10    1
    26    11    12    1
    27    11    10    1
    28     5     8    1
    29     5     7    1
