@<TRIPOS>MOLECULE
2zsc_BTN_A_1.pdb
 16 17 0 0 0
SMALL
GASTEIGER

@<TRIPOS>ATOM
      1  C11       14.1560   22.4050    2.9620 C.2   301  BTN301      0.3649
      2  O11       13.9850   22.2160    1.7370 O.co2 301  BTN301     -0.2457
      3  O12       14.7600   21.5300    3.6280 O.co2 301  BTN301     -0.2457
      4  C10       13.6220   23.6740    3.6020 C.3   301  BTN301      0.1141
      5  C9        13.1230   23.4580    5.0360 C.3   301  BTN301      0.0118
      6  C8        11.8900   22.5630    5.0560 C.3   301  BTN301      0.0015
      7  C7        11.4040   22.3260    6.4820 C.3   301  BTN301      0.0129
      8  C2        10.1210   21.4730    6.4680 C.3   301  BTN301      0.0729
      9  S1         8.7130   22.2680    5.9470 S.3   301  BTN301     -0.1369
     10  C6         7.7570   20.8330    6.4920 C.3   301  BTN301      0.0848
     11  C5         8.3220   20.4520    7.8460 C.3   301  BTN301      0.1509
     12  N1         7.7620   21.2580    8.9080 N.2   301  BTN301     -0.1859
     13  C3         8.6760   22.0520    9.4420 C.1   301  BTN301      0.2386
     14  O3         8.4160   22.8810   10.5260 O.2   301  BTN301     -0.2023
     15  N2         9.8640   21.8480    8.9240 N.2   301  BTN301     -0.1860
     16  C4         9.7830   20.8770    7.8430 C.3   301  BTN301      0.1500
@<TRIPOS>BOND
     1     2     1   ar
     2     1     4    1
     3     1     3   ar
     4     4     5    1
     5     5     6    1
     6     6     7    1
     7     9     8    1
     8     9    10    1
     9     8     7    1
    10     8    16    1
    11    10    11    1
    12    16    11    1
    13    16    15    1
    14    11    12    1
    15    12    13    2
    16    15    13    2
    17    13    14    2
