@<TRIPOS>MOLECULE
2zsd_COA_A_1.pdb
 48 50 0 0 0
SMALL
GASTEIGER

@<TRIPOS>ATOM
      1  N1A       49.4160   32.9060   27.4590 N.2   650  COA650      0.0021
      2  C2A       50.1520   33.9860   27.2590 C.3   650  COA650      0.5254
      3  N3A       49.6310   35.2000   27.3090 N.2   650  COA650     -0.0055
      4  C4A       48.3270   35.3680   27.5680 C.2   650  COA650      0.3518
      5  C5A       47.5210   34.2570   27.7790 C.2   650  COA650      0.2526
      6  C6A       48.1040   32.9970   27.7210 C.2   650  COA650      0.4393
      7  N6A       47.3830   31.9030   27.9500 N.pl3 650  COA650      0.2180
      8  N7A       46.2930   34.6990   28.0300 N.2   650  COA650     -0.2095
      9  C8A       46.3180   36.0290   27.9870 C.3   650  COA650      0.3377
     10  N9A       47.5540   36.4390   27.7110 N.pl3 650  COA650     -0.1439
     11  C1B       48.0080   37.8470   27.6730 C.3   650  COA650      0.3185
     12  C2B       47.1650   38.7080   26.7340 C.3   650  COA650      0.2543
     13  O2B       47.5900   38.4940   25.3840 O.3   650  COA650     -0.2131
     14  C3B       47.6260   40.0740   27.2310 C.3   650  COA650      0.1928
     15  O3B       48.9500   40.3060   26.7470 O.3   650  COA650     -0.2673
     16  P3B       49.4560   41.8190   26.5500 P.3   650  COA650      0.5327
     17  O7A       49.2850   42.5010   27.9990 O.3   650  COA650     -0.1145
     18  O8A       48.4060   42.5350   25.5620 O.2   650  COA650     -0.2224
     19  O9A       50.8480   41.8730   26.0500 O.3   650  COA650     -0.1145
     20  C4B       47.6300   39.8720   28.7470 C.3   650  COA650      0.1795
     21  O4B       47.8220   38.4600   28.9590 O.3   650  COA650     -0.3136
     22  C5B       46.2820   40.2730   29.3520 C.3   650  COA650      0.1812
     23  O5B       45.1940   39.6010   28.7120 O.3   650  COA650     -0.3112
     24  P1A       43.6800   40.0570   29.0160 P.3   650  COA650      0.2189
     25  O1A       42.8760   39.8030   27.8010 O.2   650  COA650     -0.5170
     26  O2A       43.7290   41.4360   29.5510 O.3   650  COA650     -0.4371
     27  O3A       43.1990   39.0400   30.1720 O.3   650  COA650     -0.2703
     28  P2A       43.4340   39.3260   31.7410 P.3   650  COA650      0.2188
     29  O4A       42.6320   40.4990   32.1530 O.3   650  COA650     -0.4371
     30  O5A       44.8940   39.3470   31.9890 O.2   650  COA650     -0.5170
     31  O6A       42.8000   38.0140   32.4230 O.3   650  COA650     -0.3138
     32  CBP       42.8440   35.6820   33.0720 C.3   650  COA650      0.0645
     33  CCP       43.6570   36.9580   32.8570 C.3   650  COA650      0.1519
     34  CDP       41.8200   35.9140   34.1850 C.3   650  COA650      0.0056
     35  CEP       43.7860   34.5400   33.4600 C.3   650  COA650      0.0056
     36  CAP       42.1130   35.3450   31.7710 C.3   650  COA650      0.2312
     37  OAP       43.0400   35.3720   30.6820 O.3   650  COA650     -0.2131
     38  C9P       41.4840   33.9550   31.8850 C.2   650  COA650      0.2719
     39  O9P       42.1940   32.9540   31.9660 O.2   650  COA650     -0.2706
     40  N8P       40.1540   33.9490   31.8780 N.am  650  COA650     -0.2028
     41  C7P       39.3240   32.7400   31.9880 C.3   650  COA650      0.1248
     42  C6P       40.0850   31.4790   31.5760 C.3   650  COA650      0.1102
     43  C5P       40.4860   31.4900   30.0980 C.2   650  COA650      0.2432
     44  O5P       40.1980   32.4230   29.3500 O.2   650  COA650     -0.2733
     45  N4P       41.1710   30.4150   29.7190 N.am  650  COA650     -0.2044
     46  C3P       41.6400   30.2350   28.3380 C.3   650  COA650      0.1276
     47  C2P       43.1670   30.3050   28.3240 C.3   650  COA650      0.0920
     48  S1P       43.8520   30.0390   26.6490 S.3   650  COA650     -0.0802
@<TRIPOS>BOND
     1    13    12    1
     2    18    16    2
     3    19    16    1
     4    16    15    1
     5    16    17    1
     6    48    47    1
     7    12    14    1
     8    12    11    1
     9    15    14    1
    10    14    20    1
    11     2     3    1
    12     2     1    1
    13     3     4    2
    14     1     6    2
    15     4    10    1
    16     4     5    1
    17    11    10    1
    18    11    21    1
    19    10     9    1
    20     6     5    1
    21     6     7    1
    22     5     8    2
    23    25    24    2
    24     9     8    1
    25    47    46    1
    26    46    45    1
    27    23    24    1
    28    23    22    1
    29    20    21    1
    30    20    22    1
    31    24    26    1
    32    24    27    1
    33    44    43    2
    34    45    43   am
    35    43    42    1
    36    27    28    1
    37    37    36    1
    38    42    41    1
    39    28    30    2
    40    28    29    1
    41    28    31    1
    42    36    38    1
    43    36    32    1
    44    40    38   am
    45    40    41    1
    46    38    39    2
    47    31    33    1
    48    33    32    1
    49    32    35    1
    50    32    34    1
