@<TRIPOS>MOLECULE
2zse_ACP_A_1.pdb
 31 33 0 0 0
SMALL
GASTEIGER

@<TRIPOS>ATOM
      1  PG        63.9970   32.3660   -2.1180 P.3   500  ACP500      0.1295
      2  O1G       64.2670   33.5200   -1.0310 O.3   500  ACP500     -0.3567
      3  O2G       62.7300   32.8420   -2.9880 O.2   500  ACP500     -0.4595
      4  O3G       63.7730   31.0540   -1.4720 O.3   500  ACP500     -0.3567
      5  PB        66.2810   30.7950   -3.2080 P.3   500  ACP500      0.3815
      6  O1B       66.0740   30.0550   -1.9450 O.3   500  ACP500     -0.1391
      7  O2B       67.8280   31.1410   -3.4710 O.2   500  ACP500     -0.2547
      8  C3B       65.4150   32.3800   -3.2390 C.3   500  ACP500      0.1768
      9  PA        66.1840   28.4770   -4.7810 P.3   500  ACP500      0.2209
     10  O1A       67.5370   28.1580   -4.2800 O.3   500  ACP500     -0.4371
     11  O2A       66.0350   28.2550   -6.3670 O.2   500  ACP500     -0.5170
     12  O3A       65.7730   30.0080   -4.5150 O.3   500  ACP500     -0.2483
     13  O5'       65.0310   27.5890   -4.0960 O.3   500  ACP500     -0.3111
     14  C5'       64.4140   28.0310   -2.8840 C.3   500  ACP500      0.1813
     15  C4'       63.3080   27.0750   -2.4340 C.3   500  ACP500      0.1821
     16  O4'       62.6980   27.4830   -1.1950 O.3   500  ACP500     -0.3135
     17  C3'       62.1630   27.0120   -3.4440 C.3   500  ACP500      0.2184
     18  O3'       62.5010   26.1080   -4.5010 O.3   500  ACP500     -0.2174
     19  C2'       61.1210   26.3720   -2.5310 C.3   500  ACP500      0.2570
     20  O2'       61.5290   25.0460   -2.1850 O.3   500  ACP500     -0.2130
     21  C1'       61.2750   27.2960   -1.3200 C.3   500  ACP500      0.3186
     22  N9        60.6680   28.6090   -1.6320 N.pl3 500  ACP500     -0.1439
     23  C8        61.2360   29.7980   -1.4370 C.3   500  ACP500      0.3377
     24  N7        60.4150   30.7590   -1.8510 N.2   500  ACP500     -0.2095
     25  C5        59.3130   30.1810   -2.3170 C.2   500  ACP500      0.2526
     26  C6        58.1330   30.6570   -2.8730 C.2   500  ACP500      0.4393
     27  N6        57.9440   31.9630   -3.0410 N.pl3 500  ACP500      0.2180
     28  N1        57.1940   29.7770   -3.2470 N.2   500  ACP500      0.0021
     29  C2        57.3760   28.4780   -3.0950 C.3   500  ACP500      0.5254
     30  N3        58.4880   27.9910   -2.5700 N.2   500  ACP500     -0.0055
     31  C4        59.4710   28.8110   -2.1750 C.2   500  ACP500      0.3518
@<TRIPOS>BOND
     1    11     9    2
     2     9    12    1
     3     9    10    1
     4     9    13    1
     5    12     5    1
     6    18    17    1
     7    13    14    1
     8     7     5    2
     9    17    19    1
    10    17    15    1
    11    28    29    1
    12    28    26    2
    13     8     5    1
    14     8     1    1
    15     5     6    1
    16    29    30    1
    17    27    26    1
    18     3     1    2
    19    14    15    1
    20    26    25    1
    21    30    31    2
    22    19    20    1
    23    19    21    1
    24    15    16    1
    25    25    31    1
    26    25    24    2
    27    31    22    1
    28     1     4    1
    29     1     2    1
    30    24    23    1
    31    22    23    1
    32    22    21    1
    33    21    16    1
