@<TRIPOS>MOLECULE
2zse_PAU_A_1.pdb
 15 14 0 0 0
SMALL
GASTEIGER

@<TRIPOS>ATOM
      1  O2        61.8150   34.5570   -5.4060 O.3   600  PAU600     -0.2203
      2  C1        59.6820   35.1960   -6.3700 C.3   600  PAU600      0.0674
      3  C2        60.8380   34.1930   -6.3860 C.3   600  PAU600      0.1849
      4  C3        58.7860   34.6070   -7.4620 C.3   600  PAU600      0.0057
      5  C4        60.4460   36.4830   -6.6760 C.3   600  PAU600      0.0057
      6  C5        59.1200   34.9670   -4.9650 C.3   600  PAU600      0.2313
      7  O5'       60.1310   35.2080   -3.9810 O.3   600  PAU600     -0.2131
      8  C6        57.9460   35.9190   -4.7270 C.2   600  PAU600      0.2719
      9  O6'       57.5370   36.6630   -5.6170 O.2   600  PAU600     -0.2706
     10  N         57.4120   35.8450   -3.5110 N.am  600  PAU600     -0.2027
     11  C8        56.2930   36.6970   -3.0830 C.3   600  PAU600      0.1270
     12  C9        56.8180   38.1310   -2.9920 C.3   600  PAU600      0.1374
     13  C         58.1780   38.1670   -2.2900 C.2   600  PAU600      0.3667
     14  OXT       59.1500   37.6860   -2.9120 O.co2 600  PAU600     -0.2456
     15  O         58.2250   38.6770   -1.1490 O.co2 600  PAU600     -0.2456
@<TRIPOS>BOND
     1     4     2    1
     2     5     2    1
     3     3     2    1
     4     3     1    1
     5     2     6    1
     6     9     8    2
     7     6     8    1
     8     6     7    1
     9     8    10   am
    10    10    11    1
    11    11    12    1
    12    12    13    1
    13    14    13   ar
    14    13    15   ar
