@<TRIPOS>MOLECULE
2zse_FLC_A_1.pdb
 13 12 0 0 0
SMALL
GASTEIGER

@<TRIPOS>ATOM
      1  CAC       65.6170    7.4610   15.5140 C.2   650  FLC650      0.3680
      2  CA        66.6520    6.3810   15.8360 C.3   650  FLC650      0.1560
      3  CB        67.7740    6.9510   16.7070 C.3   650  FLC650      0.2402
      4  CBC       67.1990    7.4960   18.0180 C.2   650  FLC650      0.3927
      5  CG        68.8020    5.8590   17.0120 C.3   650  FLC650      0.1560
      6  CGC       70.1170    6.0930   16.2630 C.2   650  FLC650      0.3680
      7  OA1       64.4360    7.2400   15.8630 O.co2 650  FLC650     -0.2455
      8  OA2       66.0340    8.4920   14.9450 O.co2 650  FLC650     -0.2455
      9  OB1       66.3360    8.3950   17.9380 O.co2 650  FLC650     -0.2429
     10  OB2       67.6430    7.0050   19.0790 O.co2 650  FLC650     -0.2429
     11  OG1       70.0550    6.2360   15.0220 O.co2 650  FLC650     -0.2455
     12  OG2       71.1590    6.1250   16.9520 O.co2 650  FLC650     -0.2455
     13  OHB       68.4130    8.0060   15.9850 O.3   650  FLC650     -0.2129
@<TRIPOS>BOND
     1     8     1   ar
     2    11     6   ar
     3     1     2    1
     4     1     7   ar
     5     2     3    1
     6    13     3    1
     7     6    12   ar
     8     6     5    1
     9     3     5    1
    10     3     4    1
    11     9     4   ar
    12     4    10   ar
