@<TRIPOS>MOLECULE
2zsf_ADP_A_1.pdb
 27 29 0 0 0
SMALL
GASTEIGER

@<TRIPOS>ATOM
      1  PB         8.3220   48.0100   27.7690 P.3   652  ADP652      0.5373
      2  O1B        9.1070   47.2280   26.7800 O.2   652  ADP652     -0.2221
      3  O2B        8.5840   47.6910   29.1950 O.3   652  ADP652     -0.1143
      4  O3B        6.7640   47.9030   27.4690 O.3   652  ADP652     -0.1143
      5  PA         8.7300   50.7460   28.6130 P.3   652  ADP652      0.2231
      6  O1A        9.4420   50.1900   29.7870 O.3   652  ADP652     -0.4370
      7  O2A        9.3240   51.8990   27.8490 O.2   652  ADP652     -0.5169
      8  O3A        8.5170   49.5850   27.5140 O.3   652  ADP652     -0.2261
      9  O5'        7.2560   51.0720   29.1060 O.3   652  ADP652     -0.3111
     10  C5'        6.1190   50.4860   28.4690 C.3   652  ADP652      0.1813
     11  C4'        4.9440   50.3170   29.4360 C.3   652  ADP652      0.1821
     12  O4'        4.2870   51.5880   29.5870 O.3   652  ADP652     -0.3135
     13  C3'        3.9220   49.4320   28.7200 C.3   652  ADP652      0.2184
     14  O3'        2.9150   49.0220   29.6490 O.3   652  ADP652     -0.2174
     15  C2'        3.3490   50.4620   27.7500 C.3   652  ADP652      0.2570
     16  O2'        2.1110   49.9760   27.2240 O.3   652  ADP652     -0.2130
     17  C1'        3.0900   51.5540   28.7880 C.3   652  ADP652      0.3186
     18  N9         2.8170   52.8830   28.2010 N.pl3 652  ADP652     -0.1439
     19  C8         1.6410   53.3170   27.7440 C.3   652  ADP652      0.3377
     20  N7         1.7460   54.5980   27.3990 N.2   652  ADP652     -0.2095
     21  C5         2.9950   54.9860   27.6320 C.2   652  ADP652      0.2526
     22  C6         3.6820   56.1880   27.4950 C.2   652  ADP652      0.4393
     23  N6         3.0570   57.2830   27.0720 N.pl3 652  ADP652      0.2180
     24  N1         4.9760   56.2360   27.8410 N.2   652  ADP652      0.0021
     25  C2         5.6000   55.1700   28.3080 C.3   652  ADP652      0.5254
     26  N3         4.9770   54.0130   28.4590 N.2   652  ADP652     -0.0055
     27  C4         3.6820   53.8900   28.1340 C.2   652  ADP652      0.3518
@<TRIPOS>BOND
     1     2     1    2
     2    23    22    1
     3    16    15    1
     4    20    21    2
     5    20    19    1
     6     4     1    1
     7    22    21    1
     8    22    24    2
     9     8     1    1
    10     8     5    1
    11    21    27    1
    12    19    18    1
    13    15    13    1
    14    15    17    1
    15     1     3    1
    16    24    25    1
    17     7     5    2
    18    27    18    1
    19    27    26    2
    20    18    17    1
    21    25    26    1
    22    10     9    1
    23    10    11    1
    24     5     9    1
    25     5     6    1
    26    13    11    1
    27    13    14    1
    28    17    12    1
    29    11    12    1
