@<TRIPOS>MOLECULE
2zsf_ATP_A_1.pdb
 31 33 0 0 0
SMALL
GASTEIGER

@<TRIPOS>ATOM
      1  PG         7.9550   50.9850   29.0200 P.3   651  ATP651      0.5373
      2  O1G        8.0100   52.4450   28.6340 O.2   651  ATP651     -0.2221
      3  O2G        8.9820   50.5750   30.0450 O.3   651  ATP651     -0.1143
      4  O3G        6.5570   50.5520   29.4620 O.3   651  ATP651     -0.1143
      5  PB         8.0900   48.5490   27.5100 P.3   651  ATP651      0.2277
      6  O1B        8.2240   47.8400   28.8080 O.3   651  ATP651     -0.4368
      7  O2B        8.9730   48.0600   26.4200 O.2   651  ATP651     -0.5168
      8  O3B        8.2660   50.1190   27.6960 O.3   651  ATP651     -0.2258
      9  PA         5.8920   47.4420   26.0290 P.3   651  ATP651      0.2189
     10  O1A        5.0380   46.3660   26.5780 O.3   651  ATP651     -0.4371
     11  O2A        6.6190   47.4280   24.7100 O.2   651  ATP651     -0.5170
     12  O3A        6.5600   48.5210   27.0210 O.3   651  ATP651     -0.2700
     13  O5'        4.6640   48.3770   25.6560 O.3   651  ATP651     -0.3112
     14  C5'        3.6320   48.7180   26.5870 C.3   651  ATP651      0.1813
     15  C4'        4.0980   49.8080   27.5550 C.3   651  ATP651      0.1821
     16  O4'        4.1830   51.1220   26.9840 O.3   651  ATP651     -0.3135
     17  C3'        3.1110   50.0300   28.7040 C.3   651  ATP651      0.2184
     18  O3'        3.3430   49.0560   29.7260 O.3   651  ATP651     -0.2174
     19  C2'        3.5240   51.4140   29.2090 C.3   651  ATP651      0.2570
     20  O2'        4.1750   51.2840   30.4760 O.3   651  ATP651     -0.2130
     21  C1'        4.5450   51.8600   28.1600 C.3   651  ATP651      0.3186
     22  N9         4.5830   53.3350   28.0220 N.pl3 651  ATP651     -0.1439
     23  C8         5.6900   54.0740   28.0610 C.3   651  ATP651      0.3377
     24  N7         5.3730   55.3650   27.9980 N.2   651  ATP651     -0.2095
     25  C5         4.0490   55.4520   27.9150 C.2   651  ATP651      0.2526
     26  C6         3.1580   56.5150   27.8390 C.2   651  ATP651      0.4393
     27  N6         3.6010   57.7690   27.8580 N.pl3 651  ATP651      0.2180
     28  N1         1.8450   56.2530   27.7700 N.2   651  ATP651      0.0021
     29  C2         1.3990   55.0100   27.7760 C.3   651  ATP651      0.5254
     30  N3         2.2180   53.9750   27.8500 N.2   651  ATP651     -0.0055
     31  C4         3.5430   54.1590   27.9220 C.2   651  ATP651      0.3518
@<TRIPOS>BOND
     1    11     9    2
     2    13     9    1
     3    13    14    1
     4     9    10    1
     5     9    12    1
     6     7     5    2
     7    14    15    1
     8    16    15    1
     9    16    21    1
    10    12     5    1
    11     5     8    1
    12     5     6    1
    13    15    17    1
    14     8     1    1
    15    28    29    1
    16    28    26    2
    17    29    30    1
    18    26    27    1
    19    26    25    1
    20    30    31    2
    21    25    31    1
    22    25    24    2
    23    31    22    1
    24    24    23    1
    25    22    23    1
    26    22    21    1
    27    21    19    1
    28     2     1    2
    29    17    19    1
    30    17    18    1
    31     1     4    1
    32     1     3    1
    33    19    20    1
