@<TRIPOS>MOLECULE
2zsh_GA3_A_1.pdb
 25 29 0 0 0
SMALL
GASTEIGER

@<TRIPOS>ATOM
      1  O71       53.4960   61.4410   37.2850 O.co2 345  GA3345     -0.2457
      2  C7        53.2740   60.5000   36.5840 C.2   345  GA3345      0.3648
      3  O72       54.0560   60.1170   35.6000 O.co2 345  GA3345     -0.2457
      4  C6        52.0650   59.5740   36.7070 C.3   345  GA3345      0.1119
      5  C5        51.9310   59.1350   38.2150 C.3   345  GA3345      0.0682
      6  C8        50.7000   60.1870   36.4030 C.3   345  GA3345      0.0352
      7  C15       50.3730   61.7450   36.5640 C.3   345  GA3345      0.0289
      8  C16       49.2150   62.0780   35.5790 C.2   345  GA3345     -0.0165
      9  C17       48.6210   63.2290   35.3860 C.2   345  GA3345     -0.0067
     10  C13       48.8880   60.7750   34.8670 C.3   345  GA3345      0.1460
     11  C14       50.3030   60.0990   34.9020 C.3   345  GA3345      0.0394
     12  O13       48.3810   60.8060   33.5290 O.3   345  GA3345     -0.2212
     13  C12       47.7780   59.9330   35.6460 C.3   345  GA3345      0.0598
     14  C11       48.2130   59.1550   36.9200 C.2   345  GA3345     -0.0281
     15  C9        49.7380   59.2750   37.3190 C.2   345  GA3345     -0.0085
     16  C10       50.5090   58.6990   38.4020 C.3   345  GA3345      0.1699
     17  O92       50.6750   57.2230   37.9350 O.3   345  GA3345     -0.4476
     18  C1        49.9720   58.6450   39.8620 C.2   345  GA3345      0.0148
     19  C2        50.8730   58.2510   40.8160 C.2   345  GA3345      0.0058
     20  C3        52.3480   57.8820   40.4570 C.3   345  GA3345      0.1838
     21  O31       53.0300   58.9550   41.1610 O.3   345  GA3345     -0.2177
     22  C4        52.7280   57.9820   38.9580 C.3   345  GA3345      0.1258
     23  C18       54.2910   58.1070   38.8750 C.3   345  GA3345      0.0142
     24  C19       51.9820   56.7980   38.2570 C.2   345  GA3345      0.3192
     25  O91       52.3790   55.7140   38.0130 O.2   345  GA3345     -0.2500
@<TRIPOS>BOND
     1    12    10    1
     2    10    11    1
     3    10     8    1
     4    10    13    1
     5    11     6    1
     6     9     8    2
     7     8     7    1
     8     3     2   ar
     9    13    14    1
    10     6     7    1
    11     6     4    1
    12     6    15    1
    13     2     4    1
    14     2     1   ar
    15     4     5    1
    16    14    15    2
    17    15    16    1
    18    17    24    1
    19    17    16    1
    20    25    24    2
    21     5    16    1
    22     5    22    1
    23    24    22    1
    24    16    18    1
    25    23    22    1
    26    22    20    1
    27    18    19    2
    28    20    19    1
    29    20    21    1
