@<TRIPOS>MOLECULE
2zsi_GA4_A_1.pdb
 24 28 0 0 0
SMALL
GASTEIGER

@<TRIPOS>ATOM
      1  C1        -8.9780   17.7000   -7.5100 C.3   345  GA4345      0.0427
      2  C2        -9.8840   16.8400   -8.3300 C.3   345  GA4345      0.0370
      3  C3       -11.2740   16.7760   -7.9660 C.3   345  GA4345      0.1621
      4  O31      -12.0050   17.8480   -8.6160 O.3   345  GA4345     -0.2226
      5  C4       -11.5760   16.8130   -6.3660 C.3   345  GA4345      0.1212
      6  C5       -10.8730   18.0130   -5.7750 C.3   345  GA4345      0.0599
      7  C6       -10.9640   18.5050   -4.2590 C.3   345  GA4345      0.1077
      8  C7       -12.1600   19.4160   -4.0570 C.2   345  GA4345      0.3645
      9  O71      -12.4870   20.3200   -4.7660 O.co2 345  GA4345     -0.2457
     10  O72      -12.7930   19.0630   -2.9600 O.co2 345  GA4345     -0.2457
     11  C8        -9.5100   19.0010   -3.8960 C.3   345  GA4345      0.0176
     12  C9        -8.6300   18.5230   -5.1500 C.3   345  GA4345      0.0376
     13  C10       -9.3810   17.7740   -6.1320 C.3   345  GA4345      0.1369
     14  C11       -7.3750   17.8140   -4.4800 C.3   345  GA4345      0.0038
     15  C12       -6.6830   18.6760   -3.4170 C.3   345  GA4345      0.0041
     16  C13       -7.7380   19.4470   -2.5400 C.3   345  GA4345      0.0183
     17  C14       -9.0450   18.7060   -2.5520 C.3   345  GA4345      0.0050
     18  C15       -9.3290   20.5900   -3.8700 C.3   345  GA4345      0.0226
     19  C16       -8.2000   20.6800   -3.0050 C.2   345  GA4345     -0.0446
     20  C17       -7.6940   21.7620   -2.7460 C.2   345  GA4345     -0.0091
     21  C18      -13.0510   16.7650   -6.1590 C.3   345  GA4345      0.0138
     22  C19      -10.7560   15.6910   -5.7530 C.2   345  GA4345      0.3183
     23  O91      -11.0680   14.6540   -5.4670 O.2   345  GA4345     -0.2500
     24  O92       -9.4080   16.2570   -5.5710 O.3   345  GA4345     -0.4557
@<TRIPOS>BOND
     1     4     3    1
     2     2     3    1
     3     2     1    1
     4     3     5    1
     5     1    13    1
     6     5    21    1
     7     5     6    1
     8     5    22    1
     9    13     6    1
    10    13    24    1
    11    13    12    1
    12     6     7    1
    13    22    24    1
    14    22    23    2
    15    12    14    1
    16    12    11    1
    17     9     8   ar
    18    14    15    1
    19     7     8    1
    20     7    11    1
    21     8    10   ar
    22    11    18    1
    23    11    17    1
    24    18    19    1
    25    15    16    1
    26    19    20    2
    27    19    16    1
    28    17    16    1
