@<TRIPOS>MOLECULE
2zsj_PLP_A_1.pdb
 15 15 0 0 0
SMALL
GASTEIGER

@<TRIPOS>ATOM
      1  N1         0.1670  -14.3230    3.2840 N.ar  1101  PLP1101    -0.2452
      2  C2        -0.7670  -13.4070    3.5840 C.ar  1101  PLP1101     0.0978
      3  C2A       -0.3480  -12.0050    3.9620 C.3   1101  PLP1101     0.0555
      4  C3        -2.1370  -13.7440    3.5480 C.ar  1101  PLP1101     0.2049
      5  O3        -3.0860  -12.8210    3.8480 O.3   1101  PLP1101    -0.2857
      6  C4        -2.5010  -15.0790    3.1870 C.ar  1101  PLP1101     0.0182
      7  C4A       -3.9380  -15.4780    3.1340 C.3   1101  PLP1101     0.0342
      8  C5        -1.4510  -16.0260    2.8730 C.ar  1101  PLP1101     0.0261
      9  C6        -0.1210  -15.5930    2.9380 C.ar  1101  PLP1101     0.0965
     10  C5A       -1.8150  -17.4510    2.4820 C.3   1101  PLP1101     0.1815
     11  O4P       -2.3910  -17.3810    1.1700 O.3   1101  PLP1101    -0.2653
     12  P         -2.8420  -18.8440    0.6540 P.3   1101  PLP1101     0.5329
     13  O1P       -3.8520  -19.3780    1.5880 O.3   1101  PLP1101    -0.1145
     14  O2P       -3.4680  -18.6730   -0.8010 O.2   1101  PLP1101    -0.2224
     15  O3P       -1.6080  -19.8710    0.5500 O.3   1101  PLP1101    -0.1145
@<TRIPOS>BOND
     1    14    12    2
     2    15    12    1
     3    12    11    1
     4    12    13    1
     5    11    10    1
     6    10     8    1
     7     8     9   ar
     8     8     6   ar
     9     9     1   ar
    10     7     6    1
    11     6     4   ar
    12     1     2   ar
    13     4     2   ar
    14     4     5    1
    15     2     3    1
