@<TRIPOS>MOLECULE
2zsl_PMP_A_1.pdb
 16 16 0 0 0
SMALL
GASTEIGER

@<TRIPOS>ATOM
      1  N1        -0.7440   28.8990   25.3230 N.ar  501  PMP501     -0.2452
      2  C2        -0.3070   29.4720   24.1770 C.ar  501  PMP501      0.0978
      3  C2A       -0.9840   29.1580   22.8610 C.3   501  PMP501      0.0555
      4  C3         0.7870   30.3690   24.2010 C.ar  501  PMP501      0.2063
      5  O3         1.2440   30.9590   23.0580 O.3   501  PMP501     -0.2856
      6  C4         1.4080   30.6510   25.4340 C.ar  501  PMP501      0.0369
      7  C4A        2.5940   31.6230   25.4860 C.3   501  PMP501      0.1386
      8  N4A        3.7290   31.0880   24.7270 N.3   501  PMP501     -0.1261
      9  C5         0.9220   30.0290   26.6220 C.ar  501  PMP501      0.0275
     10  C6        -0.1720   29.1450   26.5340 C.ar  501  PMP501      0.0965
     11  C5A        1.6320   30.3740   27.9080 C.3   501  PMP501      0.1816
     12  O4P        1.0790   31.6030   28.3770 O.3   501  PMP501     -0.2653
     13  P          1.8360   32.0410   29.7320 P.3   501  PMP501      0.5329
     14  O1P        3.2600   32.2570   29.3680 O.2   501  PMP501     -0.2224
     15  O2P        1.2000   33.4180   30.2500 O.3   501  PMP501     -0.1145
     16  O3P        1.7530   30.9360   30.8850 O.3   501  PMP501     -0.1145
@<TRIPOS>BOND
     1     3     2    1
     2     5     4    1
     3     2     4   ar
     4     2     1   ar
     5     4     6   ar
     6     8     7    1
     7     1    10   ar
     8     6     7    1
     9     6     9   ar
    10    10     9   ar
    11     9    11    1
    12    11    12    1
    13    12    13    1
    14    14    13    2
    15    13    15    1
    16    13    16    1
