@<TRIPOS>MOLECULE
2zsm_PMP_A_1.pdb
 16 16 0 0 0
SMALL
GASTEIGER

@<TRIPOS>ATOM
      1  N1        79.1850   10.9910    4.0300 N.ar  1001  PMP1001    -0.2452
      2  C2        79.7690   12.2150    3.9480 C.ar  1001  PMP1001     0.0978
      3  C2A       79.4460   13.2800    4.9760 C.3   1001  PMP1001     0.0555
      4  C3        80.6820   12.5010    2.9020 C.ar  1001  PMP1001     0.2063
      5  O3        81.2810   13.7180    2.7990 O.3   1001  PMP1001    -0.2856
      6  C4        80.9670   11.4940    1.9570 C.ar  1001  PMP1001     0.0369
      7  C4A       81.9490   11.7670    0.8180 C.3   1001  PMP1001     0.1386
      8  N4A       81.5410   12.9570    0.0620 N.3   1001  PMP1001    -0.1261
      9  C5        80.3340   10.2240    2.0770 C.ar  1001  PMP1001     0.0275
     10  C6        79.4360   10.0010    3.1390 C.ar  1001  PMP1001     0.0965
     11  C5A       80.6710    9.1810    1.0460 C.3   1001  PMP1001     0.1816
     12  O4P       81.9250    8.5930    1.4200 O.3   1001  PMP1001    -0.2653
     13  P         82.3300    7.4970    0.3150 P.3   1001  PMP1001     0.5329
     14  O1P       82.5000    8.2200   -0.9700 O.2   1001  PMP1001    -0.2224
     15  O2P       83.7250    6.8320    0.7320 O.3   1001  PMP1001    -0.1145
     16  O3P       81.1980    6.3760    0.1280 O.3   1001  PMP1001    -0.1145
@<TRIPOS>BOND
     1    14    13    2
     2     8     7    1
     3    16    13    1
     4    13    15    1
     5    13    12    1
     6     7     6    1
     7    11    12    1
     8    11     9    1
     9     6     9   ar
    10     6     4   ar
    11     9    10   ar
    12     5     4    1
    13     4     2   ar
    14    10     1   ar
    15     2     1   ar
    16     2     3    1
