@<TRIPOS>MOLECULE
2zsn_HEM_A_1.pdb
 43 50 0 0 0
SMALL
GASTEIGER

@<TRIPOS>ATOM
      1 FE         -0.6030    6.8540   15.3300 Fe    154  HEM154      0.0000
      2  CHA       -0.5300    9.9370   16.7650 C.2   154  HEM154      0.0000
      3  CHB       -4.0360    6.8290   15.5720 C.2   154  HEM154      0.0000
      4  CHC       -0.7000    3.6430   14.1080 C.2   154  HEM154      0.0000
      5  CHD        2.7370    6.7670   15.3450 C.2   154  HEM154      0.0000
      6  NA        -2.0360    8.1200   16.0320 N.2   154  HEM154      0.0000
      7  C1A       -1.8130    9.3910   16.5450 C.2   154  HEM154      0.0000
      8  C2A       -3.0920   10.0740   16.8050 C.2   154  HEM154      0.0000
      9  C3A       -4.0490    9.1770   16.4840 C.2   154  HEM154      0.0000
     10  C4A       -3.3920    7.9770   15.9970 C.2   154  HEM154      0.0000
     11  CMA       -5.5690    9.2850   16.5620 C.3   154  HEM154      0.0000
     12  CAA       -3.1860   11.4860   17.3030 C.3   154  HEM154      0.0000
     13  CBA       -3.7680   12.3690   16.1660 C.3   154  HEM154      0.0000
     14  CGA       -2.8390   12.4060   14.9490 C.2   154  HEM154      0.0000
     15  O1A       -3.2200   12.0140   13.8140 O.co2 154  HEM154      0.0000
     16  O2A       -1.6420   12.7660   15.1200 O.co2 154  HEM154      0.0000
     17  NB        -2.0720    5.4910   14.9010 N.ar  154  HEM154      0.0000
     18  C1B       -3.4460    5.6840   15.0490 C.ar  154  HEM154      0.0000
     19  C2B       -4.1390    4.5080   14.5460 C.ar  154  HEM154      0.0000
     20  C3B       -3.2180    3.6160   14.1720 C.ar  154  HEM154      0.0000
     21  C4B       -1.9130    4.2260   14.3870 C.ar  154  HEM154      0.0000
     22  CMB       -5.6910    4.3940   14.5200 C.3   154  HEM154      0.0000
     23  CAB       -3.3720    2.2320   13.6340 C.2   154  HEM154      0.0000
     24  CBB       -4.3060    1.3840   13.9850 C.2   154  HEM154      0.0000
     25  NC         0.8020    5.4680   14.7770 N.2   154  HEM154      0.0000
     26  C1C        0.5740    4.1610   14.3430 C.2   154  HEM154      0.0000
     27  C2C        1.8370    3.4640   14.1940 C.2   154  HEM154      0.0000
     28  C3C        2.7730    4.3530   14.5880 C.2   154  HEM154      0.0000
     29  C4C        2.1770    5.6100   14.9280 C.2   154  HEM154      0.0000
     30  CMC        1.9480    2.0170   13.7010 C.3   154  HEM154      0.0000
     31  CAC        4.3020    4.2150   14.7180 C.2   154  HEM154      0.0000
     32  CBC        4.9660    3.1220   14.4580 C.2   154  HEM154      0.0000
     33  ND         0.8790    8.1110   15.9200 N.ar  154  HEM154      0.0000
     34  C1D        2.2410    7.9160   15.8350 C.ar  154  HEM154      0.0000
     35  C2D        2.9750    9.0550   16.3200 C.ar  154  HEM154      0.0000
     36  C3D        1.9750    9.9480   16.7990 C.ar  154  HEM154      0.0000
     37  C4D        0.7080    9.3690   16.4840 C.ar  154  HEM154      0.0000
     38  CMD        4.4590    9.2150   16.3810 C.3   154  HEM154      0.0000
     39  CAD        2.2390   11.2780   17.5210 C.3   154  HEM154      0.0000
     40  CBD        2.4360   10.8540   19.0340 C.3   154  HEM154      0.0000
     41  CGD        2.8410   12.0290   19.8470 C.2   154  HEM154      0.0000
     42  O1D        4.0860   12.3570   19.8740 O.co2 154  HEM154      0.0000
     43  O2D        1.8850   12.6010   20.4250 O.co2 154  HEM154      0.0000
@<TRIPOS>BOND
     1    23    24    2
     2    23    20    1
     3    30    27    1
     4    15    14   ar
     5     4    26    2
     6     4    21    1
     7    20    21   ar
     8    20    19   ar
     9    27    26    1
    10    27    28    2
    11    26    25    1
    12    21    17   ar
    13    32    31    2
    14    22    19    1
    15    19    18   ar
    16    28    31    1
    17    28    29    1
    18    25    29    2
    19    25     1    1
    20    17    18   ar
    21    17     1    1
    22    29     5    1
    23    14    16   ar
    24    14    13    1
    25    18     3    1
    26     1    33    1
    27     1     6    1
    28     5    34    2
    29     3    10    2
    30    34    33   ar
    31    34    35   ar
    32    33    37   ar
    33    10     6    1
    34    10     9    1
    35     6     7    2
    36    13    12    1
    37    35    38    1
    38    35    36   ar
    39    37     2    2
    40    37    36   ar
    41     9    11    1
    42     9     8    2
    43     7     2    1
    44     7     8    1
    45    36    39    1
    46     8    12    1
    47    39    40    1
    48    40    41    1
    49    41    42   ar
    50    41    43   ar
