@<TRIPOS>MOLECULE
2zso_HEM_A_1.pdb
 43 50 0 0 0
SMALL
GASTEIGER

@<TRIPOS>ATOM
      1 FE         -0.6190    6.8520   15.3270 Fe    154  HEM154      0.0000
      2  CHA       -0.5470    9.9210   16.7780 C.2   154  HEM154      0.0000
      3  CHB       -4.0020    6.8460   15.5690 C.2   154  HEM154      0.0000
      4  CHC       -0.7020    3.6650   14.1210 C.2   154  HEM154      0.0000
      5  CHD        2.7410    6.7880   15.3320 C.2   154  HEM154      0.0000
      6  NA        -2.0460    8.1100   16.0370 N.2   154  HEM154      0.0000
      7  C1A       -1.8010    9.3950   16.5410 C.2   154  HEM154      0.0000
      8  C2A       -3.0870   10.0690   16.7990 C.2   154  HEM154      0.0000
      9  C3A       -4.0500    9.1740   16.4970 C.2   154  HEM154      0.0000
     10  C4A       -3.4020    7.9810   16.0180 C.2   154  HEM154      0.0000
     11  CMA       -5.5590    9.3080   16.5640 C.3   154  HEM154      0.0000
     12  CAA       -3.2050   11.4840   17.3150 C.3   154  HEM154      0.0000
     13  CBA       -3.7520   12.3430   16.1470 C.3   154  HEM154      0.0000
     14  CGA       -2.8080   12.4270   14.9270 C.2   154  HEM154      0.0000
     15  O1A       -3.2500   12.0810   13.7910 O.co2 154  HEM154      0.0000
     16  O2A       -1.6310   12.7830   15.1390 O.co2 154  HEM154      0.0000
     17  NB        -2.0980    5.5110   14.9290 N.ar  154  HEM154      0.0000
     18  C1B       -3.4660    5.6810   15.0500 C.ar  154  HEM154      0.0000
     19  C2B       -4.1430    4.5120   14.5520 C.ar  154  HEM154      0.0000
     20  C3B       -3.2590    3.6150   14.1790 C.ar  154  HEM154      0.0000
     21  C4B       -1.9370    4.2350   14.3830 C.ar  154  HEM154      0.0000
     22  CMB       -5.6720    4.4010   14.5160 C.3   154  HEM154      0.0000
     23  CAB       -3.3550    2.2360   13.6450 C.2   154  HEM154      0.0000
     24  CBB       -4.2900    1.3700   13.9910 C.2   154  HEM154      0.0000
     25  NC         0.7820    5.4830   14.7880 N.2   154  HEM154      0.0000
     26  C1C        0.5790    4.2060   14.3400 C.2   154  HEM154      0.0000
     27  C2C        1.8200    3.4650   14.1990 C.2   154  HEM154      0.0000
     28  C3C        2.7260    4.3940   14.5850 C.2   154  HEM154      0.0000
     29  C4C        2.1600    5.6510   14.9350 C.2   154  HEM154      0.0000
     30  CMC        1.9600    2.0240   13.7260 C.3   154  HEM154      0.0000
     31  CAC        4.2440    4.2590   14.7400 C.2   154  HEM154      0.0000
     32  CBC        4.9120    3.1750   14.4630 C.2   154  HEM154      0.0000
     33  ND         0.8680    8.1430   15.9440 N.ar  154  HEM154      0.0000
     34  C1D        2.2090    7.9000   15.8140 C.ar  154  HEM154      0.0000
     35  C2D        2.9450    9.0320   16.3440 C.ar  154  HEM154      0.0000
     36  C3D        1.9380    9.9590   16.8140 C.ar  154  HEM154      0.0000
     37  C4D        0.6740    9.4170   16.4860 C.ar  154  HEM154      0.0000
     38  CMD        4.4390    9.1980   16.3990 C.3   154  HEM154      0.0000
     39  CAD        2.2100   11.2750   17.5360 C.3   154  HEM154      0.0000
     40  CBD        2.4210   10.8430   19.0330 C.3   154  HEM154      0.0000
     41  CGD        2.8720   12.0090   19.8260 C.2   154  HEM154      0.0000
     42  O1D        4.1230   12.3260   19.8750 O.co2 154  HEM154      0.0000
     43  O2D        1.8920   12.5640   20.3970 O.co2 154  HEM154      0.0000
@<TRIPOS>BOND
     1    23    24    2
     2    23    20    1
     3    30    27    1
     4    15    14   ar
     5     4    26    2
     6     4    21    1
     7    20    21   ar
     8    20    19   ar
     9    27    26    1
    10    27    28    2
    11    26    25    1
    12    21    17   ar
    13    32    31    2
    14    22    19    1
    15    19    18   ar
    16    28    31    1
    17    28    29    1
    18    25    29    2
    19    25     1    1
    20    14    16   ar
    21    14    13    1
    22    17    18   ar
    23    17     1    1
    24    29     5    1
    25    18     3    1
    26     1    33    1
    27     1     6    1
    28     5    34    2
    29     3    10    2
    30    34    33   ar
    31    34    35   ar
    32    33    37   ar
    33    10     6    1
    34    10     9    1
    35     6     7    2
    36    13    12    1
    37    35    38    1
    38    35    36   ar
    39    37     2    2
    40    37    36   ar
    41     9    11    1
    42     9     8    2
    43     7     2    1
    44     7     8    1
    45     8    12    1
    46    36    39    1
    47    39    40    1
    48    40    41    1
    49    41    42   ar
    50    41    43   ar
