@<TRIPOS>MOLECULE
2zsp_HEM_A_1.pdb
 43 50 0 0 0
SMALL
GASTEIGER

@<TRIPOS>ATOM
      1 FE         -0.5630    6.6780   15.3540 Fe    154  HEM154      0.0000
      2  CHA       -0.4690    9.7720   16.8560 C.2   154  HEM154      0.0000
      3  CHB       -3.9940    6.6430   15.5950 C.2   154  HEM154      0.0000
      4  CHC       -0.6650    3.5020   14.0610 C.2   154  HEM154      0.0000
      5  CHD        2.8180    6.5960   15.3190 C.2   154  HEM154      0.0000
      6  NA        -1.9600    7.9720   16.1000 N.2   154  HEM154      0.0000
      7  C1A       -1.7160    9.2430   16.6310 C.2   154  HEM154      0.0000
      8  C2A       -3.0060    9.8650   16.8990 C.2   154  HEM154      0.0000
      9  C3A       -3.9740    8.9710   16.5660 C.2   154  HEM154      0.0000
     10  C4A       -3.3440    7.7650   16.0640 C.2   154  HEM154      0.0000
     11  CMA       -5.4930    9.1270   16.6800 C.3   154  HEM154      0.0000
     12  CAA       -3.1840   11.2770   17.4180 C.3   154  HEM154      0.0000
     13  CBA       -3.7050   12.1820   16.2360 C.3   154  HEM154      0.0000
     14  CGA       -2.7730   12.2060   15.0310 C.2   154  HEM154      0.0000
     15  O1A       -3.1970   11.8540   13.8850 O.co2 154  HEM154      0.0000
     16  O2A       -1.5880   12.6230   15.2040 O.co2 154  HEM154      0.0000
     17  NB        -2.0420    5.3280   14.8960 N.ar  154  HEM154      0.0000
     18  C1B       -3.4020    5.5100   15.0330 C.ar  154  HEM154      0.0000
     19  C2B       -4.1080    4.3700   14.5350 C.ar  154  HEM154      0.0000
     20  C3B       -3.1790    3.4920   14.1270 C.ar  154  HEM154      0.0000
     21  C4B       -1.8940    4.0970   14.3270 C.ar  154  HEM154      0.0000
     22  CMB       -5.6180    4.2630   14.5210 C.3   154  HEM154      0.0000
     23  CAB       -3.3810    2.1140   13.5660 C.2   154  HEM154      0.0000
     24  CBB       -4.3320    1.2570   13.9730 C.2   154  HEM154      0.0000
     25  NC         0.8240    5.3380   14.7510 N.2   154  HEM154      0.0000
     26  C1C        0.6150    4.0320   14.3070 C.2   154  HEM154      0.0000
     27  C2C        1.8490    3.3580   14.1450 C.2   154  HEM154      0.0000
     28  C3C        2.8260    4.2210   14.5250 C.2   154  HEM154      0.0000
     29  C4C        2.2010    5.4410   14.8960 C.2   154  HEM154      0.0000
     30  CMC        1.9940    1.9230   13.6420 C.3   154  HEM154      0.0000
     31  CAC        4.3390    4.0290   14.6330 C.2   154  HEM154      0.0000
     32  CBC        4.9990    2.9210   14.3430 C.2   154  HEM154      0.0000
     33  ND         0.8910    7.9620   15.9560 N.ar  154  HEM154      0.0000
     34  C1D        2.2480    7.7370   15.8250 C.ar  154  HEM154      0.0000
     35  C2D        2.9870    8.8710   16.3460 C.ar  154  HEM154      0.0000
     36  C3D        2.0130    9.7790   16.8520 C.ar  154  HEM154      0.0000
     37  C4D        0.7300    9.2010   16.5610 C.ar  154  HEM154      0.0000
     38  CMD        4.4820    9.0220   16.3990 C.3   154  HEM154      0.0000
     39  CAD        2.2920   11.0520   17.6200 C.3   154  HEM154      0.0000
     40  CBD        2.4810   10.7010   19.1400 C.3   154  HEM154      0.0000
     41  CGD        2.7750   11.9320   19.9530 C.2   154  HEM154      0.0000
     42  O1D        3.9690   12.2980   19.9830 O.co2 154  HEM154      0.0000
     43  O2D        1.8320   12.5080   20.5220 O.co2 154  HEM154      0.0000
@<TRIPOS>BOND
     1    23    24    2
     2    23    20    1
     3    30    27    1
     4    15    14   ar
     5     4    26    2
     6     4    21    1
     7    20    21   ar
     8    20    19   ar
     9    27    26    1
    10    27    28    2
    11    26    25    1
    12    21    17   ar
    13    32    31    2
    14    22    19    1
    15    28    31    1
    16    28    29    1
    17    19    18   ar
    18    25    29    2
    19    25     1    1
    20    29     5    1
    21    17    18   ar
    22    17     1    1
    23    14    16   ar
    24    14    13    1
    25    18     3    1
    26     5    34    2
    27     1    33    1
    28     1     6    1
    29     3    10    2
    30    34    33   ar
    31    34    35   ar
    32    33    37   ar
    33    10     6    1
    34    10     9    1
    35     6     7    2
    36    13    12    1
    37    35    38    1
    38    35    36   ar
    39    37    36   ar
    40    37     2    2
    41     9    11    1
    42     9     8    2
    43     7     2    1
    44     7     8    1
    45    36    39    1
    46     8    12    1
    47    39    40    1
    48    40    41    1
    49    41    42   ar
    50    41    43   ar
