@<TRIPOS>MOLECULE
2zsq_HEM_A_1.pdb
 43 50 0 0 0
SMALL
GASTEIGER

@<TRIPOS>ATOM
      1 FE          0.6000   -6.8320   15.3440 Fe    154  HEM154      0.0000
      2  CHA        0.5190   -9.9240   16.7660 C.2   154  HEM154      0.0000
      3  CHB        4.0620   -6.8270   15.5410 C.2   154  HEM154      0.0000
      4  CHC        0.6720   -3.6240   14.0590 C.2   154  HEM154      0.0000
      5  CHD       -2.7860   -6.7550   15.2940 C.2   154  HEM154      0.0000
      6  NA         2.0070   -8.0220   16.0100 N.2   154  HEM154      0.0000
      7  C1A        1.7920   -9.3280   16.4960 C.2   154  HEM154      0.0000
      8  C2A        3.0320  -10.0970   16.7960 C.2   154  HEM154      0.0000
      9  C3A        4.0250   -9.2270   16.4610 C.2   154  HEM154      0.0000
     10  C4A        3.3960   -7.9830   15.9800 C.2   154  HEM154      0.0000
     11  CMA        5.5820   -9.3660   16.5720 C.3   154  HEM154      0.0000
     12  CAA        3.1790  -11.4620   17.3230 C.3   154  HEM154      0.0000
     13  CBA        3.7800  -12.3880   16.1730 C.3   154  HEM154      0.0000
     14  CGA        2.8230  -12.3540   14.9420 C.2   154  HEM154      0.0000
     15  O1A        3.2060  -11.9930   13.7980 O.co2 154  HEM154      0.0000
     16  O2A        1.6570  -12.7920   15.1040 O.co2 154  HEM154      0.0000
     17  NB         2.0670   -5.4630   14.8760 N.ar  154  HEM154      0.0000
     18  C1B        3.5110   -5.6640   15.0200 C.ar  154  HEM154      0.0000
     19  C2B        4.1890   -4.4840   14.5580 C.ar  154  HEM154      0.0000
     20  C3B        3.2690   -3.6120   14.1690 C.ar  154  HEM154      0.0000
     21  C4B        1.8890   -4.2180   14.3480 C.ar  154  HEM154      0.0000
     22  CMB        5.7190   -4.3730   14.5370 C.3   154  HEM154      0.0000
     23  CAB        3.2910   -2.2380   13.5940 C.3   154  HEM154      0.0000
     24  CBB        4.2860   -1.5180   14.0030 C.3   154  HEM154      0.0000
     25  NC        -0.8390   -5.5140   14.7190 N.2   154  HEM154      0.0000
     26  C1C       -0.5580   -4.2620   14.3000 C.2   154  HEM154      0.0000
     27  C2C       -1.7560   -3.4910   14.1400 C.2   154  HEM154      0.0000
     28  C3C       -2.7150   -4.3910   14.5310 C.2   154  HEM154      0.0000
     29  C4C       -2.2160   -5.6420   14.8980 C.2   154  HEM154      0.0000
     30  CMC       -1.9730   -2.0440   13.6480 C.3   154  HEM154      0.0000
     31  CAC       -4.2200   -4.2660   14.7100 C.2   154  HEM154      0.0000
     32  CBC       -4.9070   -3.2410   14.3910 C.2   154  HEM154      0.0000
     33  ND        -0.9380   -8.1530   15.8830 N.ar  154  HEM154      0.0000
     34  C1D       -2.2600   -7.8800   15.7950 C.ar  154  HEM154      0.0000
     35  C2D       -2.9670   -9.0120   16.2680 C.ar  154  HEM154      0.0000
     36  C3D       -1.9830   -9.9950   16.7430 C.ar  154  HEM154      0.0000
     37  C4D       -0.7070   -9.3830   16.4550 C.ar  154  HEM154      0.0000
     38  CMD       -4.4350   -9.1510   16.3150 C.3   154  HEM154      0.0000
     39  CAD       -2.2180  -11.2470   17.4960 C.3   154  HEM154      0.0000
     40  CBD       -2.3400  -10.8200   19.0330 C.3   154  HEM154      0.0000
     41  CGD       -2.7610  -12.0120   19.8600 C.2   154  HEM154      0.0000
     42  O1D       -4.0270  -12.3210   19.8150 O.co2 154  HEM154      0.0000
     43  O2D       -1.7940  -12.6010   20.5030 O.co2 154  HEM154      0.0000
@<TRIPOS>BOND
     1    23    24    1
     2    23    20    1
     3    30    27    1
     4    15    14   ar
     5     4    26    2
     6     4    21    1
     7    27    26    1
     8    27    28    2
     9    20    21   ar
    10    20    19   ar
    11    26    25    1
    12    21    17   ar
    13    32    31    2
    14    28    31    1
    15    28    29    1
    16    22    19    1
    17    19    18   ar
    18    25    29    2
    19    25     1    1
    20    17    18   ar
    21    17     1    1
    22    29     5    1
    23    14    16   ar
    24    14    13    1
    25    18     3    1
    26     5    34    2
    27     1    33    1
    28     1     6    1
    29     3    10    2
    30    34    33   ar
    31    34    35   ar
    32    33    37   ar
    33    10     6    1
    34    10     9    1
    35     6     7    2
    36    13    12    1
    37    35    38    1
    38    35    36   ar
    39    37    36   ar
    40    37     2    2
    41     9    11    1
    42     9     8    2
    43     7     2    1
    44     7     8    1
    45    36    39    1
    46     8    12    1
    47    39    40    1
    48    40    41    1
    49    42    41   ar
    50    41    43   ar
