@<TRIPOS>MOLECULE
2zsr_HEM_A_1.pdb
 43 50 0 0 0
SMALL
GASTEIGER

@<TRIPOS>ATOM
      1 FE         -0.5780    6.6770   15.3460 Fe    154  HEM154      0.0000
      2  CHA       -0.4910    9.7410   16.8510 C.2   154  HEM154      0.0000
      3  CHB       -4.0000    6.6580   15.5870 C.2   154  HEM154      0.0000
      4  CHC       -0.6850    3.5160   14.0600 C.2   154  HEM154      0.0000
      5  CHD        2.8250    6.5920   15.3210 C.2   154  HEM154      0.0000
      6  NA        -1.9850    7.9670   16.0930 N.2   154  HEM154      0.0000
      7  C1A       -1.7520    9.2320   16.6290 C.2   154  HEM154      0.0000
      8  C2A       -3.0320    9.8640   16.9100 C.2   154  HEM154      0.0000
      9  C3A       -3.9830    8.9680   16.5720 C.2   154  HEM154      0.0000
     10  C4A       -3.3520    7.7740   16.0660 C.2   154  HEM154      0.0000
     11  CMA       -5.5030    9.1130   16.6830 C.3   154  HEM154      0.0000
     12  CAA       -3.1940   11.2840   17.4350 C.3   154  HEM154      0.0000
     13  CBA       -3.7150   12.1740   16.2510 C.3   154  HEM154      0.0000
     14  CGA       -2.7910   12.2210   15.0370 C.2   154  HEM154      0.0000
     15  O1A       -3.2170   11.8600   13.8890 O.co2 154  HEM154      0.0000
     16  O2A       -1.5990   12.6440   15.1810 O.co2 154  HEM154      0.0000
     17  NB        -2.0610    5.3440   14.8970 N.ar  154  HEM154      0.0000
     18  C1B       -3.4100    5.5190   15.0230 C.ar  154  HEM154      0.0000
     19  C2B       -4.1170    4.3820   14.5240 C.ar  154  HEM154      0.0000
     20  C3B       -3.1920    3.4960   14.1290 C.ar  154  HEM154      0.0000
     21  C4B       -1.8990    4.1180   14.3270 C.ar  154  HEM154      0.0000
     22  CMB       -5.6310    4.2870   14.5180 C.3   154  HEM154      0.0000
     23  CAB       -3.3740    2.1190   13.5710 C.2   154  HEM154      0.0000
     24  CBB       -4.3200    1.2780   13.9570 C.2   154  HEM154      0.0000
     25  NC         0.8130    5.3390   14.7570 N.2   154  HEM154      0.0000
     26  C1C        0.6100    4.0410   14.2930 C.2   154  HEM154      0.0000
     27  C2C        1.8350    3.3400   14.1380 C.2   154  HEM154      0.0000
     28  C3C        2.7920    4.2120   14.5300 C.2   154  HEM154      0.0000
     29  C4C        2.1900    5.4430   14.9040 C.2   154  HEM154      0.0000
     30  CMC        1.9650    1.9120   13.6520 C.3   154  HEM154      0.0000
     31  CAC        4.3070    4.0020   14.6480 C.2   154  HEM154      0.0000
     32  CBC        4.9930    2.9210   14.3570 C.2   154  HEM154      0.0000
     33  ND         0.8770    7.9320   15.9410 N.ar  154  HEM154      0.0000
     34  C1D        2.2360    7.7230   15.8210 C.ar  154  HEM154      0.0000
     35  C2D        2.9710    8.8620   16.3420 C.ar  154  HEM154      0.0000
     36  C3D        1.9780    9.7570   16.8370 C.ar  154  HEM154      0.0000
     37  C4D        0.7010    9.1610   16.5370 C.ar  154  HEM154      0.0000
     38  CMD        4.4540    9.0330   16.4140 C.3   154  HEM154      0.0000
     39  CAD        2.2720   11.0180   17.6030 C.3   154  HEM154      0.0000
     40  CBD        2.4370   10.6920   19.1340 C.3   154  HEM154      0.0000
     41  CGD        2.7590   11.9240   19.9470 C.2   154  HEM154      0.0000
     42  O1D        3.9650   12.2880   19.9900 O.co2 154  HEM154      0.0000
     43  O2D        1.8200   12.4890   20.5220 O.co2 154  HEM154      0.0000
@<TRIPOS>BOND
     1    23    24    2
     2    23    20    1
     3    30    27    1
     4    15    14   ar
     5     4    26    2
     6     4    21    1
     7    20    21   ar
     8    20    19   ar
     9    27    26    1
    10    27    28    2
    11    26    25    1
    12    21    17   ar
    13    32    31    2
    14    22    19    1
    15    19    18   ar
    16    28    31    1
    17    28    29    1
    18    25    29    2
    19    25     1    1
    20    17    18   ar
    21    17     1    1
    22    29     5    1
    23    18     3    1
    24    14    16   ar
    25    14    13    1
    26     5    34    2
    27     1    33    1
    28     1     6    1
    29     3    10    2
    30    34    33   ar
    31    34    35   ar
    32    33    37   ar
    33    10     6    1
    34    10     9    1
    35     6     7    2
    36    13    12    1
    37    35    38    1
    38    35    36   ar
    39    37    36   ar
    40    37     2    2
    41     9    11    1
    42     9     8    2
    43     7     2    1
    44     7     8    1
    45    36    39    1
    46     8    12    1
    47    39    40    1
    48    40    41    1
    49    41    42   ar
    50    41    43   ar
