@<TRIPOS>MOLECULE
2zss_HEM_A_1.pdb
 43 50 0 0 0
SMALL
GASTEIGER

@<TRIPOS>ATOM
      1 FE          0.6400   -6.8280   15.3320 Fe    154  HEM154      0.0000
      2  CHA        0.5530   -9.9670   16.7430 C.2   154  HEM154      0.0000
      3  CHB        4.0590   -6.7960   15.5260 C.2   154  HEM154      0.0000
      4  CHC        0.7080   -3.6200   14.0600 C.2   154  HEM154      0.0000
      5  CHD       -2.7820   -6.7340   15.2940 C.2   154  HEM154      0.0000
      6  NA         2.0280   -8.1370   16.0300 N.2   154  HEM154      0.0000
      7  C1A        1.8270   -9.4160   16.5240 C.2   154  HEM154      0.0000
      8  C2A        3.1140  -10.0480   16.8170 C.2   154  HEM154      0.0000
      9  C3A        4.0630   -9.1870   16.4580 C.2   154  HEM154      0.0000
     10  C4A        3.4400   -7.9420   15.9830 C.2   154  HEM154      0.0000
     11  CMA        5.5870   -9.2480   16.5770 C.3   154  HEM154      0.0000
     12  CAA        3.2230  -11.4530   17.3220 C.3   154  HEM154      0.0000
     13  CBA        3.8460  -12.2820   16.1620 C.3   154  HEM154      0.0000
     14  CGA        2.8840  -12.3650   14.9200 C.2   154  HEM154      0.0000
     15  O1A        3.3010  -12.0440   13.7880 O.co2 154  HEM154      0.0000
     16  O2A        1.6770  -12.7540   15.0870 O.co2 154  HEM154      0.0000
     17  NB         2.1210   -5.4730   14.8710 N.ar  154  HEM154      0.0000
     18  C1B        3.4900   -5.6360   15.0090 C.ar  154  HEM154      0.0000
     19  C2B        4.1710   -4.4890   14.5140 C.ar  154  HEM154      0.0000
     20  C3B        3.2690   -3.6270   14.1420 C.ar  154  HEM154      0.0000
     21  C4B        1.9170   -4.2560   14.3540 C.ar  154  HEM154      0.0000
     22  CMB        5.7220   -4.4100   14.4820 C.3   154  HEM154      0.0000
     23  CAB        3.3570   -2.2340   13.5920 C.2   154  HEM154      0.0000
     24  CBB        4.3160   -1.4420   14.0120 C.2   154  HEM154      0.0000
     25  NC        -0.7620   -5.5150   14.7140 N.2   154  HEM154      0.0000
     26  C1C       -0.5690   -4.2150   14.3160 C.2   154  HEM154      0.0000
     27  C2C       -1.8120   -3.5040   14.1450 C.2   154  HEM154      0.0000
     28  C3C       -2.7640   -4.3910   14.5400 C.2   154  HEM154      0.0000
     29  C4C       -2.1610   -5.6240   14.8850 C.2   154  HEM154      0.0000
     30  CMC       -1.8920   -2.0650   13.6820 C.3   154  HEM154      0.0000
     31  CAC       -4.2470   -4.2450   14.7190 C.2   154  HEM154      0.0000
     32  CBC       -4.8680   -3.1870   14.3860 C.2   154  HEM154      0.0000
     33  ND        -0.8740   -8.0890   15.8870 N.ar  154  HEM154      0.0000
     34  C1D       -2.2250   -7.8730   15.7770 C.ar  154  HEM154      0.0000
     35  C2D       -2.9440   -9.0480   16.3090 C.ar  154  HEM154      0.0000
     36  C3D       -1.9330   -9.9440   16.7740 C.ar  154  HEM154      0.0000
     37  C4D       -0.6250   -9.3770   16.4330 C.ar  154  HEM154      0.0000
     38  CMD       -4.4280   -9.1180   16.3410 C.3   154  HEM154      0.0000
     39  CAD       -2.1870  -11.2270   17.4850 C.3   154  HEM154      0.0000
     40  CBD       -2.3030  -10.8060   18.9900 C.3   154  HEM154      0.0000
     41  CGD       -2.6590  -11.9750   19.8340 C.2   154  HEM154      0.0000
     42  O1D       -3.9110  -12.3030   19.7870 O.co2 154  HEM154      0.0000
     43  O2D       -1.7100  -12.5460   20.5390 O.co2 154  HEM154      0.0000
@<TRIPOS>BOND
     1    23    24    2
     2    23    20    1
     3    30    27    1
     4    15    14   ar
     5     4    26    2
     6     4    21    1
     7    20    21   ar
     8    20    19   ar
     9    27    26    1
    10    27    28    2
    11    26    25    1
    12    21    17   ar
    13    32    31    2
    14    22    19    1
    15    19    18   ar
    16    28    31    1
    17    28    29    1
    18    25    29    2
    19    25     1    1
    20    17    18   ar
    21    17     1    1
    22    29     5    1
    23    14    16   ar
    24    14    13    1
    25    18     3    1
    26     5    34    2
    27     1    33    1
    28     1     6    1
    29     3    10    2
    30    34    33   ar
    31    34    35   ar
    32    33    37   ar
    33    10     6    1
    34    10     9    1
    35     6     7    2
    36    13    12    1
    37    35    38    1
    38    35    36   ar
    39    37     2    2
    40    37    36   ar
    41     9    11    1
    42     9     8    2
    43     7     2    1
    44     7     8    1
    45    36    39    1
    46     8    12    1
    47    39    40    1
    48    40    41    1
    49    42    41   ar
    50    41    43   ar
