@<TRIPOS>MOLECULE
2zst_HEM_A_1.pdb
 43 50 0 0 0
SMALL
GASTEIGER

@<TRIPOS>ATOM
      1 FE          0.6860   -6.8210   15.3210 Fe    154  HEM154      0.0000
      2  CHA        0.6000   -9.9480   16.7580 C.2   154  HEM154      0.0000
      3  CHB        4.1160   -6.7860   15.5430 C.2   154  HEM154      0.0000
      4  CHC        0.7360   -3.5810   13.9900 C.2   154  HEM154      0.0000
      5  CHD       -2.7010   -6.7070   15.3220 C.2   154  HEM154      0.0000
      6  NA         2.0690   -8.0780   16.0330 N.2   154  HEM154      0.0000
      7  C1A        1.9010   -9.3740   16.5220 C.2   154  HEM154      0.0000
      8  C2A        3.1470  -10.0570   16.8150 C.2   154  HEM154      0.0000
      9  C3A        4.0870   -9.1980   16.4620 C.2   154  HEM154      0.0000
     10  C4A        3.4640   -7.9180   16.0100 C.2   154  HEM154      0.0000
     11  CMA        5.6210   -9.2810   16.5620 C.3   154  HEM154      0.0000
     12  CAA        3.2260  -11.4420   17.3230 C.3   154  HEM154      0.0000
     13  CBA        3.8810  -12.2610   16.1700 C.3   154  HEM154      0.0000
     14  CGA        2.9060  -12.4140   14.9530 C.2   154  HEM154      0.0000
     15  O1A        3.3390  -12.0990   13.7960 O.co2 154  HEM154      0.0000
     16  O2A        1.7300  -12.8370   15.1160 O.co2 154  HEM154      0.0000
     17  NB         2.1490   -5.4420   14.8190 N.ar  154  HEM154      0.0000
     18  C1B        3.5180   -5.6780   14.9770 C.ar  154  HEM154      0.0000
     19  C2B        4.2000   -4.5230   14.5130 C.ar  154  HEM154      0.0000
     20  C3B        3.3060   -3.6340   14.1290 C.ar  154  HEM154      0.0000
     21  C4B        1.9230   -4.1980   14.3130 C.ar  154  HEM154      0.0000
     22  CMB        5.7640   -4.4260   14.4840 C.3   154  HEM154      0.0000
     23  CAB        3.4220   -2.2440   13.6260 C.2   154  HEM154      0.0000
     24  CBB        4.4230   -1.4580   14.0610 C.2   154  HEM154      0.0000
     25  NC        -0.6810   -5.4270   14.6790 N.2   154  HEM154      0.0000
     26  C1C       -0.5210   -4.1300   14.3020 C.2   154  HEM154      0.0000
     27  C2C       -1.7860   -3.4490   14.1310 C.2   154  HEM154      0.0000
     28  C3C       -2.7310   -4.3880   14.5160 C.2   154  HEM154      0.0000
     29  C4C       -2.0860   -5.5910   14.9180 C.2   154  HEM154      0.0000
     30  CMC       -1.8510   -2.0390   13.6020 C.3   154  HEM154      0.0000
     31  CAC       -4.2460   -4.2560   14.7120 C.2   154  HEM154      0.0000
     32  CBC       -4.8300   -3.1260   14.4310 C.2   154  HEM154      0.0000
     33  ND        -0.8080   -8.0880   15.9440 N.ar  154  HEM154      0.0000
     34  C1D       -2.1420   -7.8480   15.7740 C.ar  154  HEM154      0.0000
     35  C2D       -2.8440   -9.0150   16.3340 C.ar  154  HEM154      0.0000
     36  C3D       -1.8730   -9.9450   16.7980 C.ar  154  HEM154      0.0000
     37  C4D       -0.5940   -9.3770   16.4770 C.ar  154  HEM154      0.0000
     38  CMD       -4.3240   -9.1150   16.3530 C.3   154  HEM154      0.0000
     39  CAD       -2.1220  -11.2470   17.4720 C.3   154  HEM154      0.0000
     40  CBD       -2.2360  -10.8370   19.0180 C.3   154  HEM154      0.0000
     41  CGD       -2.6730  -12.0080   19.8450 C.2   154  HEM154      0.0000
     42  O1D       -3.9350  -12.2880   19.8560 O.co2 154  HEM154      0.0000
     43  O2D       -1.7070  -12.5870   20.4670 O.co2 154  HEM154      0.0000
@<TRIPOS>BOND
     1    30    27    1
     2    23    24    2
     3    23    20    1
     4    15    14   ar
     5     4    26    2
     6     4    21    1
     7    20    21   ar
     8    20    19   ar
     9    27    26    1
    10    27    28    2
    11    26    25    1
    12    21    17   ar
    13    32    31    2
    14    22    19    1
    15    19    18   ar
    16    28    31    1
    17    28    29    1
    18    25    29    2
    19    25     1    1
    20    17    18   ar
    21    17     1    1
    22    29     5    1
    23    14    16   ar
    24    14    13    1
    25    18     3    1
    26     1    33    1
    27     1     6    1
    28     5    34    2
    29     3    10    2
    30    34    33   ar
    31    34    35   ar
    32    33    37   ar
    33    10     6    1
    34    10     9    1
    35     6     7    2
    36    13    12    1
    37    35    38    1
    38    35    36   ar
    39     9    11    1
    40     9     8    2
    41    37     2    2
    42    37    36   ar
    43     7     2    1
    44     7     8    1
    45    36    39    1
    46     8    12    1
    47    39    40    1
    48    40    41    1
    49    41    42   ar
    50    41    43   ar
