@<TRIPOS>MOLECULE
2zsu_AG3_A_1.pdb
 13 12 0 0 0
SMALL
GASTEIGER

@<TRIPOS>ATOM
      1  N         33.3670   -9.2670   32.1960 N.3   1001  AG31001    -0.2180
      2  CA        31.9300   -9.5740   32.3620 C.3   1001  AG31001     0.0888
      3  CB        31.0950   -8.3350   32.0220 C.3   1001  AG31001     0.0225
      4  CG        30.9790   -8.1820   30.5120 C.3   1001  AG31001     0.0484
      5  CD        29.7880   -9.0020   30.0040 C.3   1001  AG31001     0.2205
      6  NE        28.5540   -8.1990   30.0710 N.pl3 1001  AG31001    -0.0865
      7  CZ        27.3410   -8.7130   29.6230 C.cat 1001  AG31001     0.5346
      8  NH1       27.2690   -9.9250   29.1330 N.pl3 1001  AG31001     0.1354
      9  NH2       26.1990   -7.9400   29.6820 N.pl3 1001  AG31001     0.1354
     10  C7        34.1370  -10.4750   32.5580 C.3   1001  AG31001     0.0902
     11  C8        34.1300  -11.4550   31.3770 C.3   1001  AG31001     0.0393
     12  C9        35.0350  -12.6480   31.6480 C.3   1001  AG31001     0.1108
     13  N10       36.4540  -12.2580   31.5680 N.3   1001  AG31001    -0.1313
@<TRIPOS>BOND
     1     8     7    1
     2     7     9    1
     3     7     6    2
     4     5     6    1
     5     5     4    1
     6     4     3    1
     7    11    12    1
     8    11    10    1
     9    13    12    1
    10     3     2    1
    11     1     2    1
    12     1    10    1
