@<TRIPOS>MOLECULE
2zsx_HEM_A_1.pdb
 43 50 0 0 0
SMALL
GASTEIGER

@<TRIPOS>ATOM
      1 FE          0.7170   -6.8190   15.3080 Fe    154  HEM154      0.0000
      2  CHA        0.6090   -9.8970   16.7090 C.2   154  HEM154      0.0000
      3  CHB        4.1910   -6.7910   15.5380 C.2   154  HEM154      0.0000
      4  CHC        0.7820   -3.6450   13.9990 C.2   154  HEM154      0.0000
      5  CHD       -2.7140   -6.7310   15.3460 C.2   154  HEM154      0.0000
      6  NA         2.1210   -8.0770   16.0000 N.2   154  HEM154      0.0000
      7  C1A        1.9110   -9.3330   16.5210 C.2   154  HEM154      0.0000
      8  C2A        3.1460  -10.0310   16.7560 C.2   154  HEM154      0.0000
      9  C3A        4.1820   -9.2060   16.4310 C.2   154  HEM154      0.0000
     10  C4A        3.5060   -7.9350   16.0220 C.2   154  HEM154      0.0000
     11  CMA        5.7270   -9.3320   16.5670 C.3   154  HEM154      0.0000
     12  CAA        3.2050  -11.4420   17.2560 C.3   154  HEM154      0.0000
     13  CBA        3.9100  -12.2910   16.1780 C.3   154  HEM154      0.0000
     14  CGA        2.9770  -12.3840   14.9090 C.2   154  HEM154      0.0000
     15  O1A        3.3940  -12.0870   13.7420 O.co2 154  HEM154      0.0000
     16  O2A        1.7960  -12.7890   15.0620 O.co2 154  HEM154      0.0000
     17  NB         2.1670   -5.4320   14.8890 N.ar  154  HEM154      0.0000
     18  C1B        3.5620   -5.7000   14.9400 C.ar  154  HEM154      0.0000
     19  C2B        4.3320   -4.5410   14.5390 C.ar  154  HEM154      0.0000
     20  C3B        3.4260   -3.6770   14.1100 C.ar  154  HEM154      0.0000
     21  C4B        2.0170   -4.2400   14.2970 C.ar  154  HEM154      0.0000
     22  CMB        5.8720   -4.3300   14.4860 C.3   154  HEM154      0.0000
     23  CAB        3.4680   -2.2350   13.5800 C.2   154  HEM154      0.0000
     24  CBB        4.4110   -1.4620   14.0750 C.2   154  HEM154      0.0000
     25  NC        -0.6580   -5.4340   14.6750 N.2   154  HEM154      0.0000
     26  C1C       -0.4790   -4.1730   14.2820 C.2   154  HEM154      0.0000
     27  C2C       -1.7380   -3.4710   14.1350 C.2   154  HEM154      0.0000
     28  C3C       -2.6230   -4.4290   14.5480 C.2   154  HEM154      0.0000
     29  C4C       -2.0250   -5.6650   14.9360 C.2   154  HEM154      0.0000
     30  CMC       -1.9040   -2.0660   13.5870 C.3   154  HEM154      0.0000
     31  CAC       -4.0920   -4.3520   14.7780 C.2   154  HEM154      0.0000
     32  CBC       -4.7460   -3.3210   14.4550 C.2   154  HEM154      0.0000
     33  ND        -0.8020   -8.0720   15.9410 N.ar  154  HEM154      0.0000
     34  C1D       -2.0960   -7.8200   15.7810 C.ar  154  HEM154      0.0000
     35  C2D       -2.7840   -8.9540   16.3220 C.ar  154  HEM154      0.0000
     36  C3D       -1.8470   -9.8750   16.7930 C.ar  154  HEM154      0.0000
     37  C4D       -0.5700   -9.3010   16.4730 C.ar  154  HEM154      0.0000
     38  CMD       -4.2480   -9.0280   16.3280 C.3   154  HEM154      0.0000
     39  CAD       -2.1540  -11.1540   17.4900 C.3   154  HEM154      0.0000
     40  CBD       -2.2160  -10.7720   19.0220 C.3   154  HEM154      0.0000
     41  CGD       -2.5660  -11.9850   19.8460 C.2   154  HEM154      0.0000
     42  O1D       -3.8170  -12.2440   19.8850 O.co2 154  HEM154      0.0000
     43  O2D       -1.6000  -12.6100   20.4510 O.co2 154  HEM154      0.0000
@<TRIPOS>BOND
     1    23    24    2
     2    23    20    1
     3    30    27    1
     4    15    14   ar
     5     4    26    2
     6     4    21    1
     7    20    21   ar
     8    20    19   ar
     9    27    26    1
    10    27    28    2
    11    26    25    1
    12    21    17   ar
    13    32    31    2
    14    22    19    1
    15    19    18   ar
    16    28    31    1
    17    28    29    1
    18    25    29    2
    19    25     1    1
    20    17    18   ar
    21    17     1    1
    22    14    16   ar
    23    14    13    1
    24    29     5    1
    25    18     3    1
    26     1    33    1
    27     1     6    1
    28     5    34    2
    29     3    10    2
    30    34    33   ar
    31    34    35   ar
    32    33    37   ar
    33     6    10    1
    34     6     7    2
    35    10     9    1
    36    13    12    1
    37    35    38    1
    38    35    36   ar
    39     9    11    1
    40     9     8    2
    41    37     2    2
    42    37    36   ar
    43     7     2    1
    44     7     8    1
    45     8    12    1
    46    36    39    1
    47    39    40    1
    48    40    41    1
    49    41    42   ar
    50    41    43   ar
