@<TRIPOS>MOLECULE
2zsy_HEM_A_1.pdb
 43 50 0 0 0
SMALL
GASTEIGER

@<TRIPOS>ATOM
      1 FE          0.7600   -6.8060   15.3060 Fe    154  HEM154      0.0000
      2  CHA        0.6310   -9.9090   16.7540 C.2   154  HEM154      0.0000
      3  CHB        4.1870   -6.7650   15.5690 C.2   154  HEM154      0.0000
      4  CHC        0.7830   -3.6520   13.9910 C.2   154  HEM154      0.0000
      5  CHD       -2.6210   -6.7510   15.3020 C.2   154  HEM154      0.0000
      6  NA         2.1540   -8.0560   16.0510 N.2   154  HEM154      0.0000
      7  C1A        1.9260   -9.3120   16.5130 C.2   154  HEM154      0.0000
      8  C2A        3.1790  -10.0070   16.7730 C.2   154  HEM154      0.0000
      9  C3A        4.1450   -9.1660   16.4530 C.2   154  HEM154      0.0000
     10  C4A        3.5310   -7.9090   15.9530 C.2   154  HEM154      0.0000
     11  CMA        5.6730   -9.3180   16.5000 C.3   154  HEM154      0.0000
     12  CAA        3.2660  -11.4110   17.2350 C.3   154  HEM154      0.0000
     13  CBA        3.9790  -12.2530   16.1630 C.3   154  HEM154      0.0000
     14  CGA        2.9780  -12.4150   14.9370 C.2   154  HEM154      0.0000
     15  O1A        3.3890  -12.1620   13.7530 O.co2 154  HEM154      0.0000
     16  O2A        1.7300  -12.7750   15.0980 O.co2 154  HEM154      0.0000
     17  NB         2.1810   -5.3740   14.8430 N.ar  154  HEM154      0.0000
     18  C1B        3.5700   -5.6750   15.0010 C.ar  154  HEM154      0.0000
     19  C2B        4.2730   -4.5200   14.5040 C.ar  154  HEM154      0.0000
     20  C3B        3.3520   -3.6890   14.0870 C.ar  154  HEM154      0.0000
     21  C4B        1.9820   -4.2250   14.2690 C.ar  154  HEM154      0.0000
     22  CMB        5.8290   -4.3790   14.5070 C.3   154  HEM154      0.0000
     23  CAB        3.4880   -2.2920   13.5680 C.2   154  HEM154      0.0000
     24  CBB        4.3830   -1.3620   14.0220 C.2   154  HEM154      0.0000
     25  NC        -0.6170   -5.5350   14.6240 N.2   154  HEM154      0.0000
     26  C1C       -0.4230   -4.2560   14.3560 C.2   154  HEM154      0.0000
     27  C2C       -1.6840   -3.5410   14.1340 C.2   154  HEM154      0.0000
     28  C3C       -2.6510   -4.4310   14.5050 C.2   154  HEM154      0.0000
     29  C4C       -1.9490   -5.6510   14.9410 C.2   154  HEM154      0.0000
     30  CMC       -1.7350   -2.1370   13.6570 C.3   154  HEM154      0.0000
     31  CAC       -4.1870   -4.3040   14.7300 C.2   154  HEM154      0.0000
     32  CBC       -4.7430   -3.1340   14.4780 C.2   154  HEM154      0.0000
     33  ND        -0.7890   -8.1130   15.9450 N.ar  154  HEM154      0.0000
     34  C1D       -2.1060   -7.8550   15.8020 C.ar  154  HEM154      0.0000
     35  C2D       -2.8080   -8.9770   16.3810 C.ar  154  HEM154      0.0000
     36  C3D       -1.8070   -9.8720   16.8010 C.ar  154  HEM154      0.0000
     37  C4D       -0.5150   -9.3000   16.5050 C.ar  154  HEM154      0.0000
     38  CMD       -4.2180   -9.1380   16.3520 C.3   154  HEM154      0.0000
     39  CAD       -2.0350  -11.1880   17.4750 C.3   154  HEM154      0.0000
     40  CBD       -2.0680  -10.8580   19.0020 C.3   154  HEM154      0.0000
     41  CGD       -2.5600  -12.0350   19.8130 C.2   154  HEM154      0.0000
     42  O1D       -3.8190  -12.2750   19.8420 O.co2 154  HEM154      0.0000
     43  O2D       -1.6560  -12.7490   20.3750 O.co2 154  HEM154      0.0000
@<TRIPOS>BOND
     1    23    24    2
     2    23    20    1
     3    30    27    1
     4    15    14   ar
     5     4    21    1
     6     4    26    2
     7    20    21   ar
     8    20    19   ar
     9    27    26    1
    10    27    28    2
    11    21    17   ar
    12    26    25    1
    13    32    31    2
    14    19    22    1
    15    19    18   ar
    16    28    31    1
    17    28    29    1
    18    25    29    2
    19    25     1    1
    20    17    18   ar
    21    17     1    1
    22    14    16   ar
    23    14    13    1
    24    29     5    1
    25    18     3    1
    26     5    34    2
    27     1    33    1
    28     1     6    1
    29     3    10    2
    30    34    33   ar
    31    34    35   ar
    32    33    37   ar
    33    10     6    1
    34    10     9    1
    35     6     7    2
    36    13    12    1
    37    38    35    1
    38    35    36   ar
    39     9    11    1
    40     9     8    2
    41    37     2    2
    42    37    36   ar
    43     7     2    1
    44     7     8    1
    45     8    12    1
    46    36    39    1
    47    39    40    1
    48    40    41    1
    49    41    42   ar
    50    41    43   ar
