@<TRIPOS>MOLECULE
2zsz_HEM_A_1.pdb
 43 50 0 0 0
SMALL
GASTEIGER

@<TRIPOS>ATOM
      1 FE         -0.6330    6.8530   15.3200 Fe    154  HEM154      0.0000
      2  CHA       -0.5590    9.9660   16.7730 C.2   154  HEM154      0.0000
      3  CHB       -4.0190    6.8770   15.5670 C.2   154  HEM154      0.0000
      4  CHC       -0.7360    3.6320   14.1330 C.2   154  HEM154      0.0000
      5  CHD        2.7330    6.7660   15.3560 C.2   154  HEM154      0.0000
      6  NA        -2.0600    8.1190   16.0500 N.2   154  HEM154      0.0000
      7  C1A       -1.8030    9.4060   16.5570 C.2   154  HEM154      0.0000
      8  C2A       -3.0720   10.0720   16.8180 C.2   154  HEM154      0.0000
      9  C3A       -4.0600    9.2180   16.4930 C.2   154  HEM154      0.0000
     10  C4A       -3.4100    8.0110   16.0190 C.2   154  HEM154      0.0000
     11  CMA       -5.5720    9.3450   16.5780 C.3   154  HEM154      0.0000
     12  CAA       -3.1730   11.4760   17.3440 C.3   154  HEM154      0.0000
     13  CBA       -3.7690   12.3310   16.1830 C.3   154  HEM154      0.0000
     14  CGA       -2.8540   12.3980   14.9400 C.2   154  HEM154      0.0000
     15  O1A       -3.2640   12.0770   13.7720 O.co2 154  HEM154      0.0000
     16  O2A       -1.6750   12.8110   15.1100 O.co2 154  HEM154      0.0000
     17  NB        -2.1120    5.5290   14.9290 N.ar  154  HEM154      0.0000
     18  C1B       -3.5050    5.6900   15.0200 C.ar  154  HEM154      0.0000
     19  C2B       -4.1880    4.4770   14.5630 C.ar  154  HEM154      0.0000
     20  C3B       -3.2580    3.6320   14.1720 C.ar  154  HEM154      0.0000
     21  C4B       -1.9430    4.2650   14.3880 C.ar  154  HEM154      0.0000
     22  CMB       -5.7190    4.4080   14.5160 C.3   154  HEM154      0.0000
     23  CAB       -3.3460    2.2440   13.6390 C.2   154  HEM154      0.0000
     24  CBB       -4.2940    1.3630   13.9410 C.2   154  HEM154      0.0000
     25  NC         0.7680    5.4980   14.7780 N.2   154  HEM154      0.0000
     26  C1C        0.5490    4.1890   14.3560 C.2   154  HEM154      0.0000
     27  C2C        1.8220    3.4600   14.2020 C.2   154  HEM154      0.0000
     28  C3C        2.7620    4.3910   14.5790 C.2   154  HEM154      0.0000
     29  C4C        2.1370    5.6420   14.9390 C.2   154  HEM154      0.0000
     30  CMC        1.9180    2.0290   13.7190 C.3   154  HEM154      0.0000
     31  CAC        4.3010    4.2580   14.7330 C.2   154  HEM154      0.0000
     32  CBC        4.8930    3.1080   14.4770 C.2   154  HEM154      0.0000
     33  ND         0.8390    8.1470   15.9470 N.ar  154  HEM154      0.0000
     34  C1D        2.1780    7.8910   15.8210 C.ar  154  HEM154      0.0000
     35  C2D        2.9260    9.0290   16.3420 C.ar  154  HEM154      0.0000
     36  C3D        1.9140    9.9430   16.8240 C.ar  154  HEM154      0.0000
     37  C4D        0.6300    9.3770   16.4970 C.ar  154  HEM154      0.0000
     38  CMD        4.4530    9.1380   16.3950 C.3   154  HEM154      0.0000
     39  CAD        2.2280   11.2320   17.5230 C.3   154  HEM154      0.0000
     40  CBD        2.3990   10.8450   19.0300 C.3   154  HEM154      0.0000
     41  CGD        2.8070   12.0170   19.8550 C.2   154  HEM154      0.0000
     42  O1D        4.0710   12.3230   19.8910 O.co2 154  HEM154      0.0000
     43  O2D        1.8390   12.5750   20.4490 O.co2 154  HEM154      0.0000
@<TRIPOS>BOND
     1    23    24    2
     2    23    20    1
     3    30    27    1
     4    15    14   ar
     5     4    26    2
     6     4    21    1
     7    20    21   ar
     8    20    19   ar
     9    27    26    1
    10    27    28    2
    11    26    25    1
    12    21    17   ar
    13    32    31    2
    14    22    19    1
    15    19    18   ar
    16    28    31    1
    17    28    29    1
    18    25    29    2
    19    25     1    1
    20    17    18   ar
    21    17     1    1
    22    29     5    1
    23    14    16   ar
    24    14    13    1
    25    18     3    1
    26     1    33    1
    27     1     6    1
    28     5    34    2
    29     3    10    2
    30    34    33   ar
    31    34    35   ar
    32    33    37   ar
    33    10     6    1
    34    10     9    1
    35     6     7    2
    36    13    12    1
    37    35    38    1
    38    35    36   ar
    39     9    11    1
    40     9     8    2
    41    37     2    2
    42    37    36   ar
    43     7     2    1
    44     7     8    1
    45     8    12    1
    46    36    39    1
    47    39    40    1
    48    40    41    1
    49    41    42   ar
    50    41    43   ar
