@<TRIPOS>MOLECULE
2zt0_HEM_A_1.pdb
 43 50 0 0 0
SMALL
GASTEIGER

@<TRIPOS>ATOM
      1 FE         -0.6550    6.8260   15.3250 Fe    154  HEM154      0.0000
      2  CHA       -0.5790    9.9260   16.7540 C.2   154  HEM154      0.0000
      3  CHB       -4.0320    6.8120   15.5660 C.2   154  HEM154      0.0000
      4  CHC       -0.7420    3.6200   14.0800 C.2   154  HEM154      0.0000
      5  CHD        2.7430    6.7590   15.3360 C.2   154  HEM154      0.0000
      6  NA        -2.1040    8.1180   16.0370 N.2   154  HEM154      0.0000
      7  C1A       -1.8390    9.4000   16.5550 C.2   154  HEM154      0.0000
      8  C2A       -3.1280   10.0450   16.8190 C.2   154  HEM154      0.0000
      9  C3A       -4.0890    9.1640   16.4870 C.2   154  HEM154      0.0000
     10  C4A       -3.4600    7.9580   15.9980 C.2   154  HEM154      0.0000
     11  CMA       -5.6110    9.2680   16.5890 C.3   154  HEM154      0.0000
     12  CAA       -3.2150   11.4640   17.3210 C.3   154  HEM154      0.0000
     13  CBA       -3.8490   12.3420   16.1840 C.3   154  HEM154      0.0000
     14  CGA       -2.8790   12.4050   14.9670 C.2   154  HEM154      0.0000
     15  O1A       -3.3210   12.0380   13.8170 O.co2 154  HEM154      0.0000
     16  O2A       -1.6770   12.7790   15.1050 O.co2 154  HEM154      0.0000
     17  NB        -2.1410    5.4920   14.8910 N.ar  154  HEM154      0.0000
     18  C1B       -3.5080    5.6620   15.0030 C.ar  154  HEM154      0.0000
     19  C2B       -4.2040    4.4760   14.5520 C.ar  154  HEM154      0.0000
     20  C3B       -3.2820    3.6310   14.1530 C.ar  154  HEM154      0.0000
     21  C4B       -1.9590    4.2360   14.3670 C.ar  154  HEM154      0.0000
     22  CMB       -5.7410    4.4250   14.5310 C.3   154  HEM154      0.0000
     23  CAB       -3.3970    2.2550   13.6330 C.2   154  HEM154      0.0000
     24  CBB       -4.3460    1.4410   14.0190 C.2   154  HEM154      0.0000
     25  NC         0.7160    5.4990   14.7660 N.2   154  HEM154      0.0000
     26  C1C        0.5300    4.2020   14.3210 C.2   154  HEM154      0.0000
     27  C2C        1.7860    3.4390   14.1550 C.2   154  HEM154      0.0000
     28  C3C        2.7050    4.3800   14.5430 C.2   154  HEM154      0.0000
     29  C4C        2.1060    5.6520   14.9300 C.2   154  HEM154      0.0000
     30  CMC        1.8860    2.0040   13.6750 C.3   154  HEM154      0.0000
     31  CAC        4.2290    4.2270   14.7190 C.2   154  HEM154      0.0000
     32  CBC        4.8330    3.1030   14.4530 C.2   154  HEM154      0.0000
     33  ND         0.8480    8.0950   15.9300 N.ar  154  HEM154      0.0000
     34  C1D        2.2030    7.8810   15.8100 C.ar  154  HEM154      0.0000
     35  C2D        2.9230    9.0360   16.3400 C.ar  154  HEM154      0.0000
     36  C3D        1.9190    9.9410   16.7830 C.ar  154  HEM154      0.0000
     37  C4D        0.6300    9.3550   16.4660 C.ar  154  HEM154      0.0000
     38  CMD        4.4380    9.1200   16.3940 C.3   154  HEM154      0.0000
     39  CAD        2.1590   11.2440   17.5100 C.3   154  HEM154      0.0000
     40  CBD        2.3490   10.8130   19.0040 C.3   154  HEM154      0.0000
     41  CGD        2.7840   11.9840   19.8340 C.2   154  HEM154      0.0000
     42  O1D        4.0350   12.2870   19.8880 O.co2 154  HEM154      0.0000
     43  O2D        1.8490   12.6290   20.3890 O.co2 154  HEM154      0.0000
@<TRIPOS>BOND
     1    23    24    2
     2    23    20    1
     3    30    27    1
     4    15    14   ar
     5     4    26    2
     6     4    21    1
     7    20    21   ar
     8    20    19   ar
     9    27    26    1
    10    27    28    2
    11    26    25    1
    12    21    17   ar
    13    32    31    2
    14    22    19    1
    15    28    31    1
    16    28    29    1
    17    19    18   ar
    18    25    29    2
    19    25     1    1
    20    17    18   ar
    21    17     1    1
    22    29     5    1
    23    14    16   ar
    24    14    13    1
    25    18     3    1
    26     1    33    1
    27     1     6    1
    28     5    34    2
    29     3    10    2
    30    34    33   ar
    31    34    35   ar
    32    33    37   ar
    33    10     6    1
    34    10     9    1
    35     6     7    2
    36    13    12    1
    37    35    38    1
    38    35    36   ar
    39    37     2    2
    40    37    36   ar
    41     9    11    1
    42     9     8    2
    43     7     2    1
    44     7     8    1
    45    36    39    1
    46     8    12    1
    47    39    40    1
    48    40    41    1
    49    41    42   ar
    50    41    43   ar
