@<TRIPOS>MOLECULE
2zt1_HEM_A_1.pdb
 43 50 0 0 0
SMALL
GASTEIGER

@<TRIPOS>ATOM
      1 FE         -0.6630    6.8340   15.3260 Fe    154  HEM154      0.0000
      2  CHA       -0.6240    9.9340   16.7500 C.2   154  HEM154      0.0000
      3  CHB       -4.0720    6.8380   15.5350 C.2   154  HEM154      0.0000
      4  CHC       -0.7530    3.6350   14.1350 C.2   154  HEM154      0.0000
      5  CHD        2.7580    6.7580   15.3330 C.2   154  HEM154      0.0000
      6  NA        -2.1050    8.1000   16.0190 N.2   154  HEM154      0.0000
      7  C1A       -1.8790    9.3710   16.5480 C.2   154  HEM154      0.0000
      8  C2A       -3.1540   10.0410   16.8120 C.2   154  HEM154      0.0000
      9  C3A       -4.1130    9.1550   16.4660 C.2   154  HEM154      0.0000
     10  C4A       -3.4690    7.9500   16.0010 C.2   154  HEM154      0.0000
     11  CMA       -5.6300    9.2930   16.5970 C.3   154  HEM154      0.0000
     12  CAA       -3.2100   11.4540   17.3280 C.3   154  HEM154      0.0000
     13  CBA       -3.8050   12.3470   16.1940 C.3   154  HEM154      0.0000
     14  CGA       -2.8300   12.3970   14.9830 C.2   154  HEM154      0.0000
     15  O1A       -3.2900   12.1140   13.8030 O.co2 154  HEM154      0.0000
     16  O2A       -1.6280   12.7650   15.1520 O.co2 154  HEM154      0.0000
     17  NB        -2.1610    5.4770   14.9010 N.ar  154  HEM154      0.0000
     18  C1B       -3.5600    5.6690   15.0140 C.ar  154  HEM154      0.0000
     19  C2B       -4.2150    4.4940   14.5420 C.ar  154  HEM154      0.0000
     20  C3B       -3.3020    3.6480   14.1340 C.ar  154  HEM154      0.0000
     21  C4B       -1.9650    4.2660   14.3550 C.ar  154  HEM154      0.0000
     22  CMB       -5.7350    4.4020   14.4990 C.3   154  HEM154      0.0000
     23  CAB       -3.3760    2.2820   13.6430 C.2   154  HEM154      0.0000
     24  CBB       -4.3210    1.4540   13.9810 C.2   154  HEM154      0.0000
     25  NC         0.7560    5.4670   14.7630 N.2   154  HEM154      0.0000
     26  C1C        0.5160    4.1990   14.3520 C.2   154  HEM154      0.0000
     27  C2C        1.7560    3.4380   14.1470 C.2   154  HEM154      0.0000
     28  C3C        2.7100    4.3540   14.5620 C.2   154  HEM154      0.0000
     29  C4C        2.1620    5.6190   14.9530 C.2   154  HEM154      0.0000
     30  CMC        1.8880    1.9810   13.6850 C.3   154  HEM154      0.0000
     31  CAC        4.2550    4.2180   14.7010 C.2   154  HEM154      0.0000
     32  CBC        4.7970    3.0620   14.3670 C.2   154  HEM154      0.0000
     33  ND         0.8570    8.1210   15.9040 N.ar  154  HEM154      0.0000
     34  C1D        2.1940    7.8620   15.8220 C.ar  154  HEM154      0.0000
     35  C2D        2.9010    9.0450   16.3310 C.ar  154  HEM154      0.0000
     36  C3D        1.8890    9.9530   16.8050 C.ar  154  HEM154      0.0000
     37  C4D        0.6000    9.3560   16.4890 C.ar  154  HEM154      0.0000
     38  CMD        4.3940    9.1680   16.3810 C.3   154  HEM154      0.0000
     39  CAD        2.1470   11.2450   17.5140 C.3   154  HEM154      0.0000
     40  CBD        2.3310   10.8400   19.0130 C.3   154  HEM154      0.0000
     41  CGD        2.7330   12.0140   19.8510 C.2   154  HEM154      0.0000
     42  O1D        4.0000   12.3370   19.8740 O.co2 154  HEM154      0.0000
     43  O2D        1.7770   12.5950   20.4540 O.co2 154  HEM154      0.0000
@<TRIPOS>BOND
     1    23    24    2
     2    23    20    1
     3    30    27    1
     4    15    14   ar
     5    20    21   ar
     6    20    19   ar
     7     4    26    2
     8     4    21    1
     9    27    26    1
    10    27    28    2
    11    26    25    1
    12    21    17   ar
    13    32    31    2
    14    22    19    1
    15    19    18   ar
    16    28    31    1
    17    28    29    1
    18    25    29    2
    19    25     1    1
    20    17    18   ar
    21    17     1    1
    22    29     5    1
    23    14    16   ar
    24    14    13    1
    25    18     3    1
    26     1    33    1
    27     1     6    1
    28     5    34    2
    29     3    10    2
    30    34    33   ar
    31    34    35   ar
    32    33    37   ar
    33    10     6    1
    34    10     9    1
    35     6     7    2
    36    13    12    1
    37    35    38    1
    38    35    36   ar
    39     9    11    1
    40     9     8    2
    41    37     2    2
    42    37    36   ar
    43     7     2    1
    44     7     8    1
    45    36    39    1
    46     8    12    1
    47    39    40    1
    48    40    41    1
    49    41    42   ar
    50    41    43   ar
