@<TRIPOS>MOLECULE
2zt2_HEM_A_1.pdb
 43 50 0 0 0
SMALL
GASTEIGER

@<TRIPOS>ATOM
      1 FE         -0.5940    6.6770   15.3420 Fe    154  HEM154      0.0000
      2  CHA       -0.5070    9.7420   16.8410 C.2   154  HEM154      0.0000
      3  CHB       -4.0180    6.6360   15.5700 C.2   154  HEM154      0.0000
      4  CHC       -0.6890    3.5070   14.0510 C.2   154  HEM154      0.0000
      5  CHD        2.7900    6.5720   15.3080 C.2   154  HEM154      0.0000
      6  NA        -1.9900    7.9720   16.0860 N.2   154  HEM154      0.0000
      7  C1A       -1.7810    9.2430   16.6290 C.2   154  HEM154      0.0000
      8  C2A       -3.0710    9.8730   16.9020 C.2   154  HEM154      0.0000
      9  C3A       -4.0220    8.9810   16.5620 C.2   154  HEM154      0.0000
     10  C4A       -3.3800    7.7810   16.0660 C.2   154  HEM154      0.0000
     11  CMA       -5.5570    9.1110   16.6790 C.3   154  HEM154      0.0000
     12  CAA       -3.2100   11.3040   17.4390 C.3   154  HEM154      0.0000
     13  CBA       -3.7470   12.1660   16.2470 C.3   154  HEM154      0.0000
     14  CGA       -2.7980   12.2280   15.0520 C.2   154  HEM154      0.0000
     15  O1A       -3.2060   11.8660   13.8930 O.co2 154  HEM154      0.0000
     16  O2A       -1.6020   12.6300   15.2100 O.co2 154  HEM154      0.0000
     17  NB        -2.0670    5.3160   14.8920 N.ar  154  HEM154      0.0000
     18  C1B       -3.4430    5.5080   15.0150 C.ar  154  HEM154      0.0000
     19  C2B       -4.1520    4.3900   14.5250 C.ar  154  HEM154      0.0000
     20  C3B       -3.2050    3.4960   14.1340 C.ar  154  HEM154      0.0000
     21  C4B       -1.9050    4.0940   14.3310 C.ar  154  HEM154      0.0000
     22  CMB       -5.6650    4.2690   14.5180 C.3   154  HEM154      0.0000
     23  CAB       -3.4110    2.1090   13.5750 C.2   154  HEM154      0.0000
     24  CBB       -4.3260    1.2520   13.9700 C.2   154  HEM154      0.0000
     25  NC         0.8120    5.3220   14.7390 N.2   154  HEM154      0.0000
     26  C1C        0.6000    4.0390   14.2890 C.2   154  HEM154      0.0000
     27  C2C        1.8150    3.3400   14.1290 C.2   154  HEM154      0.0000
     28  C3C        2.7810    4.1930   14.5160 C.2   154  HEM154      0.0000
     29  C4C        2.2000    5.4140   14.8840 C.2   154  HEM154      0.0000
     30  CMC        1.9460    1.9110   13.6290 C.3   154  HEM154      0.0000
     31  CAC        4.3040    4.0330   14.6570 C.2   154  HEM154      0.0000
     32  CBC        4.9780    2.9230   14.3480 C.2   154  HEM154      0.0000
     33  ND         0.8640    7.9460   15.9520 N.ar  154  HEM154      0.0000
     34  C1D        2.2420    7.7120   15.8260 C.ar  154  HEM154      0.0000
     35  C2D        2.9690    8.8420   16.3370 C.ar  154  HEM154      0.0000
     36  C3D        1.9710    9.7460   16.8490 C.ar  154  HEM154      0.0000
     37  C4D        0.6840    9.1980   16.5370 C.ar  154  HEM154      0.0000
     38  CMD        4.4550    9.0170   16.4000 C.3   154  HEM154      0.0000
     39  CAD        2.2640   11.0300   17.6090 C.3   154  HEM154      0.0000
     40  CBD        2.4260   10.6920   19.1360 C.3   154  HEM154      0.0000
     41  CGD        2.7420   11.9210   19.9550 C.2   154  HEM154      0.0000
     42  O1D        3.9420   12.2910   19.9820 O.co2 154  HEM154      0.0000
     43  O2D        1.7990   12.4920   20.5320 O.co2 154  HEM154      0.0000
@<TRIPOS>BOND
     1    23    24    2
     2    23    20    1
     3    30    27    1
     4    15    14   ar
     5     4    26    2
     6     4    21    1
     7    27    26    1
     8    27    28    2
     9    20    21   ar
    10    20    19   ar
    11    26    25    1
    12    21    17   ar
    13    32    31    2
    14    28    31    1
    15    28    29    1
    16    22    19    1
    17    19    18   ar
    18    25    29    2
    19    25     1    1
    20    29     5    1
    21    17    18   ar
    22    17     1    1
    23    18     3    1
    24    14    16   ar
    25    14    13    1
    26     5    34    2
    27     1    33    1
    28     1     6    1
    29     3    10    2
    30    34    33   ar
    31    34    35   ar
    32    33    37   ar
    33    10     6    1
    34    10     9    1
    35     6     7    2
    36    13    12    1
    37    35    38    1
    38    35    36   ar
    39    37     2    2
    40    37    36   ar
    41     9    11    1
    42     9     8    2
    43     7     2    1
    44     7     8    1
    45    36    39    1
    46     8    12    1
    47    39    40    1
    48    40    41    1
    49    41    42   ar
    50    41    43   ar
