@<TRIPOS>MOLECULE
2zt3_HEM_A_1.pdb
 43 50 0 0 0
SMALL
GASTEIGER

@<TRIPOS>ATOM
      1 FE         -0.6140    6.6700   15.3400 Fe    154  HEM154      0.0000
      2  CHA       -0.5120    9.7680   16.8560 C.2   154  HEM154      0.0000
      3  CHB       -4.0410    6.6630   15.5780 C.2   154  HEM154      0.0000
      4  CHC       -0.7010    3.5010   14.0600 C.2   154  HEM154      0.0000
      5  CHD        2.7820    6.5760   15.3330 C.2   154  HEM154      0.0000
      6  NA        -2.0120    7.9640   16.0970 N.2   154  HEM154      0.0000
      7  C1A       -1.7780    9.2420   16.6310 C.2   154  HEM154      0.0000
      8  C2A       -3.0560    9.8770   16.9040 C.2   154  HEM154      0.0000
      9  C3A       -4.0130    8.9710   16.5770 C.2   154  HEM154      0.0000
     10  C4A       -3.3950    7.7850   16.0530 C.2   154  HEM154      0.0000
     11  CMA       -5.5520    9.1100   16.6730 C.3   154  HEM154      0.0000
     12  CAA       -3.2250   11.2910   17.4430 C.3   154  HEM154      0.0000
     13  CBA       -3.7280   12.1960   16.2530 C.3   154  HEM154      0.0000
     14  CGA       -2.8170   12.2370   15.0330 C.2   154  HEM154      0.0000
     15  O1A       -3.2500   11.8700   13.8700 O.co2 154  HEM154      0.0000
     16  O2A       -1.6320   12.6420   15.1970 O.co2 154  HEM154      0.0000
     17  NB        -2.0890    5.3170   14.9030 N.ar  154  HEM154      0.0000
     18  C1B       -3.4660    5.5070   15.0030 C.ar  154  HEM154      0.0000
     19  C2B       -4.1870    4.3860   14.4960 C.ar  154  HEM154      0.0000
     20  C3B       -3.2230    3.5040   14.1410 C.ar  154  HEM154      0.0000
     21  C4B       -1.9120    4.1030   14.3320 C.ar  154  HEM154      0.0000
     22  CMB       -5.6850    4.2660   14.5200 C.3   154  HEM154      0.0000
     23  CAB       -3.4290    2.1180   13.5870 C.2   154  HEM154      0.0000
     24  CBB       -4.3580    1.2620   13.9810 C.2   154  HEM154      0.0000
     25  NC         0.7700    5.3310   14.7520 N.2   154  HEM154      0.0000
     26  C1C        0.5850    4.0290   14.2970 C.2   154  HEM154      0.0000
     27  C2C        1.8000    3.3290   14.1330 C.2   154  HEM154      0.0000
     28  C3C        2.7560    4.1970   14.5220 C.2   154  HEM154      0.0000
     29  C4C        2.1520    5.4380   14.8920 C.2   154  HEM154      0.0000
     30  CMC        1.9560    1.9200   13.6330 C.3   154  HEM154      0.0000
     31  CAC        4.2790    4.0110   14.6420 C.2   154  HEM154      0.0000
     32  CBC        4.9360    2.9010   14.3550 C.2   154  HEM154      0.0000
     33  ND         0.8700    7.9520   15.9630 N.ar  154  HEM154      0.0000
     34  C1D        2.2240    7.7010   15.8310 C.ar  154  HEM154      0.0000
     35  C2D        2.9440    8.8390   16.3490 C.ar  154  HEM154      0.0000
     36  C3D        1.9740    9.7650   16.8390 C.ar  154  HEM154      0.0000
     37  C4D        0.6860    9.2010   16.5530 C.ar  154  HEM154      0.0000
     38  CMD        4.4320    9.0050   16.4150 C.3   154  HEM154      0.0000
     39  CAD        2.2650   11.0360   17.5970 C.3   154  HEM154      0.0000
     40  CBD        2.4400   10.6900   19.1240 C.3   154  HEM154      0.0000
     41  CGD        2.7320   11.9200   19.9480 C.2   154  HEM154      0.0000
     42  O1D        3.9190   12.2910   19.9930 O.co2 154  HEM154      0.0000
     43  O2D        1.7840   12.4950   20.5080 O.co2 154  HEM154      0.0000
@<TRIPOS>BOND
     1    23    24    2
     2    23    20    1
     3    30    27    1
     4    15    14   ar
     5     4    26    2
     6     4    21    1
     7    27    26    1
     8    27    28    2
     9    20    21   ar
    10    20    19   ar
    11    26    25    1
    12    21    17   ar
    13    32    31    2
    14    19    22    1
    15    19    18   ar
    16    28    31    1
    17    28    29    1
    18    25    29    2
    19    25     1    1
    20    29     5    1
    21    17    18   ar
    22    17     1    1
    23    18     3    1
    24    14    16   ar
    25    14    13    1
    26     5    34    2
    27     1    33    1
    28     1     6    1
    29     3    10    2
    30    34    33   ar
    31    34    35   ar
    32    33    37   ar
    33    10     6    1
    34    10     9    1
    35     6     7    2
    36    13    12    1
    37    35    38    1
    38    35    36   ar
    39    37    36   ar
    40    37     2    2
    41     9    11    1
    42     9     8    2
    43     7     2    1
    44     7     8    1
    45    36    39    1
    46     8    12    1
    47    39    40    1
    48    40    41    1
    49    41    42   ar
    50    41    43   ar
