@<TRIPOS>MOLECULE
2zt4_HEM_A_1.pdb
 43 50 0 0 0
SMALL
GASTEIGER

@<TRIPOS>ATOM
      1 FE         -0.6150    6.6700   15.3390 Fe    154  HEM154      0.0000
      2  CHA       -0.4840    9.7510   16.8460 C.2   154  HEM154      0.0000
      3  CHB       -4.0360    6.6560   15.5740 C.2   154  HEM154      0.0000
      4  CHC       -0.6950    3.5210   14.0610 C.2   154  HEM154      0.0000
      5  CHD        2.7780    6.5860   15.3220 C.2   154  HEM154      0.0000
      6  NA        -2.0130    7.9810   16.0990 N.2   154  HEM154      0.0000
      7  C1A       -1.7490    9.2530   16.6200 C.2   154  HEM154      0.0000
      8  C2A       -3.0420    9.8620   16.8960 C.2   154  HEM154      0.0000
      9  C3A       -4.0210    8.9790   16.5790 C.2   154  HEM154      0.0000
     10  C4A       -3.3920    7.7760   16.0660 C.2   154  HEM154      0.0000
     11  CMA       -5.5450    9.1070   16.6790 C.3   154  HEM154      0.0000
     12  CAA       -3.1940   11.3030   17.4250 C.3   154  HEM154      0.0000
     13  CBA       -3.7270   12.1970   16.2560 C.3   154  HEM154      0.0000
     14  CGA       -2.8160   12.2480   15.0370 C.2   154  HEM154      0.0000
     15  O1A       -3.2360   11.8810   13.8750 O.co2 154  HEM154      0.0000
     16  O2A       -1.6170   12.6300   15.2060 O.co2 154  HEM154      0.0000
     17  NB        -2.0940    5.3420   14.8980 N.ar  154  HEM154      0.0000
     18  C1B       -3.4570    5.5170   14.9990 C.ar  154  HEM154      0.0000
     19  C2B       -4.1640    4.3710   14.5210 C.ar  154  HEM154      0.0000
     20  C3B       -3.2320    3.4960   14.1150 C.ar  154  HEM154      0.0000
     21  C4B       -1.9150    4.1060   14.3120 C.ar  154  HEM154      0.0000
     22  CMB       -5.6790    4.2690   14.5070 C.3   154  HEM154      0.0000
     23  CAB       -3.3970    2.1180   13.5760 C.2   154  HEM154      0.0000
     24  CBB       -4.3460    1.2750   13.9480 C.2   154  HEM154      0.0000
     25  NC         0.7760    5.3420   14.7590 N.2   154  HEM154      0.0000
     26  C1C        0.5820    4.0360   14.3040 C.2   154  HEM154      0.0000
     27  C2C        1.8100    3.3180   14.1420 C.2   154  HEM154      0.0000
     28  C3C        2.7630    4.1920   14.5240 C.2   154  HEM154      0.0000
     29  C4C        2.1670    5.4410   14.8980 C.2   154  HEM154      0.0000
     30  CMC        1.9230    1.9040   13.6440 C.3   154  HEM154      0.0000
     31  CAC        4.2840    3.9690   14.6440 C.2   154  HEM154      0.0000
     32  CBC        4.9170    2.8510   14.3380 C.2   154  HEM154      0.0000
     33  ND         0.8550    7.9540   15.9680 N.ar  154  HEM154      0.0000
     34  C1D        2.2030    7.7200   15.8270 C.ar  154  HEM154      0.0000
     35  C2D        2.9520    8.8570   16.3550 C.ar  154  HEM154      0.0000
     36  C3D        1.9640    9.7560   16.8600 C.ar  154  HEM154      0.0000
     37  C4D        0.7040    9.1890   16.5590 C.ar  154  HEM154      0.0000
     38  CMD        4.4500    8.9930   16.4060 C.3   154  HEM154      0.0000
     39  CAD        2.2830   11.0320   17.6110 C.3   154  HEM154      0.0000
     40  CBD        2.4280   10.6750   19.1250 C.3   154  HEM154      0.0000
     41  CGD        2.7340   11.8980   19.9360 C.2   154  HEM154      0.0000
     42  O1D        3.9160   12.2940   19.9850 O.co2 154  HEM154      0.0000
     43  O2D        1.7880   12.4990   20.5030 O.co2 154  HEM154      0.0000
@<TRIPOS>BOND
     1    23    24    2
     2    23    20    1
     3    30    27    1
     4    15    14   ar
     5     4    26    2
     6     4    21    1
     7    20    21   ar
     8    20    19   ar
     9    27    26    1
    10    27    28    2
    11    26    25    1
    12    21    17   ar
    13    32    31    2
    14    22    19    1
    15    19    18   ar
    16    28    31    1
    17    28    29    1
    18    25    29    2
    19    25     1    1
    20    29     5    1
    21    17    18   ar
    22    17     1    1
    23    18     3    1
    24    14    16   ar
    25    14    13    1
    26     5    34    2
    27     1    33    1
    28     1     6    1
    29     3    10    2
    30    34    33   ar
    31    34    35   ar
    32    33    37   ar
    33    10     6    1
    34    10     9    1
    35     6     7    2
    36    13    12    1
    37    35    38    1
    38    35    36   ar
    39    37     2    2
    40    37    36   ar
    41     9    11    1
    42     9     8    2
    43     7     2    1
    44     7     8    1
    45    36    39    1
    46     8    12    1
    47    39    40    1
    48    40    41    1
    49    41    42   ar
    50    41    43   ar
