@<TRIPOS>MOLECULE
2zt6_APC_A_1.pdb
 31 33 0 0 0
SMALL
GASTEIGER

@<TRIPOS>ATOM
      1  PG        31.6290  -18.4700   74.7030 P.3   699  APC699      0.5389
      2  O1G       30.1410  -18.8950   75.1490 O.3   699  APC699     -0.1143
      3  O2G       31.7960  -18.4910   73.2330 O.2   699  APC699     -0.2220
      4  O3G       32.6250  -19.4970   75.4410 O.3   699  APC699     -0.1143
      5  PB        31.2320  -16.6410   76.7660 P.3   699  APC699      0.3895
      6  O1B       32.1530  -15.4650   77.3670 O.2   699  APC699     -0.2544
      7  O2B       31.1540  -17.8060   77.6750 O.3   699  APC699     -0.1388
      8  O3B       31.9000  -17.0230   75.3520 O.3   699  APC699     -0.2026
      9  PA        29.2090  -14.6910   77.6850 P.3   699  APC699      0.3820
     10  O1A       29.7580  -15.3170   79.0640 O.3   699  APC699     -0.1392
     11  O2A       29.7670  -13.3490   77.4080 O.2   699  APC699     -0.2548
     12  C3A       29.6220  -15.8990   76.4030 C.3   699  APC699      0.2357
     13  O5'       27.6050  -14.6690   77.8260 O.3   699  APC699     -0.2896
     14  C5'       26.8700  -13.6230   77.1840 C.3   699  APC699      0.1836
     15  C4'       26.7450  -13.8960   75.6850 C.3   699  APC699      0.1822
     16  O4'       26.5990  -12.7170   74.8820 O.3   699  APC699     -0.3135
     17  C3'       25.4950  -14.6700   75.2720 C.3   699  APC699      0.2184
     18  O3'       25.5710  -16.0200   75.7360 O.3   699  APC699     -0.2174
     19  C2'       25.6600  -14.5900   73.7560 C.3   699  APC699      0.2570
     20  O2'       24.3720  -14.5710   73.1370 O.3   699  APC699     -0.2130
     21  C1'       26.3470  -13.2340   73.5630 C.3   699  APC699      0.3186
     22  N9        27.6330  -13.4490   72.8620 N.pl3 699  APC699     -0.1439
     23  C8        28.8430  -13.4280   73.4160 C.3   699  APC699      0.3377
     24  N7        29.7690  -13.6280   72.4810 N.2   699  APC699     -0.2095
     25  C5        29.1440  -13.7810   71.3170 C.2   699  APC699      0.2526
     26  C6        29.5690  -14.0010   70.0140 C.2   699  APC699      0.4393
     27  N6        30.8650  -14.0940   69.7310 N.pl3 699  APC699      0.2180
     28  N1        28.6510  -14.1030   69.0420 N.2   699  APC699      0.0021
     29  C2        27.3610  -13.9960   69.3100 C.3   699  APC699      0.5254
     30  N3        26.9220  -13.7830   70.5380 N.2   699  APC699     -0.0055
     31  C4        27.7820  -13.6700   71.5590 C.2   699  APC699      0.3518
@<TRIPOS>BOND
     1    28    29    1
     2    28    26    2
     3    29    30    1
     4    27    26    1
     5    26    25    1
     6    30    31    2
     7    25    31    1
     8    25    24    2
     9    31    22    1
    10    24    23    1
    11    22    23    1
    12    22    21    1
    13    20    19    1
    14     3     1    2
    15    21    19    1
    16    21    16    1
    17    19    17    1
    18     1     2    1
    19     1     8    1
    20     1     4    1
    21    16    15    1
    22    17    15    1
    23    17    18    1
    24     8     5    1
    25    15    14    1
    26    12     5    1
    27    12     9    1
    28     5     6    2
    29     5     7    1
    30    14    13    1
    31    11     9    2
    32     9    13    1
    33     9    10    1
