@<TRIPOS>MOLECULE
2zt7_ATP_A_1.pdb
 31 33 0 0 0
SMALL
GASTEIGER

@<TRIPOS>ATOM
      1  PG        31.7460  -18.0630   73.8900 P.3   1200  ATP1200     0.5373
      2  O1G       30.9910  -18.5650   72.5610 O.2   1200  ATP1200    -0.2221
      3  O2G       32.9640  -17.2830   73.5770 O.3   1200  ATP1200    -0.1143
      4  O3G       32.0830  -19.3930   74.7300 O.3   1200  ATP1200    -0.1143
      5  PB        31.1380  -16.1550   75.8340 P.3   1200  ATP1200     0.2277
      6  O1B       30.9110  -16.8500   77.2690 O.3   1200  ATP1200    -0.4368
      7  O2B       32.5360  -15.7180   75.6260 O.2   1200  ATP1200    -0.5168
      8  O3B       30.6600  -17.2430   74.7490 O.3   1200  ATP1200    -0.2258
      9  PA        29.5650  -14.2470   77.1210 P.3   1200  ATP1200     0.2189
     10  O1A       30.8290  -13.4400   77.7110 O.2   1200  ATP1200    -0.5170
     11  O2A       29.0490  -15.2470   78.0840 O.3   1200  ATP1200    -0.4371
     12  O3A       30.0880  -14.9350   75.7600 O.3   1200  ATP1200    -0.2700
     13  O5'       28.4740  -13.1280   76.7260 O.3   1200  ATP1200    -0.3112
     14  C5'       27.1510  -13.5220   76.3500 C.3   1200  ATP1200     0.1813
     15  C4'       27.1560  -14.0720   74.9230 C.3   1200  ATP1200     0.1821
     16  O4'       27.3430  -13.0190   73.9650 O.3   1200  ATP1200    -0.3135
     17  C3'       25.8330  -14.6610   74.4400 C.3   1200  ATP1200     0.2184
     18  O3'       25.5680  -15.8880   75.1260 O.3   1200  ATP1200    -0.2174
     19  C2'       26.2500  -14.8990   72.9910 C.3   1200  ATP1200     0.2570
     20  O2'       25.0830  -14.9940   72.1720 O.3   1200  ATP1200    -0.2130
     21  C1'       26.9860  -13.5890   72.6920 C.3   1200  ATP1200     0.3186
     22  N9        28.2180  -13.8360   71.9110 N.pl3 1200  ATP1200    -0.1439
     23  C8        29.4390  -13.9860   72.4230 C.3   1200  ATP1200     0.3377
     24  N7        30.3250  -14.1110   71.4390 N.2   1200  ATP1200    -0.2095
     25  C5        29.6630  -14.0430   70.2860 C.2   1200  ATP1200     0.2526
     26  C6        30.0430  -14.0950   68.9530 C.2   1200  ATP1200     0.4393
     27  N6        31.3240  -14.2280   68.6200 N.pl3 1200  ATP1200     0.2180
     28  N1        29.0990  -13.9870   68.0060 N.2   1200  ATP1200     0.0021
     29  C2        27.8260  -13.8330   68.3280 C.3   1200  ATP1200     0.5254
     30  N3        27.4300  -13.7750   69.5880 N.2   1200  ATP1200    -0.0055
     31  C4        28.3190  -13.8740   70.5860 C.2   1200  ATP1200     0.3518
@<TRIPOS>BOND
     1    28    29    1
     2    28    26    2
     3    29    30    1
     4    27    26    1
     5    26    25    1
     6    30    31    2
     7    25    31    1
     8    25    24    2
     9    31    22    1
    10    24    23    1
    11    22    23    1
    12    22    21    1
    13    20    19    1
    14     2     1    2
    15    21    19    1
    16    21    16    1
    17    19    17    1
    18     3     1    1
    19     1     4    1
    20     1     8    1
    21    16    15    1
    22    17    15    1
    23    17    18    1
    24     8     5    1
    25    15    14    1
    26     7     5    2
    27    12     5    1
    28    12     9    1
    29     5     6    1
    30    14    13    1
    31    13     9    1
    32     9    10    2
    33     9    11    1
