@<TRIPOS>MOLECULE
2zt8_DRV_A_1.pdb
 27 29 0 0 0
SMALL
GASTEIGER

@<TRIPOS>ATOM
      1  C4        27.9300  -13.9800   70.8250 C.2   699  DRV699      0.3518
      2  C5        29.2690  -14.1600   70.5050 C.2   699  DRV699      0.2526
      3  C6        29.6220  -14.2740   69.1680 C.2   699  DRV699      0.4393
      4  C8        29.0850  -14.0200   72.6430 C.3   699  DRV699      0.3377
      5  N1        28.6590  -14.2070   68.2370 N.2   699  DRV699      0.0021
      6  N3        27.0230  -13.9220   69.8410 N.2   699  DRV699     -0.0055
      7  N         27.7270   -8.5240   79.1890 N.3   699  DRV699     -0.1209
      8  CA        27.9930   -9.8750   79.7050 C.3   699  DRV699      0.1973
      9  C         28.5390  -10.7560   78.5810 C.2   699  DRV699      0.2818
     10  O         29.5020  -10.3970   77.9030 O.2   699  DRV699     -0.2700
     11  NAO       27.9040  -11.9120   78.4150 N.am  699  DRV699     -0.0576
     12  SBA       28.3870  -12.9450   77.2510 S.3   699  DRV699      0.0852
     13  OAD       29.8130  -13.3370   77.4960 O.3   699  DRV699     -0.0508
     14  OAE       28.2800  -12.2710   75.9150 O.3   699  DRV699     -0.0508
     15  O5'       27.5600  -14.1110   77.2820 O.3   699  DRV699     -0.2230
     16  C5'       26.3130  -14.1730   76.5820 C.3   699  DRV699      0.2064
     17  C4'       26.5120  -14.5170   75.1040 C.3   699  DRV699      0.1842
     18  O4'       26.9490  -13.3950   74.3200 O.3   699  DRV699     -0.3135
     19  C3'       25.2270  -14.9170   74.3820 C.3   699  DRV699      0.2185
     20  O3'       24.7970  -16.1990   74.8480 O.3   699  DRV699     -0.2174
     21  C2'       25.8130  -14.9990   72.9750 C.3   699  DRV699      0.2570
     22  O2'       24.7580  -14.9300   72.0120 O.3   699  DRV699     -0.2130
     23  C1'       26.6250  -13.7020   72.9510 C.3   699  DRV699      0.3186
     24  N9        27.8540  -13.8970   72.1500 N.pl3 699  DRV699     -0.1439
     25  N7        29.9520  -14.1800   71.6460 N.2   699  DRV699     -0.2095
     26  C2        27.3940  -14.0350   68.5770 C.3   699  DRV699      0.5254
     27  N6        30.8930  -14.4430   68.8140 N.pl3 699  DRV699      0.2180
@<TRIPOS>BOND
     1     5    26    1
     2     5     3    2
     3    26     6    1
     4    27     3    1
     5     3     2    1
     6     6     1    2
     7     2     1    1
     8     2    25    2
     9     1    24    1
    10    25     4    1
    11    22    21    1
    12    24     4    1
    13    24    23    1
    14    23    21    1
    15    23    18    1
    16    21    19    1
    17    18    17    1
    18    19    20    1
    19    19    17    1
    20    17    16    1
    21    14    12    1
    22    16    15    1
    23    12    15    1
    24    12    13    1
    25    12    11    1
    26    10     9    2
    27    11     9   am
    28     9     8    1
    29     7     8    1
