@<TRIPOS>MOLECULE
2zt9_HEM_A_1.pdb
 43 50 0 0 0
SMALL
GASTEIGER

@<TRIPOS>ATOM
      1  CHA      -51.9680   64.2180   18.9490 C.2   301  HEM301      0.0000
      2  CHB      -50.1630   66.4650   22.8410 C.2   301  HEM301      0.0000
      3  CHC      -46.0030   67.1110   20.3530 C.2   301  HEM301      0.0000
      4  CHD      -47.7800   64.9120   16.4810 C.2   301  HEM301      0.0000
      5  C1A      -51.8600   64.7330   20.2170 C.2   301  HEM301      0.0000
      6  C2A      -52.8500   64.6370   21.2730 C.2   301  HEM301      0.0000
      7  C3A      -52.3480   65.2640   22.3500 C.2   301  HEM301      0.0000
      8  C4A      -51.0350   65.7750   22.0150 C.2   301  HEM301      0.0000
      9  CMA      -53.0250   65.4210   23.7260 C.3   301  HEM301      0.0000
     10  CAA      -54.2260   63.9170   21.1510 C.3   301  HEM301      0.0000
     11  CBA      -55.2910   64.8100   20.5090 C.3   301  HEM301      0.0000
     12  CGA      -55.3880   64.6020   19.0120 C.2   301  HEM301      0.0000
     13  O1A      -55.5060   65.6130   18.2670 O.co2 301  HEM301      0.0000
     14  O2A      -55.3550   63.4300   18.5470 O.co2 301  HEM301      0.0000
     15  C1B      -48.8420   66.7760   22.5230 C.ar  301  HEM301      0.0000
     16  C2B      -47.8270   67.3260   23.4110 C.ar  301  HEM301      0.0000
     17  C3B      -46.6990   67.4950   22.6980 C.ar  301  HEM301      0.0000
     18  C4B      -46.9520   67.0610   21.3500 C.ar  301  HEM301      0.0000
     19  CMB      -48.0380   67.6550   24.9000 C.3   301  HEM301      0.0000
     20  CAB      -45.3050   68.0240   23.1150 C.2   301  HEM301      0.0000
     21  CBB      -45.1350   69.0080   23.9950 C.2   301  HEM301      0.0000
     22  C1C      -46.1050   66.5790   19.0980 C.2   301  HEM301      0.0000
     23  C2C      -45.0520   66.5380   18.0990 C.2   301  HEM301      0.0000
     24  C3C      -45.5600   65.9170   17.0130 C.2   301  HEM301      0.0000
     25  C4C      -46.9300   65.5700   17.3180 C.2   301  HEM301      0.0000
     26  CMC      -43.6210   67.1000   18.2860 C.3   301  HEM301      0.0000
     27  CAC      -44.8720   65.5840   15.6550 C.2   301  HEM301      0.0000
     28  CBC      -43.8290   66.2780   15.1830 C.2   301  HEM301      0.0000
     29  C1D      -49.0710   64.5410   16.7730 C.ar  301  HEM301      0.0000
     30  C2D      -49.9670   63.9360   15.8190 C.ar  301  HEM301      0.0000
     31  C3D      -51.2500   63.7190   16.6080 C.ar  301  HEM301      0.0000
     32  C4D      -51.0290   64.2250   17.9390 C.ar  301  HEM301      0.0000
     33  CMD      -49.6800   63.5750   14.3480 C.3   301  HEM301      0.0000
     34  CAD      -52.5510   63.1410   16.0780 C.3   301  HEM301      0.0000
     35  CBD      -53.3630   64.4090   15.8780 C.3   301  HEM301      0.0000
     36  CGD      -54.5840   64.0050   15.1410 C.2   301  HEM301      0.0000
     37  O1D      -55.5280   63.5460   15.8390 O.co2 301  HEM301      0.0000
     38  O2D      -54.5720   64.1280   13.8840 O.co2 301  HEM301      0.0000
     39  NA       -50.7770   65.4300   20.6950 N.2   301  HEM301      0.0000
     40  NB       -48.2630   66.6320   21.2640 N.ar  301  HEM301      0.0000
     41  NC       -47.2370   65.9800   18.5920 N.2   301  HEM301      0.0000
     42  ND       -49.7270   64.6980   18.0010 N.ar  301  HEM301      0.0000
     43 FE        -49.0440   65.6690   19.5970 Fe    301  HEM301      0.0000
@<TRIPOS>BOND
     1    38    36   ar
     2    33    30    1
     3    36    37   ar
     4    36    35    1
     5    28    27    2
     6    27    24    1
     7    30    31   ar
     8    30    29   ar
     9    35    34    1
    10    34    31    1
    11     4    29    2
    12     4    25    1
    13    31    32   ar
    14    29    42   ar
    15    24    25    1
    16    24    23    2
    17    25    41    2
    18    32    42   ar
    19    32     1    2
    20    42    43    1
    21    23    26    1
    22    23    22    1
    23    13    12   ar
    24    14    12   ar
    25    41    22    1
    26    41    43    1
    27     1     5    1
    28    12    11    1
    29    22     3    2
    30    43    39    1
    31    43    40    1
    32     5    39    2
    33     5     6    1
    34     3    18    1
    35    11    10    1
    36    39     8    1
    37    10     6    1
    38    40    18   ar
    39    40    15   ar
    40     6     7    2
    41    18    17   ar
    42     8     7    1
    43     8     2    2
    44     7     9    1
    45    15     2    1
    46    15    16   ar
    47    17    20    1
    48    17    16   ar
    49    20    21    2
    50    16    19    1
