@<TRIPOS>MOLECULE
2ztg_A5A_A_1.pdb
 28 30 0 0 0
SMALL
GASTEIGER

@<TRIPOS>ATOM
      1  N         35.6190  -14.5730  -37.0920 N.3   801  A5A801     -0.1230
      2  CA        36.6340  -13.7560  -37.7610 C.3   801  A5A801      0.1710
      3  CB        35.9770  -12.6200  -38.5480 C.3   801  A5A801      0.0305
      4  C         37.5850  -13.1350  -36.7260 C.2   801  A5A801      0.2798
      5  O         37.2930  -13.1850  -35.5330 O.2   801  A5A801     -0.2701
      6  N3S       38.6700  -12.5510  -37.2090 N.am  801  A5A801     -0.0577
      7  S         39.7100  -12.1480  -36.0210 S.3   801  A5A801      0.0852
      8  O1S       39.9470  -13.3400  -35.1420 O.3   801  A5A801     -0.0508
      9  O2S       41.0080  -11.7130  -36.6310 O.3   801  A5A801     -0.0508
     10  O5'       39.1840  -11.0600  -35.2530 O.3   801  A5A801     -0.2230
     11  C5'       38.7740   -9.8520  -35.9060 C.3   801  A5A801      0.2064
     12  C4'       39.5290   -8.6270  -35.3810 C.3   801  A5A801      0.1842
     13  O4'       39.2760   -8.3520  -33.9930 O.3   801  A5A801     -0.3135
     14  C3'       41.0500   -8.7580  -35.4620 C.3   801  A5A801      0.2185
     15  O3'       41.4660   -8.5180  -36.8080 O.3   801  A5A801     -0.2174
     16  C2'       41.4110   -7.5430  -34.6100 C.3   801  A5A801      0.2570
     17  O2'       41.1110   -6.3390  -35.3200 O.3   801  A5A801     -0.2130
     18  C1'       40.4330   -7.6950  -33.4430 C.3   801  A5A801      0.3186
     19  N9        41.0480   -8.5670  -32.4220 N.pl3 801  A5A801     -0.1439
     20  C8        41.1040  -10.0300  -32.5480 C.3   801  A5A801      0.3377
     21  N7        41.6700  -10.4370  -31.2570 N.2   801  A5A801     -0.2095
     22  C5        42.0150   -9.3420  -30.5850 C.2   801  A5A801      0.2526
     23  C6        42.6010   -9.1730  -29.3340 C.2   801  A5A801      0.4393
     24  N6        42.8880  -10.2440  -28.5970 N.pl3 801  A5A801      0.2180
     25  N1        42.8010   -7.9370  -28.8580 N.2   801  A5A801      0.0021
     26  C2        42.4340   -6.8790  -29.5570 C.3   801  A5A801      0.5254
     27  N3        41.8630   -6.9980  -30.7480 N.2   801  A5A801     -0.0055
     28  C4        41.6430   -8.2020  -31.2870 C.2   801  A5A801      0.3518
@<TRIPOS>BOND
     1     3     2    1
     2     2     1    1
     3     2     4    1
     4     6     4   am
     5     6     7    1
     6    15    14    1
     7     4     5    2
     8     9     7    1
     9     7    10    1
    10     7     8    1
    11    11    12    1
    12    11    10    1
    13    14    12    1
    14    14    16    1
    15    12    13    1
    16    17    16    1
    17    16    18    1
    18    13    18    1
    19    18    19    1
    20    20    19    1
    21    20    21    1
    22    19    28    1
    23    28    27    2
    24    28    22    1
    25    21    22    2
    26    27    26    1
    27    22    23    1
    28    26    25    1
    29    23    25    2
    30    23    24    1
