@<TRIPOS>MOLECULE
2zth_SAM_A_1.pdb
 27 29 0 0 0
SMALL
GASTEIGER

@<TRIPOS>ATOM
      1  N         10.4020   11.0280   16.0980 N.3   305  SAM305     -0.1208
      2  CA        11.1060   10.2410   15.0410 C.3   305  SAM305      0.1952
      3  C         10.0640    9.3520   14.4470 C.2   305  SAM305      0.3819
      4  O          9.0260    9.1630   15.0730 O.co2 305  SAM305     -0.2441
      5  OXT       10.2280    8.8470   13.3380 O.co2 305  SAM305     -0.2441
      6  CB        12.3430    9.4700   15.5390 C.3   305  SAM305      0.0414
      7  CG        13.4420   10.4920   15.8140 C.3   305  SAM305      0.0503
      8  SD        14.9440    9.8360   16.0590 S.3   305  SAM305     -0.1761
      9  CE        14.8100    8.6870   17.2620 C.3   305  SAM305      0.0590
     10  C5'       15.9490   10.9510   16.7900 C.3   305  SAM305      0.0806
     11  C4'       16.1980   12.1240   15.8490 C.3   305  SAM305      0.1622
     12  O4'       16.5490   13.3310   16.5370 O.3   305  SAM305     -0.3153
     13  C3'       17.3500   11.7890   14.9280 C.3   305  SAM305      0.2168
     14  O3'       16.8270   12.0300   13.6190 O.3   305  SAM305     -0.2175
     15  C2'       18.5110   12.6820   15.4010 C.3   305  SAM305      0.2569
     16  O2'       19.3450   13.1390   14.3440 O.3   305  SAM305     -0.2130
     17  C1'       17.7800   13.8550   16.0120 C.3   305  SAM305      0.3185
     18  N9        18.4010   14.5390   17.1550 N.pl3 305  SAM305     -0.1439
     19  C8        19.0380   14.0250   18.2210 C.3   305  SAM305      0.3377
     20  N7        19.4080   15.0040   19.1070 N.2   305  SAM305     -0.2095
     21  C5        18.9570   16.1450   18.5840 C.2   305  SAM305      0.2526
     22  C6        18.9750   17.5470   18.9820 C.2   305  SAM305      0.4393
     23  N6        19.5800   17.9120   20.1400 N.pl3 305  SAM305      0.2180
     24  N1        18.3800   18.4310   18.1470 N.2   305  SAM305      0.0021
     25  C2        17.7710   18.0860   16.9960 C.3   305  SAM305      0.5254
     26  N3        17.7320   16.8270   16.5770 N.2   305  SAM305     -0.0055
     27  C4        18.2970   15.8430   17.3170 C.2   305  SAM305      0.3518
@<TRIPOS>BOND
     1     5     3   ar
     2    14    13    1
     3    16    15    1
     4     3     2    1
     5     3     4   ar
     6    13    15    1
     7    13    11    1
     8     2     6    1
     9     2     1    1
    10    15    17    1
    11     6     7    1
    12     7     8    1
    13    11    12    1
    14    11    10    1
    15    17    12    1
    16    17    18    1
    17     8    10    1
    18     8     9    1
    19    26    25    1
    20    26    27    2
    21    25    24    1
    22    18    27    1
    23    18    19    1
    24    27    21    1
    25    24    22    2
    26    19    20    1
    27    21    22    1
    28    21    20    2
    29    22    23    1
