@<TRIPOS>MOLECULE
2ztj_AKG_A_1.pdb
 10 9 0 0 0
SMALL
GASTEIGER

@<TRIPOS>ATOM
      1  C1        52.5920  -14.1580   22.5870 C.2   383  AKG383      0.4219
      2  O1        53.2810  -13.6510   23.4950 O.co2 383  AKG383     -0.2373
      3  O2        51.8740  -15.1610   22.7520 O.co2 383  AKG383     -0.2373
      4  C2        52.6800  -13.5360   21.2410 C.2   383  AKG383      0.2526
      5  O5        53.1850  -12.4080   21.1430 O.2   383  AKG383     -0.2843
      6  C3        52.3540  -14.3920   20.0480 C.3   383  AKG383      0.0881
      7  C4        53.6500  -15.1680   19.7830 C.3   383  AKG383      0.1224
      8  C5        53.4970  -16.2060   18.6930 C.2   383  AKG383      0.3653
      9  O3        52.6750  -16.0500   17.7490 O.co2 383  AKG383     -0.2456
     10  O4        54.2110  -17.2240   18.7820 O.co2 383  AKG383     -0.2456
@<TRIPOS>BOND
     1     9     8   ar
     2     8    10   ar
     3     8     7    1
     4     7     6    1
     5     6     4    1
     6     5     4    2
     7     4     1    1
     8     1     3   ar
     9     1     2   ar
