@<TRIPOS>MOLECULE
2ztk_HCA_A_1.pdb
 14 13 0 0 0
SMALL
GASTEIGER

@<TRIPOS>ATOM
      1  C1       -35.4310   37.6590  -21.8470 C.2   383  HCA383      0.3679
      2  C2       -36.6100   37.6680  -20.9300 C.3   383  HCA383      0.1555
      3  C3       -37.7700   38.6170  -21.1950 C.3   383  HCA383      0.2301
      4  C4       -38.6390   38.2050  -20.0100 C.3   383  HCA383      0.0540
      5  C5       -39.9010   39.0030  -19.7420 C.3   383  HCA383      0.1172
      6  C6       -40.7110   38.2920  -18.6810 C.2   383  HCA383      0.3650
      7  C7       -38.4890   38.3930  -22.5400 C.2   383  HCA383      0.3922
      8  O1       -34.4540   38.4590  -21.6420 O.co2 383  HCA383     -0.2455
      9  O2       -35.4300   36.7880  -22.7750 O.co2 383  HCA383     -0.2455
     10  O3       -40.1970   37.5910  -17.7570 O.co2 383  HCA383     -0.2457
     11  O4       -41.9520   38.4030  -18.7210 O.co2 383  HCA383     -0.2457
     12  O5       -38.4970   39.2760  -23.4340 O.co2 383  HCA383     -0.2429
     13  O6       -39.0880   37.3290  -22.7670 O.co2 383  HCA383     -0.2429
     14  O7       -37.3630   40.0090  -21.1560 O.3   383  HCA383     -0.2135
@<TRIPOS>BOND
     1    12     7   ar
     2     9     1   ar
     3    13     7   ar
     4     7     3    1
     5     1     8   ar
     6     1     2    1
     7     3    14    1
     8     3     2    1
     9     3     4    1
    10     4     5    1
    11     5     6    1
    12    11     6   ar
    13     6    10   ar
