@<TRIPOS>MOLECULE
2ztl_NAD_A_1.pdb
 44 48 0 0 0
SMALL
GASTEIGER

@<TRIPOS>ATOM
      1  PA        -3.5990   17.1930   27.6810 P.3   300  NAD300      0.2189
      2  O1A       -2.3080   16.5010   27.8410 O.3   300  NAD300     -0.4371
      3  O2A       -3.4830   18.3820   26.7970 O.2   300  NAD300     -0.5170
      4  O5B       -4.2910   17.4300   29.0810 O.3   300  NAD300     -0.3112
      5  C5B       -4.1540   16.4040   30.0600 C.3   300  NAD300      0.1813
      6  C4B       -4.5910   16.9670   31.4110 C.3   300  NAD300      0.1821
      7  O4B       -4.4930   15.9530   32.3990 O.3   300  NAD300     -0.3135
      8  C3B       -3.6480   18.0930   31.8430 C.3   300  NAD300      0.2184
      9  O3B       -4.3920   19.0150   32.6400 O.3   300  NAD300     -0.2174
     10  C2B       -2.6140   17.3250   32.6810 C.3   300  NAD300      0.2570
     11  O2B       -1.8350   18.1550   33.5500 O.3   300  NAD300     -0.2130
     12  C1B       -3.5510   16.3930   33.3940 C.3   300  NAD300      0.3186
     13  N9A       -2.8480   15.2930   34.0540 N.pl3 300  NAD300     -0.1439
     14  C8A       -1.9030   14.4330   33.4980 C.3   300  NAD300      0.3377
     15  N7A       -1.5250   13.5670   34.4750 N.2   300  NAD300     -0.2095
     16  C5A       -2.2090   13.8380   35.6080 C.2   300  NAD300      0.2526
     17  C6A       -2.1820   13.3060   36.8920 C.2   300  NAD300      0.4393
     18  N6A       -1.3420   12.2980   37.2520 N.pl3 300  NAD300      0.2180
     19  N1A       -3.0230   13.8540   37.8420 N.2   300  NAD300      0.0021
     20  C2A       -3.8580   14.9230   37.5930 C.3   300  NAD300      0.5254
     21  N3A       -3.8550   15.4700   36.3200 N.2   300  NAD300     -0.0055
     22  C4A       -3.0360   14.9470   35.3550 C.2   300  NAD300      0.3518
     23  O3        -4.5350   16.0280   27.0390 O.3   300  NAD300     -0.2703
     24  PN        -5.9970   16.1590   26.3750 P.3   300  NAD300      0.2189
     25  O1N       -5.7460   15.8260   24.9560 O.2   300  NAD300     -0.5170
     26  O2N       -6.7340   17.3790   26.8280 O.3   300  NAD300     -0.4371
     27  O5D       -6.7600   14.9060   27.0010 O.3   300  NAD300     -0.3112
     28  C5D       -7.6120   14.8920   28.1200 C.3   300  NAD300      0.1813
     29  C4D       -8.4520   13.6030   28.0500 C.3   300  NAD300      0.1799
     30  O4D       -9.0740   13.5300   26.7620 O.3   300  NAD300     -0.3327
     31  C3D       -7.6560   12.2950   28.2470 C.3   300  NAD300      0.2158
     32  O3D       -8.3560   11.3560   29.0770 O.3   300  NAD300     -0.2175
     33  C2D       -7.4970   11.7990   26.8230 C.3   300  NAD300      0.2309
     34  O2D       -7.2010   10.4050   26.8040 O.3   300  NAD300     -0.2158
     35  C1D       -8.8560   12.1970   26.2510 C.3   300  NAD300      0.2263
     36  N1N       -8.9580   12.2780   24.7900 N.pl3 300  NAD300     -0.2787
     37  C2N       -8.0820   13.0590   24.0850 C.3   300  NAD300      0.1244
     38  C3N       -8.2140   13.1750   22.7210 C.2   300  NAD300      0.0544
     39  C7N       -7.3200   14.0530   21.9110 C.2   300  NAD300      0.2818
     40  O7N       -7.3700   13.8320   20.5360 O.2   300  NAD300     -0.2670
     41  N7N       -6.5240   14.9860   22.4380 N.am  300  NAD300     -0.0839
     42  C4N       -9.2680   12.5080   22.0790 C.2   300  NAD300      0.0033
     43  C5N      -10.1620   11.7360   22.8170 C.2   300  NAD300      0.0157
     44  C6N      -10.0180   11.6510   24.1970 C.2   300  NAD300      0.0633
@<TRIPOS>BOND
     1    40    39    2
     2    39    41   am
     3    39    38    1
     4    42    38    2
     5    42    43    1
     6    38    37    1
     7    43    44    2
     8    37    36    1
     9    44    36    1
    10    36    35    1
    11    25    24    2
    12    35    30    1
    13    35    33    1
    14    24    26    1
    15    24    27    1
    16    24    23    1
    17    30    29    1
    18     3     1    2
    19    34    33    1
    20    33    31    1
    21    27    28    1
    22    23     1    1
    23     1     2    1
    24     1     4    1
    25    29    28    1
    26    29    31    1
    27    31    32    1
    28     4     5    1
    29     5     6    1
    30     6     8    1
    31     6     7    1
    32     8     9    1
    33     8    10    1
    34     7    12    1
    35    10    12    1
    36    10    11    1
    37    12    13    1
    38    14    13    1
    39    14    15    1
    40    13    22    1
    41    15    16    2
    42    22    16    1
    43    22    21    2
    44    16    17    1
    45    21    20    1
    46    17    18    1
    47    17    19    2
    48    20    19    1
