@<TRIPOS>MOLECULE
2ztm_NAD_A_1.pdb
 44 48 0 0 0
SMALL
GASTEIGER

@<TRIPOS>ATOM
      1  PA        -3.5550  -17.6010  -27.2970 P.3   300  NAD300      0.2189
      2  O1A       -2.2170  -17.0210  -27.5930 O.2   300  NAD300     -0.5170
      3  O2A       -3.6390  -18.9020  -26.5590 O.3   300  NAD300     -0.4371
      4  O5B       -4.3430  -17.6840  -28.6770 O.3   300  NAD300     -0.3112
      5  C5B       -4.2090  -16.6370  -29.6930 C.3   300  NAD300      0.1813
      6  C4B       -4.4320  -17.2540  -31.0550 C.3   300  NAD300      0.1821
      7  O4B       -4.2300  -16.1180  -31.9820 O.3   300  NAD300     -0.3135
      8  C3B       -3.3610  -18.3210  -31.4610 C.3   300  NAD300      0.2184
      9  O3B       -4.0590  -19.5100  -31.9400 O.3   300  NAD300     -0.2174
     10  C2B       -2.5450  -17.6800  -32.5480 C.3   300  NAD300      0.2570
     11  O2B       -1.8990  -18.4840  -33.4710 O.3   300  NAD300     -0.2130
     12  C1B       -3.5490  -16.6520  -33.1090 C.3   300  NAD300      0.3186
     13  N9A       -2.8140  -15.5650  -33.7330 N.pl3 300  NAD300     -0.1439
     14  C8A       -1.8470  -14.6730  -33.2690 C.3   300  NAD300      0.3377
     15  N7A       -1.4260  -13.8260  -34.1940 N.2   300  NAD300     -0.2095
     16  C5A       -2.0910  -14.1110  -35.3220 C.2   300  NAD300      0.2526
     17  C6A       -2.0650  -13.5380  -36.6750 C.2   300  NAD300      0.4393
     18  N6A       -1.2780  -12.5360  -37.0030 N.pl3 300  NAD300      0.2180
     19  N1A       -2.9380  -14.1420  -37.5820 N.2   300  NAD300      0.0021
     20  C2A       -3.7660  -15.1690  -37.3070 C.3   300  NAD300      0.5254
     21  N3A       -3.8260  -15.7520  -36.0360 N.2   300  NAD300     -0.0055
     22  C4A       -2.9710  -15.1920  -35.0720 C.2   300  NAD300      0.3518
     23  O3        -4.4220  -16.5600  -26.4570 O.3   300  NAD300     -0.2703
     24  PN        -5.9960  -16.5110  -25.9870 P.3   300  NAD300      0.2189
     25  O1N       -6.0220  -16.0510  -24.6000 O.3   300  NAD300     -0.4371
     26  O2N       -6.6630  -17.7910  -26.3840 O.2   300  NAD300     -0.5170
     27  O5D       -6.4880  -15.2760  -26.9060 O.3   300  NAD300     -0.3112
     28  C5D       -7.7420  -15.3590  -27.6530 C.3   300  NAD300      0.1813
     29  C4D       -8.4770  -14.0730  -27.5750 C.3   300  NAD300      0.1799
     30  O4D       -8.9900  -13.8870  -26.1820 O.3   300  NAD300     -0.3327
     31  C3D       -7.6040  -12.7860  -27.8520 C.3   300  NAD300      0.2158
     32  O3D       -8.3070  -11.8560  -28.7040 O.3   300  NAD300     -0.2175
     33  C2D       -7.3810  -12.2010  -26.4520 C.3   300  NAD300      0.2309
     34  O2D       -7.0320  -10.8490  -26.4660 O.3   300  NAD300     -0.2158
     35  C1D       -8.7610  -12.5260  -25.7760 C.3   300  NAD300      0.2261
     36  N1N       -8.7720  -12.4210  -24.2710 N.pl3 300  NAD300     -0.2831
     37  C2N       -7.7990  -13.1860  -23.5110 C.2   300  NAD300      0.0633
     38  C3N       -8.0620  -13.6150  -22.2690 C.2   300  NAD300      0.0490
     39  C7N       -7.0490  -14.4090  -21.4560 C.2   300  NAD300      0.2814
     40  O7N       -6.9010  -14.1080  -20.2560 O.2   300  NAD300     -0.2670
     41  N7N       -6.3550  -15.4030  -22.0220 N.am  300  NAD300     -0.0839
     42  C4N       -9.4050  -13.3220  -21.6040 C.3   300  NAD300      0.0341
     43  C5N      -10.0840  -12.1100  -22.2140 C.3   300  NAD300      0.0264
     44  C6N       -9.9190  -11.8920  -23.6080 C.3   300  NAD300      0.0934
@<TRIPOS>BOND
     1    19    20    1
     2    19    17    2
     3    20    21    1
     4    18    17    1
     5    17    16    1
     6    21    22    2
     7    16    22    1
     8    16    15    2
     9    22    13    1
    10    15    14    1
    11    13    14    1
    12    13    12    1
    13    11    10    1
    14    12    10    1
    15    12     7    1
    16    10     8    1
    17     7     6    1
    18     9     8    1
    19     8     6    1
    20     6     5    1
    21     5     4    1
    22    32    31    1
    23     4     1    1
    24    31    29    1
    25    31    33    1
    26    28    29    1
    27    28    27    1
    28     2     1    2
    29    29    30    1
    30     1     3    1
    31     1    23    1
    32    27    24    1
    33    34    33    1
    34    23    24    1
    35    33    35    1
    36    26    24    2
    37    30    35    1
    38    24    25    1
    39    35    36    1
    40    36    44    1
    41    36    37    1
    42    44    43    1
    43    37    38    2
    44    38    42    1
    45    38    39    1
    46    43    42    1
    47    41    39   am
    48    39    40    2
