@<TRIPOS>MOLECULE
2zts_ADP_A_1.pdb
 27 29 0 0 0
SMALL
GASTEIGER

@<TRIPOS>ATOM
      1  PB       152.9770   -3.0930   15.5100 P.3   1903  ADP1903     0.5373
      2  O1B      151.8010   -3.5490   16.3260 O.3   1903  ADP1903    -0.1143
      3  O2B      154.0980   -2.6070   16.4280 O.3   1903  ADP1903    -0.1143
      4  O3B      152.5250   -1.8950   14.7240 O.2   1903  ADP1903    -0.2221
      5  PA       154.0990   -4.2290   13.1530 P.3   1903  ADP1903     0.2231
      6  O1A      152.9250   -4.3120   12.2130 O.2   1903  ADP1903    -0.5169
      7  O2A      154.9110   -2.9590   13.1510 O.3   1903  ADP1903    -0.4370
      8  O3A      153.5610   -4.3510   14.7110 O.3   1903  ADP1903    -0.2261
      9  O5'      154.8340   -5.6220   12.9610 O.3   1903  ADP1903    -0.3111
     10  C5'      156.1950   -5.6760   12.6960 C.3   1903  ADP1903     0.1813
     11  C4'      156.6010   -7.1140   12.8820 C.3   1903  ADP1903     0.1821
     12  O4'      156.2740   -7.8920   11.7510 O.3   1903  ADP1903    -0.3135
     13  C3'      158.0890   -7.2340   13.1430 C.3   1903  ADP1903     0.2184
     14  O3'      158.2770   -7.1250   14.5100 O.3   1903  ADP1903    -0.2174
     15  C2'      158.3610   -8.6010   12.6130 C.3   1903  ADP1903     0.2570
     16  O2'      158.1580   -9.6010   13.5500 O.3   1903  ADP1903    -0.2130
     17  C1'      157.3300   -8.7940   11.5140 C.3   1903  ADP1903     0.3186
     18  N9       157.9480   -8.4800   10.2240 N.pl3 1903  ADP1903    -0.1439
     19  C8       158.3140   -7.2320    9.7570 C.3   1903  ADP1903     0.3377
     20  N7       158.8320   -7.3820    8.5110 N.2   1903  ADP1903    -0.2095
     21  C5       158.8100   -8.6980    8.2130 C.2   1903  ADP1903     0.2526
     22  C6       159.2260   -9.3610    7.0710 C.2   1903  ADP1903     0.4393
     23  N6       159.4570   -8.6270    5.9840 N.pl3 1903  ADP1903     0.2180
     24  N1       159.0420  -10.7250    7.0260 N.2   1903  ADP1903     0.0021
     25  C2       158.4720  -11.4080    8.1160 C.3   1903  ADP1903     0.5254
     26  N3       158.0650  -10.7310    9.2710 N.2   1903  ADP1903    -0.0055
     27  C4       158.2430   -9.4000    9.2830 C.2   1903  ADP1903     0.3518
@<TRIPOS>BOND
     1    23    22    1
     2    24    22    2
     3    24    25    1
     4    22    21    1
     5    25    26    1
     6    21    20    2
     7    21    27    1
     8    20    19    1
     9    26    27    2
    10    27    18    1
    11    19    18    1
    12    18    17    1
    13    17    12    1
    14    17    15    1
    15    12    11    1
    16     6     5    2
    17    15    13    1
    18    15    16    1
    19    10    11    1
    20    10     9    1
    21    11    13    1
    22     9     5    1
    23    13    14    1
    24     7     5    1
    25     5     8    1
    26     8     1    1
    27     4     1    2
    28     1     2    1
    29     1     3    1
