@<TRIPOS>MOLECULE
2ztu_NAD_A_1.pdb
 44 48 0 0 0
SMALL
GASTEIGER

@<TRIPOS>ATOM
      1  PA        -3.5350  -17.5950  -27.6410 P.3   300  NAD300      0.2189
      2  O1A       -2.2190  -16.9950  -27.9840 O.2   300  NAD300     -0.5170
      3  O2A       -3.5790  -18.9870  -27.0880 O.3   300  NAD300     -0.4371
      4  O5B       -4.4570  -17.4810  -28.9420 O.3   300  NAD300     -0.3112
      5  C5B       -4.2620  -16.4150  -29.9320 C.3   300  NAD300      0.1813
      6  C4B       -4.4330  -17.0130  -31.3120 C.3   300  NAD300      0.1821
      7  O4B       -4.1820  -15.8740  -32.2320 O.3   300  NAD300     -0.3135
      8  C3B       -3.3660  -18.0970  -31.7080 C.3   300  NAD300      0.2184
      9  O3B       -4.0580  -19.2990  -32.1940 O.3   300  NAD300     -0.2174
     10  C2B       -2.5280  -17.4580  -32.7920 C.3   300  NAD300      0.2570
     11  O2B       -1.9190  -18.2780  -33.7200 O.3   300  NAD300     -0.2130
     12  C1B       -3.5290  -16.4370  -33.3590 C.3   300  NAD300      0.3186
     13  N9A       -2.8110  -15.3680  -34.0200 N.pl3 300  NAD300     -0.1439
     14  C8A       -1.8710  -14.4350  -33.5800 C.3   300  NAD300      0.3377
     15  N7A       -1.4540  -13.6190  -34.5300 N.2   300  NAD300     -0.2095
     16  C5A       -2.0920  -13.9630  -35.6560 C.2   300  NAD300      0.2526
     17  C6A       -2.0570  -13.4410  -37.0330 C.2   300  NAD300      0.4393
     18  N6A       -1.2870  -12.4290  -37.3880 N.pl3 300  NAD300      0.2180
     19  N1A       -2.8970  -14.0990  -37.9260 N.2   300  NAD300      0.0021
     20  C2A       -3.7030  -15.1340  -37.6270 C.3   300  NAD300      0.5254
     21  N3A       -3.7770  -15.6710  -36.3340 N.2   300  NAD300     -0.0055
     22  C4A       -2.9530  -15.0550  -35.3760 C.2   300  NAD300      0.3518
     23  O3        -4.2860  -16.6750  -26.5720 O.3   300  NAD300     -0.2703
     24  PN        -5.8530  -16.5370  -26.0870 P.3   300  NAD300      0.2189
     25  O1N       -5.8700  -15.9260  -24.7470 O.3   300  NAD300     -0.4371
     26  O2N       -6.5340  -17.8400  -26.3410 O.2   300  NAD300     -0.5170
     27  O5D       -6.3350  -15.3890  -27.1390 O.3   300  NAD300     -0.3112
     28  C5D       -7.7220  -15.3570  -27.6200 C.3   300  NAD300      0.1813
     29  C4D       -8.3200  -13.9980  -27.4750 C.3   300  NAD300      0.1799
     30  O4D       -8.7050  -13.7720  -26.0510 O.3   300  NAD300     -0.3327
     31  C3D       -7.3570  -12.7910  -27.8210 C.3   300  NAD300      0.2158
     32  O3D       -8.0230  -11.8270  -28.6700 O.3   300  NAD300     -0.2175
     33  C2D       -7.0260  -12.1820  -26.4450 C.3   300  NAD300      0.2309
     34  O2D       -6.6140  -10.8450  -26.5180 O.3   300  NAD300     -0.2158
     35  C1D       -8.3740  -12.4180  -25.6770 C.3   300  NAD300      0.2261
     36  N1N       -8.2690  -12.3060  -24.1760 N.pl3 300  NAD300     -0.2831
     37  C2N       -7.4780  -13.3010  -23.4740 C.2   300  NAD300      0.0633
     38  C3N       -7.4070  -13.3190  -22.1320 C.2   300  NAD300      0.0490
     39  C7N       -6.5810  -14.3640  -21.3910 C.2   300  NAD300      0.2814
     40  O7N       -6.0490  -15.2850  -22.0540 O.2   300  NAD300     -0.2670
     41  N7N       -6.4430  -14.2760  -20.0580 N.am  300  NAD300     -0.0839
     42  C4N       -8.1640  -12.2790  -21.2950 C.3   300  NAD300      0.0341
     43  C5N       -9.3890  -11.7850  -22.0440 C.3   300  NAD300      0.0264
     44  C6N       -9.2380  -11.5500  -23.4410 C.3   300  NAD300      0.0934
@<TRIPOS>BOND
     1    19    20    1
     2    19    17    2
     3    20    21    1
     4    18    17    1
     5    17    16    1
     6    21    22    2
     7    16    22    1
     8    16    15    2
     9    22    13    1
    10    15    14    1
    11    13    14    1
    12    13    12    1
    13    11    10    1
    14    12    10    1
    15    12     7    1
    16    10     8    1
    17     7     6    1
    18     9     8    1
    19     8     6    1
    20     6     5    1
    21     5     4    1
    22     4     1    1
    23    32    31    1
    24     2     1    2
    25    31    29    1
    26    31    33    1
    27     1     3    1
    28     1    23    1
    29    28    29    1
    30    28    27    1
    31    29    30    1
    32    27    24    1
    33    23    24    1
    34    34    33    1
    35    33    35    1
    36    26    24    2
    37    24    25    1
    38    30    35    1
    39    35    36    1
    40    36    37    1
    41    36    44    1
    42    37    38    2
    43    44    43    1
    44    38    39    1
    45    38    42    1
    46    40    39    2
    47    43    42    1
    48    39    41   am
