@<TRIPOS>MOLECULE
2ztv_NAD_A_1.pdb
 44 48 0 0 0
SMALL
GASTEIGER

@<TRIPOS>ATOM
      1  PA        -3.3100  -17.8140  -26.8660 P.3   300  NAD300      0.2189
      2  O1A       -1.9300  -17.2530  -26.9770 O.2   300  NAD300     -0.5170
      3  O2A       -3.3930  -19.1590  -26.2350 O.3   300  NAD300     -0.4371
      4  O5B       -4.0800  -17.8640  -28.2720 O.3   300  NAD300     -0.3112
      5  C5B       -3.8700  -16.8830  -29.2910 C.3   300  NAD300      0.1813
      6  C4B       -4.3140  -17.5230  -30.6170 C.3   300  NAD300      0.1821
      7  O4B       -4.2130  -16.5150  -31.6160 O.3   300  NAD300     -0.3135
      8  C3B       -3.3480  -18.6270  -31.0540 C.3   300  NAD300      0.2184
      9  O3B       -4.0030  -19.5850  -31.8940 O.3   300  NAD300     -0.2174
     10  C2B       -2.3360  -17.8690  -31.8960 C.3   300  NAD300      0.2570
     11  O2B       -1.5780  -18.6960  -32.7790 O.3   300  NAD300     -0.2130
     12  C1B       -3.2820  -16.9360  -32.6140 C.3   300  NAD300      0.3186
     13  N9A       -2.5760  -15.8140  -33.2600 N.pl3 300  NAD300     -0.1439
     14  C8A       -1.6490  -14.9340  -32.7160 C.3   300  NAD300      0.3377
     15  N7A       -1.2820  -14.0430  -33.6930 N.2   300  NAD300     -0.2095
     16  C5A       -1.9450  -14.3690  -34.8460 C.2   300  NAD300      0.2526
     17  C6A       -1.9590  -13.8560  -36.1370 C.2   300  NAD300      0.4393
     18  N6A       -1.1840  -12.8310  -36.5000 N.pl3 300  NAD300      0.2180
     19  N1A       -2.7860  -14.4250  -37.0720 N.2   300  NAD300      0.0021
     20  C2A       -3.6060  -15.4940  -36.7920 C.3   300  NAD300      0.5254
     21  N3A       -3.5640  -16.0360  -35.5430 N.2   300  NAD300     -0.0055
     22  C4A       -2.7750  -15.4750  -34.5790 C.2   300  NAD300      0.3518
     23  O3        -4.1160  -16.6550  -26.0430 O.3   300  NAD300     -0.2703
     24  PN        -5.6270  -16.6000  -25.4620 P.3   300  NAD300      0.2189
     25  O1N       -5.3390  -16.2140  -24.0490 O.3   300  NAD300     -0.4371
     26  O2N       -6.4360  -17.8110  -25.7470 O.2   300  NAD300     -0.5170
     27  O5D       -6.3200  -15.3730  -26.1980 O.3   300  NAD300     -0.3112
     28  C5D       -7.3530  -15.5170  -27.1370 C.3   300  NAD300      0.1813
     29  C4D       -8.1170  -14.1970  -27.1070 C.3   300  NAD300      0.1799
     30  O4D       -8.7090  -14.0730  -25.8350 O.3   300  NAD300     -0.3327
     31  C3D       -7.2600  -12.9410  -27.3260 C.3   300  NAD300      0.2158
     32  O3D       -8.0190  -12.0490  -28.1240 O.3   300  NAD300     -0.2175
     33  C2D       -7.1310  -12.3800  -25.9200 C.3   300  NAD300      0.2309
     34  O2D       -6.9910  -10.9850  -25.9820 O.3   300  NAD300     -0.2158
     35  C1D       -8.4810  -12.7750  -25.3300 C.3   300  NAD300      0.2263
     36  N1N       -8.5090  -12.7580  -23.8410 N.pl3 300  NAD300     -0.2787
     37  C2N       -7.6150  -13.5460  -23.1550 C.3   300  NAD300      0.1244
     38  C3N       -7.5960  -13.5440  -21.7700 C.2   300  NAD300      0.0544
     39  C7N       -6.8130  -14.5270  -20.9860 C.2   300  NAD300      0.2818
     40  O7N       -6.8750  -14.3410  -19.6080 O.2   300  NAD300     -0.2670
     41  N7N       -6.0650  -15.5230  -21.4820 N.am  300  NAD300     -0.0839
     42  C4N       -8.5340  -12.7390  -21.0830 C.2   300  NAD300      0.0033
     43  C5N       -9.4340  -11.9560  -21.7910 C.2   300  NAD300      0.0157
     44  C6N       -9.4370  -11.9760  -23.2010 C.2   300  NAD300      0.0633
@<TRIPOS>BOND
     1    19    20    1
     2    19    17    2
     3    20    21    1
     4    18    17    1
     5    17    16    1
     6    21    22    2
     7    16    22    1
     8    16    15    2
     9    22    13    1
    10    15    14    1
    11    13    14    1
    12    13    12    1
    13    11    10    1
    14    12    10    1
    15    12     7    1
    16    10     8    1
    17     9     8    1
    18     7     6    1
    19     8     6    1
    20     6     5    1
    21     5     4    1
    22     4     1    1
    23    32    31    1
    24    31    29    1
    25    31    33    1
    26    28    29    1
    27    28    27    1
    28    29    30    1
    29     2     1    2
    30     1     3    1
    31     1    23    1
    32    27    24    1
    33    23    24    1
    34    34    33    1
    35    33    35    1
    36    30    35    1
    37    26    24    2
    38    24    25    1
    39    35    36    1
    40    36    44    1
    41    36    37    1
    42    44    43    2
    43    37    38    1
    44    43    42    1
    45    38    42    2
    46    38    39    1
    47    41    39   am
    48    39    40    2
