@<TRIPOS>MOLECULE
2ztw_NAD_A_1.pdb
 27 29 0 0 0
SMALL
GASTEIGER

@<TRIPOS>ATOM
      1  PA       -23.3890   27.7000   28.6500 P.3   400  NAD400      0.2231
      2  O1A      -23.0390   26.7170   27.5870 O.2   400  NAD400     -0.5169
      3  O2A      -23.3890   29.1280   28.1940 O.3   400  NAD400     -0.4370
      4  O5B      -24.7860   27.3290   29.3680 O.3   400  NAD400     -0.3111
      5  C5B      -25.8890   28.2440   29.4420 C.3   400  NAD400      0.1813
      6  C4B      -27.1780   27.5590   29.9120 C.3   400  NAD400      0.1821
      7  O4B      -27.7010   26.7140   28.8830 O.3   400  NAD400     -0.3135
      8  C3B      -26.9560   26.6480   31.1020 C.3   400  NAD400      0.2184
      9  O3B      -28.1240   26.6900   31.9260 O.3   400  NAD400     -0.2174
     10  C2B      -26.8080   25.2660   30.4940 C.3   400  NAD400      0.2570
     11  O2B      -27.2670   24.2550   31.3830 O.3   400  NAD400     -0.2130
     12  C1B      -27.6330   25.3250   29.2230 C.3   400  NAD400      0.3186
     13  N9A      -26.9610   24.5840   28.1310 N.pl3 400  NAD400     -0.1439
     14  C8A      -25.8020   24.9230   27.5660 C.3   400  NAD400      0.3377
     15  N7A      -25.4900   24.0240   26.6030 N.2   400  NAD400     -0.2095
     16  C5A      -26.4580   23.1010   26.5230 C.2   400  NAD400      0.2526
     17  C6A      -26.7370   21.8830   25.7290 C.2   400  NAD400      0.4393
     18  N6A      -25.9020   21.4390   24.7710 N.pl3 400  NAD400      0.2180
     19  N1A      -27.8550   21.1890   25.9770 N.2   400  NAD400      0.0021
     20  C2A      -28.7200   21.5820   26.9210 C.3   400  NAD400      0.5254
     21  N3A      -28.5150   22.6830   27.6710 N.2   400  NAD400     -0.0055
     22  C4A      -27.4220   23.4750   27.5330 C.2   400  NAD400      0.3518
     23  O3       -22.3580   27.5180   29.8580 O.3   400  NAD400     -0.2261
     24  PN       -22.0990   28.7200   30.9180 P.3   400  NAD400      0.5373
     25  O1N      -20.7210   28.3570   31.4570 O.3   400  NAD400     -0.1143
     26  O2N      -22.1150   30.0550   30.1870 O.2   400  NAD400     -0.2221
     27  O5D      -23.2530   28.5390   31.8950 O.3   400  NAD400     -0.1143
@<TRIPOS>BOND
     1    18    17    1
     2    17    19    2
     3    17    16    1
     4    19    20    1
     5    16    15    2
     6    16    22    1
     7    15    14    1
     8    20    21    1
     9    22    21    2
    10    22    13    1
    11    14    13    1
    12     2     1    2
    13    13    12    1
    14     3     1    1
    15     1     4    1
    16     1    23    1
    17     7    12    1
    18     7     6    1
    19    12    10    1
    20     4     5    1
    21     5     6    1
    22    23    24    1
    23     6     8    1
    24    26    24    2
    25    10     8    1
    26    10    11    1
    27    24    25    1
    28    24    27    1
    29     8     9    1
