@<TRIPOS>MOLECULE
2zu3_ZU3_A_1.pdb
 44 45 0 0 0
SMALL
GASTEIGER

@<TRIPOS>ATOM
      1  C17       17.5530   11.9850   29.1580 C.2   501  ZU3501      0.4219
      2  O19       17.4470   12.3090   27.9600 O.2   501  ZU3501     -0.2245
      3  O15       18.2500   12.8500   30.0280 O.3   501  ZU3501     -0.4285
      4  C13       17.4060   13.3320   31.1210 C.3   501  ZU3501      0.2368
      5  C4        16.2720   14.1920   30.5900 C.ar  501  ZU3501      0.0213
      6  C6        14.9040   13.9680   31.1110 C.ar  501  ZU3501     -0.0007
      7  C8        13.8770   14.7230   30.6450 C.ar  501  ZU3501     -0.0002
      8  C10       14.1090   15.7790   29.6070 C.ar  501  ZU3501     -0.0000
      9  C1        15.3670   15.9910   29.1240 C.ar  501  ZU3501     -0.0002
     10  C2        16.4970   15.1660   29.6360 C.ar  501  ZU3501     -0.0007
     11  N21       16.9140   10.8240   29.7430 N.am  501  ZU3501     -0.1592
     12  C23       16.0280    9.8390   29.1250 C.3   501  ZU3501      0.1976
     13  C25       14.6310    9.9620   29.7650 C.3   501  ZU3501      0.1462
     14  N27       14.6700    9.9730   31.2690 N.am  501  ZU3501     -0.2031
     15  C29       15.3200    8.9230   32.0440 C.2   501  ZU3501      0.2405
     16  C31       16.0790    9.9330   27.5880 C.2   501  ZU3501      0.2635
     17  O35       16.8520    9.1690   27.0510 O.2   501  ZU3501     -0.2714
     18  O43       15.8690    7.9850   31.4520 O.2   501  ZU3501     -0.2734
     19  C45       15.3310    8.9450   33.5810 C.3   501  ZU3501      0.0705
     20  C76       13.9440    8.5900   34.1660 C.3   501  ZU3501      0.0091
     21  C78       15.7860   10.3540   34.0710 C.3   501  ZU3501      0.0091
     22  C80       16.3840    7.9450   34.1270 C.3   501  ZU3501      0.0091
     23  N33       15.3270   10.9270   26.7940 N.am  501  ZU3501     -0.1963
     24  C37       15.4400   10.3880   25.3150 C.3   501  ZU3501      0.1728
     25  C39       16.7670   10.7830   24.6610 C.2   501  ZU3501      0.2612
     26  O47       17.6720   11.5990   24.8180 O.2   501  ZU3501     -0.2715
     27  C41       14.3130   11.0970   24.6830 C.3   501  ZU3501      0.0311
     28  C51       12.7270   11.0060   24.8770 C.3   501  ZU3501      0.0022
     29  C53       12.0160   11.7870   23.7790 C.3   501  ZU3501      0.0001
     30  C55       11.8730    9.7860   25.2290 C.3   501  ZU3501      0.0001
     31  N49       17.0400    9.6220   23.8300 N.am  501  ZU3501     -0.2057
     32  C57       18.3690    9.4680   23.1710 C.3   501  ZU3501      0.0969
     33  C59       19.1890    8.3520   23.8930 C.3   501  ZU3501      0.0383
     34  C61       19.6840    8.6650   25.3270 C.3   501  ZU3501      0.1100
     35  C63       18.1580    9.1470   21.6680 C.3   501  ZU3501      0.0294
     36  C65       20.6410    7.6710   25.8190 C.1   501  ZU3501      0.1250
     37  O66       20.7120    6.4940   25.4160 O.2   501  ZU3501     -0.2271
     38  N69       21.4790    8.2360   26.8230 N.2   501  ZU3501     -0.2063
     39  C71       21.0790    9.6570   27.0130 C.3   501  ZU3501      0.1387
     40  C73       20.4960    9.9640   25.6050 C.3   501  ZU3501      0.0438
     41  C82       17.3770   10.2940   20.9780 C.3   501  ZU3501      0.0663
     42  C84       18.3070   11.3840   20.4470 C.2   501  ZU3501      0.1511
     43  C86       17.7730   12.7770   20.1780 C.3   501  ZU3501      0.0722
     44  O88       19.5060   11.1380   20.2270 O.2   501  ZU3501     -0.2960
@<TRIPOS>BOND
     1    43    42    1
     2    44    42    2
     3    42    41    1
     4    41    35    1
     5    35    32    1
     6    32    31    1
     7    32    33    1
     8    29    28    1
     9    31    25   am
    10    33    34    1
    11    25    26    2
    12    25    24    1
    13    27    28    1
    14    27    24    1
    15    28    30    1
    16    24    23    1
    17    34    40    1
    18    34    36    1
    19    37    36    2
    20    40    39    1
    21    36    38    2
    22    23    16   am
    23    38    39    1
    24    17    16    2
    25    16    12    1
    26     2     1    2
    27     9     8   ar
    28     9    10   ar
    29    12    11    1
    30    12    13    1
    31     1    11   am
    32     1     3    1
    33     8     7   ar
    34    10     5   ar
    35    13    14    1
    36     3     4    1
    37     5     6   ar
    38     5     4    1
    39     7     6   ar
    40    14    15   am
    41    18    15    2
    42    15    19    1
    43    19    21    1
    44    19    22    1
    45    19    20    1
