@<TRIPOS>MOLECULE
2zu8_GDD_A_1.pdb
 39 42 0 0 0
SMALL
GASTEIGER

@<TRIPOS>ATOM
      1  N2       -19.0310   -4.3920  -37.4810 N.pl3 395  GDD395     -0.0226
      2  C2       -18.5210   -5.5720  -37.1610 C.1   395  GDD395      0.2531
      3  N1       -18.6520   -6.6590  -38.0230 N.2   395  GDD395     -0.2485
      4  N3       -17.8400   -5.7110  -36.0000 N.2   395  GDD395     -0.3074
      5  C4       -17.2710   -6.8550  -35.6560 C.2   395  GDD395      0.2300
      6  C5       -17.3590   -7.9750  -36.4800 C.2   395  GDD395      0.2182
      7  C6       -18.0610   -7.8880  -37.6790 C.1   395  GDD395      0.2372
      8  O6       -18.1740   -8.8450  -38.4200 O.2   395  GDD395     -0.2069
      9  N7       -16.6680   -8.9500  -35.8960 N.2   395  GDD395     -0.2322
     10  C8       -16.1630   -8.4780  -34.7600 C.3   395  GDD395      0.2246
     11  N9       -16.5220   -7.2080  -34.6020 N.pl3 395  GDD395     -0.2354
     12  C1'      -16.1520   -6.3280  -33.4730 C.3   395  GDD395      0.2293
     13  C2'      -16.2900   -7.0390  -32.1290 C.3   395  GDD395      0.2310
     14  O2'      -17.6650   -6.9810  -31.7430 O.3   395  GDD395     -0.2158
     15  C3'      -15.4220   -6.1430  -31.2450 C.3   395  GDD395      0.2158
     16  O3'      -16.1060   -4.9710  -30.7910 O.3   395  GDD395     -0.2175
     17  C4'      -14.2650   -5.8110  -32.1850 C.3   395  GDD395      0.1799
     18  O4'      -14.7830   -5.8940  -33.5260 O.3   395  GDD395     -0.3326
     19  C5'      -13.1880   -6.8900  -32.0930 C.3   395  GDD395      0.1813
     20  O5'      -13.4560   -7.8120  -31.0460 O.3   395  GDD395     -0.3112
     21  PA       -13.6250   -9.3620  -31.3900 P.3   395  GDD395      0.2189
     22  O1A      -13.9790  -10.1870  -30.2200 O.3   395  GDD395     -0.4371
     23  O2A      -13.9280   -9.7190  -32.7840 O.2   395  GDD395     -0.5170
     24  O3A      -12.0480   -9.6390  -31.4060 O.3   395  GDD395     -0.2703
     25  PB       -11.1110   -9.6060  -30.1090 P.3   395  GDD395      0.2208
     26  O2B      -11.6650   -8.6280  -29.1610 O.3   395  GDD395     -0.4371
     27  O3B      -10.8550  -10.9710  -29.6160 O.2   395  GDD395     -0.5170
     28  O1B       -9.7620   -9.0060  -30.7090 O.3   395  GDD395     -0.2857
     29  C11       -9.7900   -7.6360  -31.1050 C.3   395  GDD395      0.2742
     30  O51       -8.6870   -6.9270  -30.5320 O.3   395  GDD395     -0.3254
     31  C51       -7.4310   -7.4790  -30.9450 C.3   395  GDD395      0.1835
     32  C61       -6.3860   -6.5880  -30.2740 C.3   395  GDD395      0.2142
     33  O6A       -5.0770   -7.0180  -30.6500 O.3   395  GDD395     -0.2176
     34  C21       -9.7680   -7.4900  -32.6240 C.3   395  GDD395      0.2409
     35  O21       -9.8000   -6.0970  -32.9370 O.3   395  GDD395     -0.2149
     36  C31       -8.4660   -8.0840  -33.1580 C.3   395  GDD395      0.2198
     37  O31       -8.3990   -7.8770  -34.5710 O.3   395  GDD395     -0.2174
     38  C41       -7.2900   -7.3930  -32.4670 C.3   395  GDD395      0.2144
     39  O41       -6.0690   -8.0110  -32.8790 O.3   395  GDD395     -0.2176
@<TRIPOS>BOND
     1     8     7    2
     2     3     7    2
     3     3     2    2
     4     7     6    1
     5     1     2    1
     6     2     4    2
     7     6     9    2
     8     6     5    1
     9     4     5    2
    10     9    10    1
    11     5    11    1
    12    10    11    1
    13    11    12    1
    14    37    36    1
    15    18    12    1
    16    18    17    1
    17    12    13    1
    18    36    34    1
    19    36    38    1
    20    35    34    1
    21    39    38    1
    22    23    21    2
    23    34    29    1
    24    38    31    1
    25    17    19    1
    26    17    15    1
    27    13    14    1
    28    13    15    1
    29    19    20    1
    30    24    21    1
    31    24    25    1
    32    21    20    1
    33    21    22    1
    34    15    16    1
    35    29    28    1
    36    29    30    1
    37    31    30    1
    38    31    32    1
    39    28    25    1
    40    33    32    1
    41    25    27    2
    42    25    26    1
