@<TRIPOS>MOLECULE
2zu9_GDP_A_1.pdb
 28 30 0 0 0
SMALL
GASTEIGER

@<TRIPOS>ATOM
      1  PB       -10.4020   -8.7140  -30.9420 P.3   396  GDP396      0.5373
      2  O1B      -10.4350   -7.4230  -30.2240 O.3   396  GDP396     -0.1143
      3  O2B       -9.1150   -9.0740  -31.8430 O.2   396  GDP396     -0.2221
      4  O3B      -10.6860  -10.0670  -30.1140 O.3   396  GDP396     -0.1143
      5  O3A      -11.5910   -8.7270  -32.0280 O.3   396  GDP396     -0.2261
      6  PA       -13.1040   -8.4830  -31.5330 P.3   396  GDP396      0.2231
      7  O1A      -13.4560   -8.8080  -30.1360 O.3   396  GDP396     -0.4370
      8  O2A      -14.0090   -9.0890  -32.7200 O.2   396  GDP396     -0.5169
      9  O5'      -13.2790   -6.8980  -31.7470 O.3   396  GDP396     -0.3111
     10  C5'      -13.7730   -6.3850  -32.9860 C.3   396  GDP396      0.1813
     11  C4'      -14.4530   -5.0290  -32.7840 C.3   396  GDP396      0.1799
     12  O4'      -15.1800   -4.7410  -33.9910 O.3   396  GDP396     -0.3326
     13  C3'      -15.5390   -5.1940  -31.7200 C.3   396  GDP396      0.2158
     14  O3'      -16.1350   -3.9280  -31.4190 O.3   396  GDP396     -0.2175
     15  C2'      -16.5100   -6.0610  -32.5200 C.3   396  GDP396      0.2310
     16  O2'      -17.8190   -5.9740  -31.9520 O.3   396  GDP396     -0.2158
     17  C1'      -16.5020   -5.2890  -33.8390 C.3   396  GDP396      0.2293
     18  N9       -16.8790   -6.1570  -34.9770 N.pl3 396  GDP396     -0.2354
     19  C8       -16.5550   -7.4370  -35.1550 C.3   396  GDP396      0.2246
     20  N7       -17.0610   -7.8660  -36.3090 N.2   396  GDP396     -0.2322
     21  C5       -17.7140   -6.8530  -36.8720 C.2   396  GDP396      0.2182
     22  C6       -18.4160   -6.7100  -38.0620 C.1   396  GDP396      0.2372
     23  O6       -18.5740   -7.6630  -38.8240 O.2   396  GDP396     -0.2069
     24  N1       -18.9790   -5.4660  -38.3660 N.2   396  GDP396     -0.2485
     25  C2       -18.8340   -4.4050  -37.4650 C.1   396  GDP396      0.2531
     26  N2       -19.3860   -3.2260  -37.7350 N.pl3 396  GDP396     -0.0226
     27  N3       -18.1550   -4.5790  -36.3230 N.2   396  GDP396     -0.3074
     28  C4       -17.6000   -5.7610  -36.0200 C.2   396  GDP396      0.2300
@<TRIPOS>BOND
     1    23    22    2
     2    24    22    2
     3    24    25    2
     4    22    21    1
     5    26    25    1
     6    25    27    2
     7    21    20    2
     8    21    28    1
     9    27    28    2
    10    20    19    1
    11    28    18    1
    12    19    18    1
    13    18    17    1
    14    12    17    1
    15    12    11    1
    16    17    15    1
    17    10    11    1
    18    10     9    1
    19    11    13    1
    20     8     6    2
    21    15    16    1
    22    15    13    1
    23     5     6    1
    24     5     1    1
    25     3     1    2
    26     9     6    1
    27    13    14    1
    28     6     7    1
    29     1     2    1
    30     1     4    1
