@<TRIPOS>MOLECULE
2zuh_CAM_A_1.pdb
 11 12 0 0 0
SMALL
GASTEIGER

@<TRIPOS>ATOM
      1  C1        18.7250  -14.8490  -21.2980 C.3   422  CAM422      0.0282
      2  C2        17.3580  -15.0610  -21.8790 C.3   422  CAM422      0.1519
      3  O         16.4710  -14.0350  -22.2170 O.3   422  CAM422     -0.2232
      4  C3        17.1430  -16.5380  -22.0790 C.3   422  CAM422      0.0329
      5  C4        18.5170  -17.0690  -21.6430 C.3   422  CAM422      0.0026
      6  C5        19.5230  -16.6440  -22.7160 C.3   422  CAM422      0.0002
      7  C6        19.6540  -15.1250  -22.4950 C.3   422  CAM422      0.0024
      8  C7        18.8180  -16.1310  -20.4780 C.3   422  CAM422      0.0024
      9  C8        17.7400  -16.3010  -19.4050 C.3   422  CAM422      0.0001
     10  C9        20.2290  -16.3210  -19.9210 C.3   422  CAM422      0.0001
     11  C10       18.9540  -13.5170  -20.5970 C.3   422  CAM422      0.0025
@<TRIPOS>BOND
     1     6     7    1
     2     6     5    1
     3     7     1    1
     4     3     2    1
     5     4     2    1
     6     4     5    1
     7     2     1    1
     8     5     8    1
     9     1    11    1
    10     1     8    1
    11     8    10    1
    12     8     9    1
