@<TRIPOS>MOLECULE
2zuh_HEM_A_1.pdb
 43 50 0 0 0
SMALL
GASTEIGER

@<TRIPOS>ATOM
      1  CHA       18.3790  -20.4840  -23.3230 C.2   417  HEM417      0.0000
      2  CHB       21.7590  -19.9040  -19.8360 C.2   417  HEM417      0.0000
      3  CHC       25.0240  -18.6590  -23.2150 C.2   417  HEM417      0.0000
      4  CHD       21.5570  -18.7410  -26.6010 C.2   417  HEM417      0.0000
      5  C1A       19.0020  -20.4330  -22.0800 C.2   417  HEM417      0.0000
      6  C2A       18.3610  -20.7110  -20.7940 C.2   417  HEM417      0.0000
      7  C3A       19.3030  -20.5570  -19.8440 C.2   417  HEM417      0.0000
      8  C4A       20.5600  -20.1600  -20.4870 C.2   417  HEM417      0.0000
      9  CMA       19.1300  -20.7350  -18.3210 C.3   417  HEM417      0.0000
     10  CAA       16.8920  -21.1610  -20.5890 C.3   417  HEM417      0.0000
     11  CBA       16.0160  -19.9650  -20.2040 C.3   417  HEM417      0.0000
     12  CGA       14.5900  -20.3720  -19.8560 C.2   417  HEM417      0.0000
     13  O1A       14.3380  -21.5560  -19.5490 O.co2 417  HEM417      0.0000
     14  O2A       13.6880  -19.4900  -19.8890 O.co2 417  HEM417      0.0000
     15  C1B       22.9410  -19.5650  -20.4480 C.ar  417  HEM417      0.0000
     16  C2B       24.2400  -19.4700  -19.8020 C.ar  417  HEM417      0.0000
     17  C3B       25.1490  -19.1030  -20.7350 C.ar  417  HEM417      0.0000
     18  C4B       24.4420  -18.9850  -22.0020 C.ar  417  HEM417      0.0000
     19  CMB       24.4730  -19.7230  -18.2960 C.3   417  HEM417      0.0000
     20  CAB       26.6710  -18.8750  -20.6160 C.2   417  HEM417      0.0000
     21  CBB       27.4000  -19.1450  -19.5190 C.2   417  HEM417      0.0000
     22  C1C       24.3480  -18.5060  -24.4040 C.2   417  HEM417      0.0000
     23  C2C       24.9270  -17.9980  -25.6280 C.2   417  HEM417      0.0000
     24  C3C       23.9670  -18.0180  -26.5830 C.2   417  HEM417      0.0000
     25  C4C       22.7510  -18.5260  -25.9720 C.2   417  HEM417      0.0000
     26  CMC       26.4070  -17.5890  -25.7770 C.3   417  HEM417      0.0000
     27  CAC       24.0480  -17.5730  -28.0530 C.2   417  HEM417      0.0000
     28  CBC       24.8710  -16.6250  -28.4950 C.2   417  HEM417      0.0000
     29  C1D       20.4330  -19.2780  -26.0330 C.ar  417  HEM417      0.0000
     30  C2D       19.2170  -19.5370  -26.7550 C.ar  417  HEM417      0.0000
     31  C3D       18.2360  -20.0740  -25.7630 C.ar  417  HEM417      0.0000
     32  C4D       18.9290  -20.0940  -24.4970 C.ar  417  HEM417      0.0000
     33  CMD       18.9390  -19.3070  -28.2450 C.3   417  HEM417      0.0000
     34  CAD       16.7770  -20.4280  -26.0680 C.3   417  HEM417      0.0000
     35  CBD       16.4050  -21.8950  -25.9810 C.3   417  HEM417      0.0000
     36  CGD       14.8960  -21.9730  -26.0490 C.2   417  HEM417      0.0000
     37  O1D       14.3960  -22.9960  -26.6090 O.co2 417  HEM417      0.0000
     38  O2D       14.1900  -21.0510  -25.5500 O.co2 417  HEM417      0.0000
     39  NA        20.3280  -20.0840  -21.8530 N.2   417  HEM417      0.0000
     40  NB        23.0950  -19.2610  -21.7880 N.ar  417  HEM417      0.0000
     41  NC        23.0090  -18.8070  -24.6380 N.2   417  HEM417      0.0000
     42  ND        20.2250  -19.6180  -24.7010 N.ar  417  HEM417      0.0000
     43 FE         21.7270  -19.6470  -23.2830 Fe    417  HEM417      0.0000
@<TRIPOS>BOND
     1    28    27    2
     2    33    30    1
     3    27    24    1
     4    30    29   ar
     5    30    31   ar
     6    37    36   ar
     7     4    29    2
     8     4    25    1
     9    24    25    1
    10    24    23    2
    11    34    35    1
    12    34    31    1
    13    36    35    1
    14    36    38   ar
    15    29    42   ar
    16    25    41    2
    17    26    23    1
    18    31    32   ar
    19    23    22    1
    20    42    32   ar
    21    42    43    1
    22    41    22    1
    23    41    43    1
    24    32     1    2
    25    22     3    2
    26     1     5    1
    27    43    39    1
    28    43    40    1
    29     3    18    1
    30     5    39    2
    31     5     6    1
    32    18    40   ar
    33    18    17   ar
    34    39     8    1
    35    40    15   ar
    36     6    10    1
    37     6     7    2
    38    17    20    1
    39    17    16   ar
    40    20    21    2
    41    10    11    1
    42     8     7    1
    43     8     2    2
    44    15     2    1
    45    15    16   ar
    46    11    12    1
    47    14    12   ar
    48    12    13   ar
    49     7     9    1
    50    16    19    1
