@<TRIPOS>MOLECULE
2zui_CAM_A_1.pdb
 11 12 0 0 0
SMALL
GASTEIGER

@<TRIPOS>ATOM
      1  C1       -14.5590   18.6650   21.2780 C.3   422  CAM422      0.0282
      2  C2       -14.8000   17.3050   21.8560 C.3   422  CAM422      0.1519
      3  O        -13.8150   16.4000   22.1080 O.3   422  CAM422     -0.2232
      4  C3       -16.2610   17.0930   22.1170 C.3   422  CAM422      0.0329
      5  C4       -16.7890   18.4610   21.6900 C.3   422  CAM422      0.0026
      6  C5       -16.3000   19.4410   22.7700 C.3   422  CAM422      0.0002
      7  C6       -14.8060   19.6230   22.4490 C.3   422  CAM422      0.0024
      8  C7       -15.8770   18.7840   20.5030 C.3   422  CAM422      0.0024
      9  C8       -16.0660   17.7620   19.3840 C.3   422  CAM422      0.0001
     10  C9       -16.0720   20.1990   19.9400 C.3   422  CAM422      0.0001
     11  C10      -13.2460   18.8540   20.5200 C.3   422  CAM422      0.0025
@<TRIPOS>BOND
     1     9     8    1
     2    10     8    1
     3     8     1    1
     4     8     5    1
     5    11     1    1
     6     1     2    1
     7     1     7    1
     8     5     4    1
     9     5     6    1
    10     2     3    1
    11     2     4    1
    12     7     6    1
