@<TRIPOS>MOLECULE
2zui_HEM_A_1.pdb
 43 50 0 0 0
SMALL
GASTEIGER

@<TRIPOS>ATOM
      1  CHA      -20.2660   18.4040   23.1610 C.2   417  HEM417      0.0000
      2  CHB      -19.7550   21.8060   19.7340 C.2   417  HEM417      0.0000
      3  CHC      -18.5230   25.0850   23.1220 C.2   417  HEM417      0.0000
      4  CHD      -18.4150   21.5440   26.4370 C.2   417  HEM417      0.0000
      5  C1A      -20.2320   19.0470   21.9390 C.ar  417  HEM417      0.0000
      6  C2A      -20.5180   18.4130   20.6610 C.ar  417  HEM417      0.0000
      7  C3A      -20.3870   19.3650   19.7030 C.ar  417  HEM417      0.0000
      8  C4A      -19.9930   20.6040   20.3640 C.ar  417  HEM417      0.0000
      9  CMA      -20.6130   19.1950   18.1900 C.3   417  HEM417      0.0000
     10  CAA      -20.9790   16.9530   20.4330 C.3   417  HEM417      0.0000
     11  CBA      -19.7950   16.0450   20.1270 C.3   417  HEM417      0.0000
     12  CGA      -20.2380   14.6270   19.8040 C.2   417  HEM417      0.0000
     13  O1A      -21.4430   14.3630   19.5790 O.co2 417  HEM417      0.0000
     14  O2A      -19.3350   13.7290   19.8100 O.co2 417  HEM417      0.0000
     15  C1B      -19.4210   22.9860   20.3650 C.2   417  HEM417      0.0000
     16  C2B      -19.3550   24.2930   19.7200 C.2   417  HEM417      0.0000
     17  C3B      -18.9970   25.1990   20.6530 C.2   417  HEM417      0.0000
     18  C4B      -18.8570   24.4830   21.9190 C.2   417  HEM417      0.0000
     19  CMB      -19.6380   24.5290   18.2140 C.3   417  HEM417      0.0000
     20  CAB      -18.7930   26.7250   20.5290 C.2   417  HEM417      0.0000
     21  CBB      -19.0430   27.4430   19.4250 C.2   417  HEM417      0.0000
     22  C1C      -18.3130   24.3730   24.2860 C.ar  417  HEM417      0.0000
     23  C2C      -17.7640   24.9120   25.5000 C.ar  417  HEM417      0.0000
     24  C3C      -17.7170   23.9380   26.4290 C.ar  417  HEM417      0.0000
     25  C4C      -18.2520   22.7410   25.8010 C.ar  417  HEM417      0.0000
     26  CMC      -17.3400   26.3780   25.6630 C.3   417  HEM417      0.0000
     27  CAC      -17.2090   23.9920   27.8850 C.2   417  HEM417      0.0000
     28  CBC      -16.3930   24.9240   28.3870 C.2   417  HEM417      0.0000
     29  C1D      -18.9450   20.4170   25.8630 C.2   417  HEM417      0.0000
     30  C2D      -19.1450   19.1830   26.5790 C.2   417  HEM417      0.0000
     31  C3D      -19.7120   18.2200   25.5760 C.2   417  HEM417      0.0000
     32  C4D      -19.8080   18.9600   24.3340 C.2   417  HEM417      0.0000
     33  CMD      -18.8360   18.8880   28.0580 C.3   417  HEM417      0.0000
     34  CAD      -20.0250   16.7390   25.8390 C.3   417  HEM417      0.0000
     35  CBD      -21.4850   16.3250   25.8700 C.3   417  HEM417      0.0000
     36  CGD      -21.5540   14.8150   25.8910 C.2   417  HEM417      0.0000
     37  O1D      -22.5380   14.2900   26.4530 O.co2 417  HEM417      0.0000
     38  O2D      -20.6440   14.1350   25.3390 O.co2 417  HEM417      0.0000
     39  NA       -19.8970   20.3720   21.7300 N.ar  417  HEM417      0.0000
     40  NB       -19.1260   23.1440   21.7070 N.2   417  HEM417      0.0000
     41  NC       -18.6050   23.0270   24.4930 N.ar  417  HEM417      0.0000
     42  ND       -19.3630   20.2530   24.5510 N.2   417  HEM417      0.0000
     43 FE        -19.5260   21.7850   23.1620 Fe    417  HEM417      0.0000
@<TRIPOS>BOND
     1     9     7    1
     2    19    16    1
     3    21    20    2
     4    13    12   ar
     5     7     8   ar
     6     7     6   ar
     7    16    15    1
     8    16    17    2
     9     2     8    2
    10     2    15    1
    11    12    14   ar
    12    12    11    1
    13    11    10    1
    14     8    39   ar
    15    15    40    2
    16    10     6    1
    17    20    17    1
    18    17    18    1
    19     6     5   ar
    20    40    18    1
    21    40    43    1
    22    39     5   ar
    23    39    43    1
    24    18     3    2
    25     5     1    2
    26     3    22    1
    27     1    32    1
    28    43    41    1
    29    43    42    1
    30    22    41   ar
    31    22    23   ar
    32    32    42    2
    33    32    31    1
    34    41    25   ar
    35    42    29    1
    36    38    36   ar
    37    23    26    1
    38    23    24   ar
    39    31    34    1
    40    31    30    2
    41    25    24   ar
    42    25     4    1
    43    34    35    1
    44    29     4    2
    45    29    30    1
    46    35    36    1
    47    36    37   ar
    48    24    27    1
    49    30    33    1
    50    27    28    2
