@<TRIPOS>MOLECULE
2zuj_HEM_A_1.pdb
 43 50 0 0 0
SMALL
GASTEIGER

@<TRIPOS>ATOM
      1  CHA       13.1250  -11.9440  -23.0890 C.2   417  HEM417      0.0000
      2  CHB        9.6520  -12.5720  -19.7430 C.2   417  HEM417      0.0000
      3  CHC        6.4670  -13.8240  -23.1960 C.2   417  HEM417      0.0000
      4  CHD       10.0560  -13.6880  -26.4600 C.2   417  HEM417      0.0000
      5  C1A       12.4410  -11.9860  -21.8840 C.2   417  HEM417      0.0000
      6  C2A       13.0400  -11.6770  -20.6040 C.2   417  HEM417      0.0000
      7  C3A       12.0680  -11.8490  -19.6730 C.2   417  HEM417      0.0000
      8  C4A       10.8590  -12.2830  -20.3580 C.2   417  HEM417      0.0000
      9  CMA       12.1740  -11.6430  -18.1500 C.3   417  HEM417      0.0000
     10  CAA       14.4780  -11.1600  -20.3370 C.3   417  HEM417      0.0000
     11  CBA       15.3870  -12.2750  -19.8810 C.3   417  HEM417      0.0000
     12  CGA       16.7620  -11.7240  -19.8200 C.2   417  HEM417      0.0000
     13  O1A       17.1210  -11.0920  -18.7890 O.co2 417  HEM417      0.0000
     14  O2A       17.4900  -11.9430  -20.8050 O.co2 417  HEM417      0.0000
     15  C1B        8.4780  -12.9020  -20.3790 C.ar  417  HEM417      0.0000
     16  C2B        7.1730  -13.0560  -19.7450 C.ar  417  HEM417      0.0000
     17  C3B        6.2960  -13.4020  -20.7240 C.ar  417  HEM417      0.0000
     18  C4B        7.0340  -13.4980  -21.9810 C.ar  417  HEM417      0.0000
     19  CMB        6.9230  -12.8360  -18.2350 C.3   417  HEM417      0.0000
     20  CAB        4.7960  -13.6780  -20.7000 C.2   417  HEM417      0.0000
     21  CBB        4.0260  -13.5020  -19.6220 C.2   417  HEM417      0.0000
     22  C1C        7.1960  -13.9520  -24.3750 C.2   417  HEM417      0.0000
     23  C2C        6.6820  -14.4740  -25.6030 C.2   417  HEM417      0.0000
     24  C3C        7.6790  -14.4510  -26.5100 C.2   417  HEM417      0.0000
     25  C4C        8.8530  -13.9200  -25.8490 C.2   417  HEM417      0.0000
     26  CMC        5.2230  -14.9030  -25.7830 C.3   417  HEM417      0.0000
     27  CAC        7.6320  -14.9000  -27.9830 C.2   417  HEM417      0.0000
     28  CBC        6.7410  -15.7680  -28.4430 C.2   417  HEM417      0.0000
     29  C1D       11.1660  -13.1590  -25.8610 C.ar  417  HEM417      0.0000
     30  C2D       12.3930  -12.9020  -26.5650 C.ar  417  HEM417      0.0000
     31  C3D       13.3350  -12.3770  -25.5460 C.ar  417  HEM417      0.0000
     32  C4D       12.6020  -12.3550  -24.2870 C.ar  417  HEM417      0.0000
     33  CMD       12.6450  -13.1650  -28.0670 C.3   417  HEM417      0.0000
     34  CAD       14.8110  -12.0380  -25.7850 C.3   417  HEM417      0.0000
     35  CBD       15.1990  -10.5800  -25.7160 C.3   417  HEM417      0.0000
     36  CGD       16.6970  -10.4800  -25.6510 C.2   417  HEM417      0.0000
     37  O1D       17.2190   -9.4610  -26.1740 O.co2 417  HEM417      0.0000
     38  O2D       17.3690  -11.3910  -25.0750 O.co2 417  HEM417      0.0000
     39  NA        11.1200  -12.3720  -21.7240 N.2   417  HEM417      0.0000
     40  NB         8.3590  -13.1750  -21.7200 N.ar  417  HEM417      0.0000
     41  NC         8.5310  -13.6480  -24.5230 N.2   417  HEM417      0.0000
     42  ND        11.3140  -12.8130  -24.5250 N.ar  417  HEM417      0.0000
     43 FE          9.7690  -12.8270  -23.1470 Fe    417  HEM417      0.0000
@<TRIPOS>BOND
     1    28    27    2
     2    33    30    1
     3    27    24    1
     4    30    29   ar
     5    30    31   ar
     6    24    25    1
     7    24    23    2
     8     4    29    2
     9     4    25    1
    10    37    36   ar
    11    29    42   ar
    12    25    41    2
    13    34    35    1
    14    34    31    1
    15    26    23    1
    16    35    36    1
    17    36    38   ar
    18    23    22    1
    19    31    32   ar
    20    42    32   ar
    21    42    43    1
    22    41    22    1
    23    41    43    1
    24    22     3    2
    25    32     1    2
    26     3    18    1
    27    43    39    1
    28    43    40    1
    29     1     5    1
    30    18    40   ar
    31    18    17   ar
    32     5    39    2
    33     5     6    1
    34    39     8    1
    35    40    15   ar
    36    14    12   ar
    37    17    20    1
    38    17    16   ar
    39    20    21    2
    40     6    10    1
    41     6     7    2
    42    15    16   ar
    43    15     2    1
    44     8     2    2
    45     8     7    1
    46    10    11    1
    47    11    12    1
    48    12    13   ar
    49    16    19    1
    50     7     9    1
