@<TRIPOS>MOLECULE
2zuj_CAM_A_1.pdb
 11 12 0 0 0
SMALL
GASTEIGER

@<TRIPOS>ATOM
      1  C1        12.7820  -17.6070  -21.2110 C.3   422  CAM422      0.0282
      2  C2        14.1910  -17.4360  -21.7130 C.3   422  CAM422      0.1519
      3  O         15.1200  -18.4630  -21.9240 O.3   422  CAM422     -0.2232
      4  C3        14.4280  -15.9810  -21.9990 C.3   422  CAM422      0.0329
      5  C4        13.0620  -15.4100  -21.5970 C.3   422  CAM422      0.0026
      6  C5        12.1430  -15.8700  -22.7160 C.3   422  CAM422      0.0002
      7  C6        11.9550  -17.3710  -22.4650 C.3   422  CAM422      0.0024
      8  C7        12.6330  -16.3010  -20.4410 C.3   422  CAM422      0.0024
      9  C8        13.6010  -16.1320  -19.2780 C.3   422  CAM422      0.0001
     10  C9        11.1850  -16.0320  -20.0070 C.3   422  CAM422      0.0001
     11  C10       12.4970  -18.9300  -20.4950 C.3   422  CAM422      0.0025
@<TRIPOS>BOND
     1     6     7    1
     2     6     5    1
     3     7     1    1
     4     4     2    1
     5     4     5    1
     6     3     2    1
     7     2     1    1
     8     5     8    1
     9     1    11    1
    10     1     8    1
    11     8    10    1
    12     8     9    1
