@<TRIPOS>MOLECULE
2zuk_PLP_A_1.pdb
 15 15 0 0 0
SMALL
GASTEIGER

@<TRIPOS>ATOM
      1  N1         5.4380   -5.2030   34.8270 N.2   450  PLP450     -0.2458
      2  C2         5.2210   -3.8360   35.0220 C.2   450  PLP450      0.0942
      3  C2A        4.5950   -3.3500   36.3000 C.3   450  PLP450      0.0552
      4  C3         5.5770   -2.9220   34.0260 C.2   450  PLP450      0.1899
      5  O3         5.3720   -1.7290   34.2300 O.2   450  PLP450     -0.2898
      6  C4         6.1550   -3.3730   32.8250 C.3   450  PLP450      0.0852
      7  C4A        6.5870   -2.4200   31.7220 C.3   450  PLP450      0.0127
      8  C5         6.3590   -4.7630   32.6550 C.2   450  PLP450      0.0118
      9  C6         6.0010   -5.6700   33.6500 C.2   450  PLP450      0.0929
     10  C5A        6.9630   -5.3400   31.4100 C.3   450  PLP450      0.1779
     11  O4P        8.1410   -4.7320   30.8170 O.3   450  PLP450     -0.2656
     12  P          8.3220   -4.7660   29.2300 P.3   450  PLP450      0.5329
     13  O1P        8.0600   -6.1860   28.9030 O.3   450  PLP450     -0.1145
     14  O2P        7.2540   -3.8800   28.6990 O.2   450  PLP450     -0.2224
     15  O3P        9.6980   -4.2620   29.0420 O.3   450  PLP450     -0.1145
@<TRIPOS>BOND
     1    14    12    2
     2    13    12    1
     3    15    12    1
     4    12    11    1
     5    11    10    1
     6    10     8    1
     7     7     6    1
     8     8     6    1
     9     8     9    2
    10     6     4    1
    11     9     1    1
    12     4     5    2
    13     4     2    1
    14     1     2    2
    15     2     3    1
