@<TRIPOS>MOLECULE
2zul_SAM_A_1.pdb
 27 29 0 0 0
SMALL
GASTEIGER

@<TRIPOS>ATOM
      1  N         24.5210   14.6890   22.5170 N.3   376  SAM376     -0.1159
      2  CA        24.1270   13.3600   22.0290 C.3   376  SAM376      0.2168
      3  C         23.6620   12.5030   23.2080 C.2   376  SAM376      0.3860
      4  O         23.0750   11.4340   22.9370 O.co2 376  SAM376     -0.2437
      5  OXT       23.9050   12.9350   24.3560 O.co2 376  SAM376     -0.2437
      6  CB        25.3170   12.6860   21.3380 C.2   376  SAM376      0.0097
      7  CG        26.3720   12.1890   22.0930 C.2   376  SAM376      0.0191
      8  SD        27.7370   11.4080   21.3210 S.3   376  SAM376     -0.1536
      9  CE        28.7560   10.6450   22.5650 C.3   376  SAM376      0.0636
     10  C5'       28.9080   12.6220   20.6120 C.3   376  SAM376      0.0847
     11  C4'       28.3590   13.3720   19.3950 C.3   376  SAM376      0.1625
     12  O4'       29.4040   14.2210   18.8870 O.3   376  SAM376     -0.3153
     13  C3'       28.0040   12.3980   18.2670 C.3   376  SAM376      0.2168
     14  O3'       26.7370   12.7480   17.7020 O.3   376  SAM376     -0.2175
     15  C2'       29.1140   12.6490   17.2470 C.3   376  SAM376      0.2569
     16  O2'       28.6040   12.4170   15.9310 O.3   376  SAM376     -0.2130
     17  C1'       29.2900   14.1510   17.4590 C.3   376  SAM376      0.3185
     18  N9        30.5240   14.6570   16.8150 N.pl3 376  SAM376     -0.1439
     19  C8        31.6150   13.9450   16.5350 C.3   376  SAM376      0.3377
     20  N7        32.5270   14.7300   15.9670 N.2   376  SAM376     -0.2095
     21  C5        32.0160   15.9540   15.8860 C.2   376  SAM376      0.2526
     22  C6        32.4830   17.1670   15.3950 C.2   376  SAM376      0.4393
     23  N6        33.6910   17.2520   14.8470 N.pl3 376  SAM376      0.2180
     24  N1        31.6870   18.2440   15.4660 N.2   376  SAM376      0.0021
     25  C2        30.4760   18.1630   15.9890 C.3   376  SAM376      0.5254
     26  N3        29.9980   17.0260   16.4630 N.2   376  SAM376     -0.0055
     27  C4        30.7390   15.9090   16.4270 C.2   376  SAM376      0.3518
@<TRIPOS>BOND
     1    23    22    1
     2    22    24    2
     3    22    21    1
     4    24    25    1
     5    21    20    2
     6    21    27    1
     7    16    15    1
     8    20    19    1
     9    25    26    1
    10    27    26    2
    11    27    18    1
    12    19    18    1
    13    18    17    1
    14    15    17    1
    15    15    13    1
    16    17    12    1
    17    14    13    1
    18    13    11    1
    19    12    11    1
    20    11    10    1
    21    10     8    1
    22     8     7    1
    23     8     9    1
    24     6     2    1
    25     6     7    2
    26     2     1    1
    27     2     3    1
    28     4     3   ar
    29     3     5   ar
