@<TRIPOS>MOLECULE
2zun_CBI_A_1.pdb
 23 24 0 0 0
SMALL
GASTEIGER

@<TRIPOS>ATOM
      1  C1        24.7790  -14.3410   18.8280 C.3   459  CBI459      0.2695
      2  C2        25.6700  -15.0330   19.8690 C.3   459  CBI459      0.2406
      3  C3        25.6590  -14.0780   21.0490 C.3   459  CBI459      0.2198
      4  C4        25.9310  -12.6270   20.7380 C.3   459  CBI459      0.2144
      5  C5        25.2030  -12.3730   19.4100 C.3   459  CBI459      0.1835
      6  C6        24.3210  -11.1980   19.0150 C.3   459  CBI459      0.2142
      7  O2        25.0680  -16.2470   20.3140 O.3   459  CBI459     -0.2149
      8  O3        26.3610  -14.5840   22.1920 O.3   459  CBI459     -0.2174
      9  O4        24.9520  -12.1460   21.6620 O.3   459  CBI459     -0.2176
     10  O5        25.6130  -13.2650   18.3860 O.3   459  CBI459     -0.3256
     11  O6        23.8490  -11.6130   17.7410 O.3   459  CBI459     -0.2176
     12  C1'       23.0760  -18.1790   15.5740 C.3   459  CBI459      0.3023
     13  C2'       22.4200  -16.8080   15.3940 C.3   459  CBI459      0.2433
     14  C3'       23.2720  -15.8510   16.1870 C.3   459  CBI459      0.2168
     15  C4'       23.7040  -16.3010   17.5570 C.3   459  CBI459      0.1804
     16  C5'       24.7700  -17.3150   17.2230 C.3   459  CBI459      0.1804
     17  C6'       25.2600  -18.2160   18.3460 C.3   459  CBI459      0.2141
     18  O1'       22.2580  -19.0040   16.3890 O.3   459  CBI459     -0.1869
     19  O2'       22.5830  -16.4370   14.0370 O.3   459  CBI459     -0.2148
     20  O3'       22.7730  -14.5210   16.0860 O.3   459  CBI459     -0.2175
     21  O4'       24.5280  -15.1430   17.6840 O.3   459  CBI459     -0.3257
     22  O5'       24.3970  -18.1540   16.1420 O.3   459  CBI459     -0.3237
     23  O6'       25.2370  -19.5880   17.9550 O.3   459  CBI459     -0.2176
@<TRIPOS>BOND
     1    19    13    1
     2    13    12    1
     3    13    14    1
     4    12    22    1
     5    12    18    1
     6    20    14    1
     7    22    16    1
     8    14    15    1
     9    16    15    1
    10    16    17    1
    11    15    21    1
    12    21     1    1
    13    11     6    1
    14    23    17    1
    15    10     1    1
    16    10     5    1
    17     1     2    1
    18     6     5    1
    19     5     4    1
    20     2     7    1
    21     2     3    1
    22     4     3    1
    23     4     9    1
    24     3     8    1
