@<TRIPOS>MOLECULE
2zup_UQ1_B_1.pdb
 18 18 0 0 0
SMALL
GASTEIGER

@<TRIPOS>ATOM
      1  C1         3.7060   34.0730   19.9700 C.2   177  UQ1177      0.2285
      2  O1         3.0880   33.5510   20.9140 O.2   177  UQ1177     -0.2835
      3  C2         4.8140   33.3430   19.3100 C.2   177  UQ1177      0.2140
      4  O2         5.1630   32.0860   19.7290 O.2   177  UQ1177     -0.4652
      5  CM2        5.0440   31.6720   21.0920 C.3   177  UQ1177      0.2528
      6  C3         5.5440   33.9720   18.1740 C.2   177  UQ1177      0.2140
      7  O3         6.5830   33.2810   17.5890 O.2   177  UQ1177     -0.4652
      8  CM3        6.6210   32.9720   16.1960 C.3   177  UQ1177      0.2528
      9  C4         5.1720   35.3480   17.7100 C.2   177  UQ1177      0.2282
     10  O4         5.8010   35.8870   16.7620 O.2   177  UQ1177     -0.2836
     11  C5         4.0540   36.0760   18.3860 C.2   177  UQ1177      0.0198
     12  CM5        3.6560   37.4620   17.9310 C.3   177  UQ1177      0.0343
     13  C6         3.3340   35.4330   19.5220 C.2   177  UQ1177      0.0235
     14  C7         2.1760   36.1210   20.2020 C.3   177  UQ1177      0.0548
     15  C8         0.9730   35.4880   19.5270 C.2   177  UQ1177     -0.0298
     16  C9        -0.0300   36.1430   18.9220 C.2   177  UQ1177     -0.0475
     17  C10       -1.1280   35.3340   18.2970 C.3   177  UQ1177      0.0260
     18  C11       -0.0660   37.6460   18.8740 C.3   177  UQ1177      0.0260
@<TRIPOS>BOND
     1     8     7    1
     2    10     9    2
     3     7     6    1
     4     9     6    1
     5     9    11    1
     6    12    11    1
     7     6     3    2
     8    17    16    1
     9    11    13    2
    10    18    16    1
    11    16    15    2
    12     3     4    1
    13     3     1    1
    14    13     1    1
    15    13    14    1
    16    15    14    1
    17     4     5    1
    18     1     2    2
