@<TRIPOS>MOLECULE
2zuq_UQ1_A_1.pdb
 18 18 0 0 0
SMALL
GASTEIGER

@<TRIPOS>ATOM
      1  C1       -53.9490   -1.1260  -89.7580 C.2   177  UQ1177      0.2285
      2  O1       -53.3500   -0.6900  -90.7630 O.2   177  UQ1177     -0.2835
      3  C2       -53.2730   -1.0150  -88.4410 C.2   177  UQ1177      0.2140
      4  O2       -52.0280   -0.4500  -88.3600 O.2   177  UQ1177     -0.4652
      5  CM2      -50.8650   -1.2490  -88.5720 C.3   177  UQ1177      0.2528
      6  C3       -53.9410   -1.5190  -87.2170 C.2   177  UQ1177      0.2140
      7  O3       -53.3000   -1.4060  -86.0130 O.2   177  UQ1177     -0.4652
      8  CM3      -52.6100   -2.5130  -85.4390 C.3   177  UQ1177      0.2528
      9  C4       -55.2950   -2.1350  -87.3080 C.2   177  UQ1177      0.2282
     10  O4       -55.8540   -2.5690  -86.2770 O.2   177  UQ1177     -0.2836
     11  C5       -55.9770   -2.2480  -88.6290 C.2   177  UQ1177      0.0198
     12  CM5      -57.3420   -2.8810  -88.6890 C.3   177  UQ1177      0.0343
     13  C6       -55.3090   -1.7410  -89.8700 C.2   177  UQ1177      0.0235
     14  C7       -55.9980   -1.8590  -91.2230 C.3   177  UQ1177      0.0548
     15  C8       -56.2750   -0.4910  -91.8210 C.2   177  UQ1177     -0.0298
     16  C9       -56.7660   -0.2970  -93.0570 C.2   177  UQ1177     -0.0475
     17  C10      -57.0010    1.1020  -93.5520 C.3   177  UQ1177      0.0260
     18  C11      -57.0800   -1.4650  -93.9460 C.3   177  UQ1177      0.0260
@<TRIPOS>BOND
     1    18    16    1
     2    17    16    1
     3    16    15    2
     4    15    14    1
     5    14    13    1
     6     2     1    2
     7    13     1    1
     8    13    11    2
     9     1     3    1
    10    12    11    1
    11    11     9    1
    12     5     4    1
    13     3     4    1
    14     3     6    2
    15     9     6    1
    16     9    10    2
    17     6     7    1
    18     7     8    1
