@<TRIPOS>MOLECULE
2zut_A2G_A_1.pdb
 15 15 0 0 0
SMALL
GASTEIGER

@<TRIPOS>ATOM
      1  O         -8.3020   20.2440  -50.9830 O.3   4001  A2G4001    -0.3242
      2  C1        -6.9090   20.5650  -50.8840 C.3   4001  A2G4001     0.2917
      3  O1        -6.4410   20.3250  -49.5480 O.3   4001  A2G4001    -0.1879
      4  C2        -6.7170   22.0580  -51.1850 C.3   4001  A2G4001     0.1871
      5  N2        -5.3170   22.4520  -51.0430 N.am  4001  A2G4001    -0.1991
      6  C3        -7.6090   22.8910  -50.2470 C.3   4001  A2G4001     0.2095
      7  O3        -7.4940   24.2600  -50.6150 O.3   4001  A2G4001    -0.2183
      8  C4        -9.0710   22.4980  -50.4130 C.3   4001  A2G4001     0.2136
      9  O4        -9.4940   22.8210  -51.7610 O.3   4001  A2G4001    -0.2176
     10  C5        -9.1960   20.9970  -50.1590 C.3   4001  A2G4001     0.1835
     11  C6       -10.6070   20.4750  -50.3870 C.3   4001  A2G4001     0.2142
     12  O6       -10.6160   19.1050  -49.9690 O.3   4001  A2G4001    -0.2176
     13  C7        -4.5210   22.6270  -52.1080 C.2   4001  A2G4001     0.2421
     14  O7        -4.9440   22.7090  -53.2460 O.2   4001  A2G4001    -0.2733
     15  C8        -3.0580   22.6170  -51.8390 C.3   4001  A2G4001     0.0964
@<TRIPOS>BOND
     1    14    13    2
     2    13    15    1
     3    13     5   am
     4     9     8    1
     5     4     5    1
     6     4     2    1
     7     4     6    1
     8     1     2    1
     9     1    10    1
    10     2     3    1
    11     7     6    1
    12     8     6    1
    13     8    10    1
    14    11    10    1
    15    11    12    1
