@<TRIPOS>MOLECULE
2zux_RAM_A_1.pdb
 11 11 0 0 0
SMALL
GASTEIGER

@<TRIPOS>ATOM
      1  C1        30.3830  -50.5470   80.4100 C.3   639  RAM639      0.3023
      2  C2        29.6740  -51.0660   81.6590 C.3   639  RAM639      0.2434
      3  C3        28.2090  -51.4070   81.3630 C.3   639  RAM639      0.2198
      4  C4        28.0930  -52.3480   80.1610 C.3   639  RAM639      0.2118
      5  C5        28.8460  -51.7580   78.9660 C.3   639  RAM639      0.1509
      6  C6        28.8550  -52.7450   77.8050 C.3   639  RAM639      0.0350
      7  O1        29.9330  -49.2470   80.1010 O.3   639  RAM639     -0.1869
      8  O2        30.3720  -52.2110   82.1050 O.3   639  RAM639     -0.2148
      9  O3        27.5900  -51.9890   82.4940 O.3   639  RAM639     -0.2174
     10  O4        26.7280  -52.5800   79.8620 O.3   639  RAM639     -0.2177
     11  O5        30.1900  -51.4260   79.3110 O.3   639  RAM639     -0.3264
@<TRIPOS>BOND
     1     6     5    1
     2     5    11    1
     3     5     4    1
     4    11     1    1
     5    10     4    1
     6     7     1    1
     7     4     3    1
     8     1     2    1
     9     3     2    1
    10     3     9    1
    11     2     8    1
