@<TRIPOS>MOLECULE
2zv2_609_A_1.pdb
 24 28 0 0 0
SMALL
GASTEIGER

@<TRIPOS>ATOM
      1  CAW        1.1000   -8.2610  -26.3270 C.ar  501  609501      0.0088
      2  CAR        1.0630   -9.6440  -26.4790 C.ar  501  609501      0.0067
      3  CAI       -0.0810  -10.2480  -26.9900 C.ar  501  609501      0.0002
      4  CAF       -1.1830   -9.4780  -27.3430 C.ar  501  609501      0.0002
      5  CAJ       -1.1470   -8.0970  -27.1910 C.ar  501  609501      0.0047
      6  CAS       -0.0030   -7.4900  -26.6830 C.ar  501  609501      0.0567
      7  CAP        0.0240   -6.1090  -26.5180 C.ar  501  609501      0.2665
      8  OAB       -0.9380   -5.4210  -26.8560 O.2   501  609501     -0.2666
      9  NAX        1.1650   -5.5030  -25.9810 N.ar  501  609501     -0.2472
     10  CAU        1.4630   -4.1890  -25.6090 C.2   501  609501      0.0948
     11  CAK        0.7390   -3.0040  -25.6640 C.2   501  609501      0.0196
     12  CAE        1.2930   -1.8360  -25.1530 C.2   501  609501     -0.0026
     13  CAD        2.5660   -1.8600  -24.5930 C.2   501  609501     -0.0186
     14  CAH        3.2880   -3.0470  -24.5430 C.3   501  609501      0.0865
     15  CAQ        2.7360   -4.2180  -25.0510 C.2   501  609501      0.1313
     16  NAM        3.1890   -5.4700  -25.0840 N.2   501  609501     -0.3864
     17  CAV        2.2760   -6.2750  -25.6250 C.ar  501  609501      0.2009
     18  CAT        2.2370   -7.6530  -25.8030 C.ar  501  609501      0.0470
     19  CAL        3.3340   -8.4250  -25.4370 C.ar  501  609501      0.0043
     20  CAG        3.2940   -9.8060  -25.5940 C.ar  501  609501      0.0067
     21  CAO        2.1590  -10.4190  -26.1130 C.ar  501  609501      0.0798
     22  CAN        2.1340  -11.9460  -26.2390 C.2   501  609501      0.3878
     23  OAC        1.0460  -12.5440  -26.0990 O.co2 501  609501     -0.2406
     24  OAA        3.2220  -12.5280  -26.4370 O.co2 501  609501     -0.2406
@<TRIPOS>BOND
     1     4     5   ar
     2     4     3   ar
     3     5     6   ar
     4     3     2   ar
     5     8     7    2
     6     6     7   ar
     7     6     1   ar
     8     7     9   ar
     9     2     1   ar
    10     2    21   ar
    11    24    22   ar
    12     1    18   ar
    13    22    21    1
    14    22    23   ar
    15    21    20   ar
    16     9    17   ar
    17     9    10    1
    18    18    17   ar
    19    18    19   ar
    20    11    10    2
    21    11    12    1
    22    17    16    2
    23    10    15    1
    24    20    19   ar
    25    12    13    2
    26    16    15    2
    27    15    14    1
    28    13    14    1
