@<TRIPOS>MOLECULE
2zv8_ANP_A_1.pdb
 31 33 0 0 0
SMALL
GASTEIGER

@<TRIPOS>ATOM
      1  PG       -22.2700   20.1270   -6.2580 P.3     1  ANP1        0.4884
      2  O1G      -21.8990   21.1760   -5.2350 O.3     1  ANP1       -0.1240
      3  O2G      -22.2910   18.7310   -5.6780 O.3     1  ANP1       -0.1240
      4  O3G      -23.5020   20.4740   -7.0610 O.2     1  ANP1       -0.2331
      5  PB       -20.9720   19.3430   -8.9780 P.3     1  ANP1        0.4669
      6  O1B      -19.8390   19.8840   -9.8200 O.2     1  ANP1       -0.2351
      7  O2B      -22.3620   19.3850   -9.5660 O.3     1  ANP1       -0.1253
      8  N3B      -20.9550   20.1780   -7.4280 N.3     1  ANP1       -0.0163
      9  PA       -19.4310   17.2950   -7.7720 P.3     1  ANP1        0.2220
     10  O1A      -18.3100   16.8570   -8.6870 O.2     1  ANP1       -0.5170
     11  O2A      -19.1550   18.3430   -6.7180 O.3     1  ANP1       -0.4370
     12  O3A      -20.6480   17.7850   -8.7140 O.3     1  ANP1       -0.2360
     13  O5'      -20.0330   15.9880   -7.0320 O.3     1  ANP1       -0.3111
     14  C5'      -21.3520   15.9310   -6.4770 C.3     1  ANP1        0.1813
     15  C4'      -21.4560   14.8070   -5.4440 C.3     1  ANP1        0.1821
     16  O4'      -21.0990   13.5450   -6.0240 O.3     1  ANP1       -0.3135
     17  C3'      -20.5330   15.0340   -4.2540 C.3     1  ANP1        0.2184
     18  O3'      -21.3050   15.0310   -3.0480 O.3     1  ANP1       -0.2174
     19  C2'      -19.5230   13.8970   -4.2700 C.3     1  ANP1        0.2570
     20  O2'      -19.4830   13.2260   -3.0090 O.3     1  ANP1       -0.2130
     21  C1'      -19.9890   12.9300   -5.3480 C.3     1  ANP1        0.3186
     22  N9       -18.8800   12.6180   -6.3000 N.pl3   1  ANP1       -0.1439
     23  C8       -18.4540   13.4110   -7.3020 C.3     1  ANP1        0.3377
     24  N7       -17.4310   12.8460   -7.9920 N.2     1  ANP1       -0.2095
     25  C5       -17.1790   11.6470   -7.4340 C.2     1  ANP1        0.2526
     26  C6       -16.2210   10.5280   -7.6730 C.2     1  ANP1        0.4393
     27  N6       -15.3040   10.5780   -8.6720 N.pl3   1  ANP1        0.2180
     28  N1       -16.2890    9.4510   -6.8550 N.2     1  ANP1        0.0021
     29  C2       -17.1920    9.3820   -5.8530 C.3     1  ANP1        0.5254
     30  N3       -18.0880   10.3570   -5.5810 N.2     1  ANP1       -0.0055
     31  C4       -18.1370   11.5000   -6.3200 C.2     1  ANP1        0.3518
@<TRIPOS>BOND
     1     6     5    2
     2     7     5    1
     3     5    12    1
     4     5     8    1
     5    12     9    1
     6    10     9    2
     7    27    26    1
     8    24    25    2
     9    24    23    1
    10     9    13    1
    11     9    11    1
    12    26    25    1
    13    26    28    2
    14    25    31    1
    15     8     1    1
    16    23    22    1
    17     4     1    2
    18    13    14    1
    19    28    29    1
    20    14    15    1
    21    31    22    1
    22    31    30    2
    23    22    21    1
    24     1     3    1
    25     1     2    1
    26    16    15    1
    27    16    21    1
    28    29    30    1
    29    15    17    1
    30    21    19    1
    31    19    17    1
    32    19    20    1
    33    17    18    1
