@<TRIPOS>MOLECULE
2zv9_PP2_A_1.pdb
 21 23 0 0 0
SMALL
GASTEIGER

@<TRIPOS>ATOM
      1  C1        19.1000    9.4940   -6.8470 C.2   513  PP2513      0.3404
      2  N2        18.0750    9.8760   -6.0380 N.2   513  PP2513     -0.0088
      3  C3        16.8040    9.6510   -6.4110 C.3   513  PP2513      0.5248
      4  N4        16.5110    9.0540   -7.5790 N.2   513  PP2513     -0.0027
      5  C5        17.4890    8.6550   -8.4210 C.2   513  PP2513      0.4081
      6  C6        18.8290    8.8710   -8.0690 C.3   513  PP2513      0.2639
      7  C8        20.0570    8.5820   -8.6840 C.2   513  PP2513      0.1226
      8  N9        21.0610    9.0170   -7.8900 N.2   513  PP2513     -0.0915
      9  N10       20.4340    9.5670   -6.7760 N.pl3 513  PP2513     -0.0877
     10  C11       20.2710    7.9440  -10.0080 C.ar  513  PP2513      0.0182
     11  C12       19.8770    8.6460  -11.1440 C.ar  513  PP2513      0.0022
     12  C13       20.0650    8.0930  -12.4030 C.ar  513  PP2513      0.0114
     13  C14       20.6590    6.8400  -12.5250 C.ar  513  PP2513      0.0577
     14  C15       21.0600    6.1370  -11.3870 C.ar  513  PP2513      0.0114
     15  C16       20.8710    6.6950  -10.1210 C.ar  513  PP2513      0.0022
     16  C22       21.2140   10.1440   -5.6320 C.3   513  PP2513      0.1509
     17  C23       20.9030    9.3420   -4.3740 C.3   513  PP2513      0.0491
     18  C24       20.8880   11.6170   -5.4190 C.3   513  PP2513      0.0491
     19  C25       22.7070   10.0320   -5.9120 C.3   513  PP2513      0.0491
     20  N25       17.1300    8.0560   -9.5840 N.pl3 513  PP2513      0.2118
     21 CL         20.9010    6.1400  -14.1610 Cl    513  PP2513     -0.0822
@<TRIPOS>BOND
     1    21    13    1
     2    13    12   ar
     3    13    14   ar
     4    12    11   ar
     5    14    15   ar
     6    11    10   ar
     7    15    10   ar
     8    10     7    1
     9    20     5    1
    10     7     6    1
    11     7     8    2
    12     5     6    1
    13     5     4    2
    14     6     1    1
    15     8     9    1
    16     4     3    1
    17     1     9    1
    18     1     2    2
    19     9    16    1
    20     3     2    1
    21    19    16    1
    22    16    18    1
    23    16    17    1
