@<TRIPOS>MOLECULE
2zva_1N1_A_1.pdb
 33 36 0 0 0
SMALL
GASTEIGER

@<TRIPOS>ATOM
      1  C1        16.7010   -8.0160   27.4590 C.ar  513  1N1513      0.1120
      2  C2        18.0480   -8.3480   27.6590 C.ar  513  1N1513      0.1065
      3  C3        19.0890   -7.9330   28.6560 C.2   513  1N1513      0.2766
      4  N6        17.0400  -13.4530   17.9910 N.3   513  1N1513     -0.2675
      5  C7        21.2830   -6.3340   32.8480 C.ar  513  1N1513      0.0006
      6  C8        20.6620   -7.5800   32.7920 C.ar  513  1N1513     -0.0029
      7  C9        19.7920   -7.8990   31.7470 C.ar  513  1N1513     -0.0057
      8  C10       19.1410   -9.2630   31.7420 C.3   513  1N1513      0.0324
      9  C11       17.4680  -10.8930   23.8000 C.2   513  1N1513      0.2025
     10  C12       16.9700  -11.6170   22.7140 C.3   513  1N1513      0.1532
     11  C13       17.8550  -12.3110   21.8780 C.2   513  1N1513      0.1809
     12  C14       19.6600  -11.5620   23.2190 C.1   513  1N1513      0.1168
     13  C15       21.1380  -11.5180   23.5120 C.3   513  1N1513      0.1429
     14  C16       18.3180  -13.9660   20.0690 C.3   513  1N1513      0.1102
     15  C19       16.0210  -13.0030   20.2880 C.3   513  1N1513      0.1102
     16  C20       16.8720  -13.7150   16.5640 C.3   513  1N1513      0.1082
     17  C21       16.8720  -15.2150   16.2760 C.3   513  1N1513      0.1993
     18  N         16.6120  -10.2060   24.6190 N.pl3 513  1N1513     -0.1613
     19  C         16.9810   -9.4630   25.7230 C.ar  513  1N1513      0.1855
     20  N1        16.1170   -8.6460   26.3810 N.ar  513  1N1513     -0.2208
     21  S         18.5500   -9.4750   26.4460 S.2   513  1N1513     -0.0450
     22  N2        18.7040   -7.2170   29.7130 N.am  513  1N1513     -0.1744
     23  C4        19.5470   -6.9540   30.7470 C.ar  513  1N1513      0.0802
     24  C5        20.1690   -5.7100   30.8040 C.ar  513  1N1513      0.0726
     25  C6        21.0370   -5.3950   31.8470 C.ar  513  1N1513      0.0127
     26 CL         19.8590   -4.4920   29.5210 Cl    513  1N1513     -0.0809
     27  O         20.2620   -8.2480   28.4890 O.2   513  1N1513     -0.2674
     28  N3        19.1860  -12.2640   22.1610 N.2   513  1N1513     -0.3326
     29  N4        18.8050  -10.8900   24.0200 N.2   513  1N1513     -0.3308
     30  N5        17.4010  -13.0680   20.7650 N.pl3 513  1N1513     -0.2831
     31  C17       18.3680  -13.6260   18.5840 C.3   513  1N1513      0.0939
     32  C18       15.8780  -12.9990   18.7620 C.3   513  1N1513      0.0939
     33  O1        15.7140  -15.8100   16.8760 O.3   513  1N1513     -0.2189
@<TRIPOS>BOND
     1    17    16    1
     2    17    33    1
     3    16     4    1
     4     4    31    1
     5     4    32    1
     6    31    14    1
     7    32    15    1
     8    14    30    1
     9    15    30    1
    10    30    11    1
    11    11    28    2
    12    11    10    1
    13    28    12    2
    14    10     9    1
    15    12    13    1
    16    12    29    2
    17     9    29    2
    18     9    18    1
    19    18    19    1
    20    19    20   ar
    21    19    21   ar
    22    20     1   ar
    23    21     2   ar
    24     1     2   ar
    25     2     3    1
    26    27     3    2
    27     3    22   am
    28    26    24    1
    29    22    23    1
    30    23    24   ar
    31    23     7   ar
    32    24    25   ar
    33     8     7    1
    34     7     6   ar
    35    25     5   ar
    36     6     5   ar
