@<TRIPOS>MOLECULE
2zvb_SAH_A_1.pdb
 26 28 0 0 0
SMALL
GASTEIGER

@<TRIPOS>ATOM
      1  N          2.6660    9.2500   26.2530 N.3   301  SAH301     -0.1208
      2  CA         1.1680    9.5030   26.1460 C.3   301  SAH301      0.1952
      3  CB         0.6770   10.2920   24.9690 C.3   301  SAH301      0.0422
      4  CG         1.2240   11.6930   24.7280 C.3   301  SAH301      0.0597
      5  SD         0.3210   12.3980   23.2770 S.3   301  SAH301     -0.1375
      6  C          0.4650    8.0800   26.1960 C.2   301  SAH301      0.3819
      7  O          1.1680    7.0480   26.2970 O.co2 301  SAH301     -0.2441
      8  OXT       -0.8260    8.0870   26.1360 O.co2 301  SAH301     -0.2441
      9  C5'       -1.0720   13.1140   24.0490 C.3   301  SAH301      0.0899
     10  C4'       -2.3710   12.4870   23.3950 C.3   301  SAH301      0.1630
     11  O4'       -2.5880   11.2060   24.0340 O.3   301  SAH301     -0.3153
     12  C3'       -3.6310   13.2590   23.5720 C.3   301  SAH301      0.2168
     13  O3'       -3.7510   14.2650   22.5630 O.3   301  SAH301     -0.2175
     14  C2'       -4.6850   12.1260   23.4960 C.3   301  SAH301      0.2569
     15  O2'       -4.9990   11.7950   22.1450 O.3   301  SAH301     -0.2130
     16  C1'       -4.0490   10.9580   24.2730 C.3   301  SAH301      0.3185
     17  N9        -4.3150   10.9180   25.6080 N.pl3 301  SAH301     -0.1439
     18  C8        -3.5400   11.0520   26.7450 C.3   301  SAH301      0.3377
     19  N7        -4.1760   10.9360   27.8720 N.2   301  SAH301     -0.2095
     20  C5        -5.5280   10.6960   27.4980 C.2   301  SAH301      0.2526
     21  C6        -6.7190   10.4770   28.2930 C.2   301  SAH301      0.4393
     22  N6        -6.7330   10.4600   29.6370 N.pl3 301  SAH301      0.2180
     23  N1        -7.8760   10.2770   27.5630 N.2   301  SAH301      0.0021
     24  C2        -7.9080   10.2780   26.1980 C.3   301  SAH301      0.5254
     25  N3        -6.7920   10.4790   25.4110 N.2   301  SAH301     -0.0055
     26  C4        -5.6420   10.6820   26.1250 C.2   301  SAH301      0.3518
@<TRIPOS>BOND
     1    15    14    1
     2    13    12    1
     3     5     9    1
     4     5     4    1
     5    10    12    1
     6    10    11    1
     7    10     9    1
     8    14    12    1
     9    14    16    1
    10    11    16    1
    11    16    17    1
    12     4     3    1
    13     3     2    1
    14    25    26    2
    15    25    24    1
    16    17    26    1
    17    17    18    1
    18    26    20    1
    19     8     6   ar
    20     2     6    1
    21     2     1    1
    22     6     7   ar
    23    24    23    1
    24    18    19    1
    25    20    19    2
    26    20    21    1
    27    23    21    2
    28    21    22    1
