@<TRIPOS>MOLECULE
2zvc_SAH_A_1.pdb
 26 28 0 0 0
SMALL
GASTEIGER

@<TRIPOS>ATOM
      1  N          2.6070  -29.9490   12.4030 N.3   301  SAH301     -0.1208
      2  CA         1.1030  -30.0720   12.1940 C.3   301  SAH301      0.1952
      3  CB         0.6180  -31.2410   11.3990 C.3   301  SAH301      0.0422
      4  CG         1.1460  -31.4230    9.9910 C.3   301  SAH301      0.0597
      5  SD         0.3030  -32.8920    9.2950 S.3   301  SAH301     -0.1375
      6  C          0.4370  -30.0670   13.6290 C.2   301  SAH301      0.3819
      7  O          1.1690  -29.9870   14.6370 O.co2 301  SAH301     -0.2441
      8  OXT       -0.8540  -30.1430   13.6570 O.co2 301  SAH301     -0.2441
      9  C5'       -1.1110  -32.1440    8.5810 C.3   301  SAH301      0.0899
     10  C4'       -2.4010  -32.7920    9.2310 C.3   301  SAH301      0.1630
     11  O4'       -2.5680  -32.2120   10.5500 O.3   301  SAH301     -0.3153
     12  C3'       -3.6860  -32.5580    8.5210 C.3   301  SAH301      0.2168
     13  O3'       -3.8500  -33.4960    7.4580 O.3   301  SAH301     -0.2175
     14  C2'       -4.6880  -32.7110    9.6900 C.3   301  SAH301      0.2569
     15  O2'       -4.9390  -34.0870    9.9860 O.3   301  SAH301     -0.2130
     16  C1'       -4.0200  -31.9610   10.8490 C.3   301  SAH301      0.3185
     17  N9        -4.2710  -30.6240   10.9230 N.pl3 301  SAH301     -0.1439
     18  C8        -3.4710  -29.4980   10.8630 C.3   301  SAH301      0.3377
     19  N7        -4.0940  -28.3610   10.9880 N.2   301  SAH301     -0.2095
     20  C5        -5.4610  -28.7180   11.1530 C.2   301  SAH301      0.2526
     21  C6        -6.6510  -27.9110   11.3470 C.2   301  SAH301      0.4393
     22  N6        -6.6530  -26.5690   11.4140 N.pl3 301  SAH301      0.2180
     23  N1        -7.8220  -28.6300   11.4660 N.2   301  SAH301      0.0021
     24  C2        -7.8750  -29.9910   11.4140 C.3   301  SAH301      0.5254
     25  N3        -6.7680  -30.7890   11.2380 N.2   301  SAH301     -0.0055
     26  C4        -5.5980  -30.0910   11.1130 C.2   301  SAH301      0.3518
@<TRIPOS>BOND
     1    13    12    1
     2    12    10    1
     3    12    14    1
     4     9    10    1
     5     9     5    1
     6    10    11    1
     7     5     4    1
     8    14    15    1
     9    14    16    1
    10     4     3    1
    11    11    16    1
    12    16    17    1
    13    18    17    1
    14    18    19    1
    15    17    26    1
    16    19    20    2
    17    26    20    1
    18    26    25    2
    19    20    21    1
    20    25    24    1
    21    21    22    1
    22    21    23    2
    23     3     2    1
    24    24    23    1
    25     2     1    1
    26     2     6    1
    27     6     8   ar
    28     6     7   ar
