@<TRIPOS>MOLECULE
2zvj_KOM_A_1.pdb
 19 21 0 0 0
SMALL
GASTEIGER

@<TRIPOS>ATOM
      1  O15      -12.9340    2.6220  -21.2850 O.2   302  KOM302     -0.2445
      2  C13      -12.9240    3.8300  -21.5570 C.ar  302  KOM302      0.3460
      3  O14      -14.0720    4.5270  -21.3100 O.2   302  KOM302     -0.4176
      4  C4       -14.1600    5.8660  -21.5980 C.ar  302  KOM302      0.1906
      5  C5       -15.4070    6.6160  -21.3170 C.ar  302  KOM302      0.2684
      6  O9       -16.5000    6.0140  -20.7640 O.3   302  KOM302     -0.2798
      7  C6       -15.4370    8.0570  -21.6590 C.ar  302  KOM302      0.2374
      8  O10      -16.5910    8.7420  -21.4160 O.3   302  KOM302     -0.2830
      9  C1       -14.3050    8.6680  -22.2240 C.ar  302  KOM302      0.0456
     10  C12      -11.7900    4.4290  -22.1090 C.ar  302  KOM302      0.0824
     11  C11      -11.7650    5.7830  -22.4510 C.ar  302  KOM302      0.0095
     12  C3       -12.9980    6.5900  -22.1820 C.ar  302  KOM302      0.0383
     13  C2       -13.1250    7.9550  -22.4740 C.ar  302  KOM302      0.0065
     14  C18      -10.4990    6.3590  -23.0120 C.ar  302  KOM302      0.0003
     15  C24       -9.9390    7.4950  -22.3980 C.ar  302  KOM302      0.0000
     16  C23       -8.7460    8.0620  -22.8680 C.ar  302  KOM302      0.0000
     17  C22       -8.0890    7.4620  -23.9480 C.ar  302  KOM302      0.0000
     18  C21       -8.6320    6.3120  -24.5530 C.ar  302  KOM302      0.0000
     19  C20       -9.8290    5.7530  -24.0840 C.ar  302  KOM302      0.0000
@<TRIPOS>BOND
     1    18    19   ar
     2    18    17   ar
     3    19    14   ar
     4    17    16   ar
     5    14    11    1
     6    14    15   ar
     7    16    15   ar
     8    13     9   ar
     9    13    12   ar
    10    11    12   ar
    11    11    10   ar
    12     9     7   ar
    13    12     4   ar
    14    10     2   ar
    15     7     8    1
    16     7     5   ar
    17     4     5   ar
    18     4     3   ar
    19     2     3   ar
    20     2     1    2
    21     5     6    1
