@<TRIPOS>MOLECULE
2zvj_SAM_A_1.pdb
 27 29 0 0 0
SMALL
GASTEIGER

@<TRIPOS>ATOM
      1  N        -19.9530    6.4900  -15.8520 N.3   301  SAM301     -0.1208
      2  CA       -18.9140    7.1920  -15.0570 C.3   301  SAM301      0.1952
      3  C        -19.1830    8.6920  -15.0240 C.2   301  SAM301      0.3819
      4  O        -19.7860    9.1960  -15.9720 O.co2 301  SAM301     -0.2441
      5  OXT      -18.7740    9.4050  -14.1020 O.co2 301  SAM301     -0.2441
      6  CB       -17.5350    6.9770  -15.6740 C.3   301  SAM301      0.0414
      7  CG       -17.1930    5.4950  -15.7920 C.3   301  SAM301      0.0503
      8  SD       -15.4920    5.2490  -16.3480 S.3   301  SAM301     -0.1761
      9  CE       -15.6920    5.6010  -18.1280 C.3   301  SAM301      0.0590
     10  C5'      -15.5270    3.4460  -16.5840 C.3   301  SAM301      0.0806
     11  C4'      -15.4570    2.6450  -15.2960 C.3   301  SAM301      0.1622
     12  O4'      -15.9350    1.3280  -15.5220 O.3   301  SAM301     -0.3153
     13  C3'      -14.0670    2.5120  -14.6890 C.3   301  SAM301      0.2168
     14  O3'      -14.1180    3.0740  -13.3960 O.3   301  SAM301     -0.2175
     15  C2'      -13.8330    0.9950  -14.6400 C.3   301  SAM301      0.2569
     16  O2'      -13.2100    0.5390  -13.4680 O.3   301  SAM301     -0.2130
     17  C1'      -15.2470    0.4340  -14.6790 C.3   301  SAM301      0.3185
     18  N9       -15.3760   -0.8250  -15.3750 N.pl3 301  SAM301     -0.1439
     19  C8       -14.7530   -1.2010  -16.5480 C.3   301  SAM301      0.3377
     20  N7       -15.2150   -2.4320  -16.8530 N.2   301  SAM301     -0.2095
     21  C5       -16.1090   -2.8490  -15.9220 C.2   301  SAM301      0.2526
     22  C6       -16.8640   -4.0000  -15.7770 C.2   301  SAM301      0.4393
     23  N6       -16.7810   -5.0290  -16.6370 N.pl3 301  SAM301      0.2180
     24  N1       -17.7080   -4.0950  -14.6910 N.2   301  SAM301      0.0021
     25  C2       -17.8020   -3.0700  -13.7650 C.3   301  SAM301      0.5254
     26  N3       -17.0530   -1.9310  -13.9280 N.2   301  SAM301     -0.0055
     27  C4       -16.2270   -1.8280  -14.9860 C.2   301  SAM301      0.3518
@<TRIPOS>BOND
     1     9     8    1
     2    20    19    1
     3    20    21    2
     4    23    22    1
     5    10     8    1
     6    10    11    1
     7    19    18    1
     8     8     7    1
     9     4     3   ar
    10    21    22    1
    11    21    27    1
    12     1     2    1
    13     7     6    1
    14    22    24    2
    15     6     2    1
    16    12    11    1
    17    12    17    1
    18    18    27    1
    19    18    17    1
    20    11    13    1
    21     2     3    1
    22     3     5   ar
    23    27    26    2
    24    24    25    1
    25    13    15    1
    26    13    14    1
    27    17    15    1
    28    15    16    1
    29    26    25    1
