@<TRIPOS>MOLECULE
2zvp_NPO_X_1.pdb
 10 10 0 0 0
SMALL
GASTEIGER

@<TRIPOS>ATOM
      1  C1        49.1320   -9.1580   11.8470 C.ar  1201  NPO1201     0.1431
      2  C2        48.1570   -8.8650   12.8010 C.ar  1201  NPO1201     0.0274
      3  C3        47.7470   -7.5540   12.9920 C.ar  1201  NPO1201     0.0437
      4  C4        48.3150   -6.5330   12.2380 C.ar  1201  NPO1201     0.1958
      5  C5        49.2920   -6.8120   11.2760 C.ar  1201  NPO1201     0.0437
      6  C6        49.7010   -8.1330   11.0800 C.ar  1201  NPO1201     0.0274
      7  OH        47.8860   -5.2680   12.4430 O.3   1201  NPO1201    -0.2866
      8  N1        49.5320  -10.4490   11.6800 N.pl3 1201  NPO1201     0.0577
      9  O2        50.3910  -10.7360   10.8500 O.2   1201  NPO1201    -0.1261
     10  O3        49.0420  -11.3470   12.3580 O.2   1201  NPO1201    -0.1261
@<TRIPOS>BOND
     1     9     8    2
     2     6     5   ar
     3     6     1   ar
     4     5     4   ar
     5     8     1    1
     6     8    10    2
     7     1     2   ar
     8     4     7    1
     9     4     3   ar
    10     2     3   ar
