@<TRIPOS>MOLECULE
2zvp_A3P_X_1.pdb
 27 29 0 0 0
SMALL
GASTEIGER

@<TRIPOS>ATOM
      1  P1        54.8650   -1.0480   21.3630 P.3   1101  A3P1101     0.5327
      2  O1P       55.7970    0.1110   21.1420 O.3   1101  A3P1101    -0.1145
      3  O2P       55.2530   -2.3230   20.6540 O.2   1101  A3P1101    -0.2224
      4  O3P       54.5520   -1.2830   22.8300 O.3   1101  A3P1101    -0.1145
      5  P2        49.1450   -1.5390   16.4220 P.3   1101  A3P1101     0.5327
      6  O4P       47.8730   -1.6790   17.2200 O.3   1101  A3P1101    -0.1145
      7  O5P       49.0560   -0.5270   15.3080 O.2   1101  A3P1101    -0.2224
      8  O6P       49.7960   -2.8330   16.0030 O.3   1101  A3P1101    -0.1145
      9  O5'       50.1640   -0.8410   17.4480 O.3   1101  A3P1101    -0.2675
     10  C5'       50.7410   -1.5790   18.5140 C.3   1101  A3P1101     0.1859
     11  C4'       51.5030   -0.6140   19.4130 C.3   1101  A3P1101     0.1796
     12  O4'       50.5590    0.1880   20.1430 O.3   1101  A3P1101    -0.3136
     13  C3'       52.3450   -1.3470   20.4570 C.3   1101  A3P1101     0.1928
     14  O3'       53.4790   -0.5060   20.7060 O.3   1101  A3P1101    -0.2673
     15  C2'       51.3700   -1.3720   21.6230 C.3   1101  A3P1101     0.2543
     16  O2'       51.9340   -1.6600   22.9130 O.3   1101  A3P1101    -0.2131
     17  C1'       50.7950    0.0340   21.5470 C.3   1101  A3P1101     0.3185
     18  N9        49.5110    0.1850   22.2630 N.pl3 1101  A3P1101    -0.1439
     19  C8        48.4270   -0.6060   22.1980 C.3   1101  A3P1101     0.3377
     20  N7        47.4450   -0.1120   22.9760 N.2   1101  A3P1101    -0.2095
     21  C5        47.9410    1.0100   23.5250 C.2   1101  A3P1101     0.2526
     22  C6        47.4040    2.0070   24.4620 C.2   1101  A3P1101     0.4393
     23  N6        46.1500    1.8740   24.9530 N.pl3 1101  A3P1101     0.2180
     24  N1        48.2130    3.0290   24.8100 N.2   1101  A3P1101     0.0021
     25  C2        49.4590    3.1530   24.3200 C.3   1101  A3P1101     0.5254
     26  N3        49.9810    2.2690   23.4590 N.2   1101  A3P1101    -0.0055
     27  C4        49.2350    1.2060   23.0660 C.2   1101  A3P1101     0.3518
@<TRIPOS>BOND
     1     7     5    2
     2     8     5    1
     3     5     6    1
     4     5     9    1
     5     9    10    1
     6    10    11    1
     7    11    12    1
     8    11    13    1
     9    12    17    1
    10    13    14    1
    11    13    15    1
    12     3     1    2
    13    14     1    1
    14     2     1    1
    15     1     4    1
    16    17    15    1
    17    17    18    1
    18    15    16    1
    19    19    18    1
    20    19    20    1
    21    18    27    1
    22    20    21    2
    23    27    26    2
    24    27    21    1
    25    26    25    1
    26    21    22    1
    27    25    24    1
    28    22    24    2
    29    22    23    1
