@<TRIPOS>MOLECULE
2zvq_A3P_X_1.pdb
 27 29 0 0 0
SMALL
GASTEIGER

@<TRIPOS>ATOM
      1  P1        54.7220   -1.2390   21.4140 P.3   301  A3P301      0.5327
      2  O1P       55.6420   -0.0720   21.2060 O.3   301  A3P301     -0.1145
      3  O2P       55.1260   -2.4980   20.7060 O.2   301  A3P301     -0.2224
      4  O3P       54.3950   -1.4620   22.8850 O.3   301  A3P301     -0.1145
      5  P2        48.9900   -1.7670   16.5070 P.3   301  A3P301      0.5327
      6  O4P       47.7200   -1.8990   17.3170 O.3   301  A3P301     -0.1145
      7  O5P       48.9060   -0.7130   15.4210 O.2   301  A3P301     -0.2224
      8  O6P       49.5850   -3.0700   16.0510 O.3   301  A3P301     -0.1145
      9  O5'       50.0620   -1.0960   17.5100 O.3   301  A3P301     -0.2675
     10  C5'       50.5570   -1.8350   18.6280 C.3   301  A3P301      0.1859
     11  C4'       51.3640   -0.8590   19.4850 C.3   301  A3P301      0.1796
     12  O4'       50.4540   -0.0060   20.1980 O.3   301  A3P301     -0.3136
     13  C3'       52.1990   -1.5820   20.5420 C.3   301  A3P301      0.1928
     14  O3'       53.3330   -0.7300   20.7670 O.3   301  A3P301     -0.2673
     15  C2'       51.2280   -1.5870   21.7070 C.3   301  A3P301      0.2543
     16  O2'       51.7860   -1.8540   23.0060 O.3   301  A3P301     -0.2131
     17  C1'       50.6730   -0.1660   21.5960 C.3   301  A3P301      0.3185
     18  N9        49.3920    0.0060   22.3100 N.pl3 301  A3P301     -0.1439
     19  C8        48.2960   -0.7890   22.2430 C.3   301  A3P301      0.3377
     20  N7        47.3200   -0.2860   23.0330 N.2   301  A3P301     -0.2095
     21  C5        47.8220    0.8320   23.5880 C.2   301  A3P301      0.2526
     22  C6        47.2910    1.8200   24.5310 C.2   301  A3P301      0.4393
     23  N6        46.0360    1.6790   25.0280 N.pl3 301  A3P301      0.2180
     24  N1        48.0930    2.8480   24.8840 N.2   301  A3P301      0.0021
     25  C2        49.3420    2.9780   24.3940 C.3   301  A3P301      0.5254
     26  N3        49.8640    2.0980   23.5190 N.2   301  A3P301     -0.0055
     27  C4        49.1160    1.0310   23.1280 C.2   301  A3P301      0.3518
@<TRIPOS>BOND
     1     7     5    2
     2     8     5    1
     3     5     6    1
     4     5     9    1
     5     9    10    1
     6    10    11    1
     7    11    12    1
     8    11    13    1
     9    12    17    1
    10    13    14    1
    11    13    15    1
    12     3     1    2
    13    14     1    1
    14     2     1    1
    15     1     4    1
    16    17    15    1
    17    17    18    1
    18    15    16    1
    19    19    18    1
    20    19    20    1
    21    18    27    1
    22    20    21    2
    23    27    26    2
    24    27    21    1
    25    26    25    1
    26    21    22    1
    27    25    24    1
    28    22    24    2
    29    22    23    1
