@<TRIPOS>MOLECULE
2zvq_1NP_X_1.pdb
 11 12 0 0 0
SMALL
GASTEIGER

@<TRIPOS>ATOM
      1  O1        47.9610   -5.5570   12.6030 O.2   501  1NP501     -0.2910
      2  C1        48.4360   -6.5880   12.0820 C.2   501  1NP501      0.1774
      3  C8A       48.0410   -7.8560   12.5230 C.ar  501  1NP501      0.0350
      4  C8        47.1320   -7.9880   13.5760 C.ar  501  1NP501      0.0029
      5  C7        46.7470   -9.2580   14.0090 C.ar  501  1NP501      0.0001
      6  C2        49.3380   -6.4740   11.0300 C.3   501  1NP501      0.0951
      7  C3        49.8430   -7.6180   10.4160 C.2   501  1NP501     -0.0180
      8  C4        49.4610   -8.8810   10.8600 C.2   501  1NP501     -0.0040
      9  C4A       48.5530   -8.9990   11.9060 C.ar  501  1NP501      0.0025
     10  C5        48.1800  -10.2670   12.3410 C.ar  501  1NP501      0.0001
     11  C6        47.2670  -10.3990   13.3890 C.ar  501  1NP501      0.0000
@<TRIPOS>BOND
     1     7     8    2
     2     7     6    1
     3     8     9    1
     4     6     2    1
     5     9    10   ar
     6     9     3   ar
     7     2     3    1
     8     2     1    2
     9    10    11   ar
    10     3     4   ar
    11    11     5   ar
    12     4     5   ar
