@<TRIPOS>MOLECULE
2zvt_PTG_A_1.pdb
 23 23 0 0 0
SMALL
GASTEIGER

@<TRIPOS>ATOM
      1  C1        16.2150   69.4350    9.3220 C.3     1  PTG1        0.0000
      2  C2        17.6180   69.2660    8.7780 C.3     1  PTG1        0.0000
      3  C3        17.8950   67.8650    8.2590 C.3     1  PTG1        0.0003
      4  C4        18.6100   66.9400    9.2330 C.3     1  PTG1        0.0047
      5  C5        17.8050   65.6680    9.5050 C.3     1  PTG1        0.0260
      6  C6        18.6080   64.7770   10.4040 C.2     1  PTG1       -0.0261
      7  C7        18.1870   64.2050   11.5100 C.2     1  PTG1       -0.0048
      8  C8        16.7940   64.2490   12.1590 C.2     1  PTG1       -0.0014
      9  C10       16.4510   63.6700   13.3170 C.2     1  PTG1        0.0167
     10  C11       15.0820   63.7130   13.8470 C.2     1  PTG1        0.1875
     11  O12       14.0200   64.1840   13.2350 O.2     1  PTG1       -0.2873
     12  C13       15.1360   63.1350   15.1470 C.2     1  PTG1        0.0159
     13  C14       16.3760   62.7680   15.4120 C.3     1  PTG1        0.0341
     14  C15       17.3410   63.0550   14.3080 C.3     1  PTG1        0.0342
     15  C16       18.4250   63.8900   14.9290 C.3     1  PTG1        0.0305
     16  C17       19.6160   63.2340   15.7110 C.2     1  PTG1       -0.0304
     17  C18       19.9010   63.6530   16.9340 C.2     1  PTG1       -0.0307
     18  C19       19.1590   64.7660   17.7060 C.3     1  PTG1        0.0263
     19  C20       19.1500   64.5700   19.2400 C.3     1  PTG1        0.0165
     20  C21       19.0130   65.9220   19.9570 C.3     1  PTG1        0.1144
     21  C22       20.2400   66.7770   20.0560 C.2     1  PTG1        0.3649
     22  O23       20.6990   66.9410   21.2260 O.co2   1  PTG1       -0.2457
     23  O24       20.7720   67.3090   19.0450 O.co2   1  PTG1       -0.2457
@<TRIPOS>BOND
     1     3     2    1
     2     3     4    1
     3     2     1    1
     4     4     5    1
     5     5     6    1
     6     6     7    2
     7     7     8    1
     8     8     9    2
     9    11    10    1
    10     9    10    1
    11     9    14    1
    12    10    12    2
    13    14    15    1
    14    14    13    1
    15    15    16    1
    16    12    13    1
    17    16    17    2
    18    17    18    1
    19    18    19    1
    20    23    21   ar
    21    19    20    1
    22    20    21    1
    23    21    22   ar
