@<TRIPOS>MOLECULE
2zvu_VEA_A_1.pdb
 43 50 0 0 0
SMALL
GASTEIGER

@<TRIPOS>ATOM
      1  O2D      -15.8130   16.6190   -4.3490 O.co2 300  VEA300      0.0000
      2  CGD      -16.7360   16.5200   -3.5250 C.2   300  VEA300      0.0000
      3  O1D      -16.5320   16.5930   -2.2910 O.co2 300  VEA300      0.0000
      4  CBD      -18.1310   16.2650   -4.0470 C.3   300  VEA300      0.0000
      5  CAD      -18.8300   17.4660   -4.7190 C.3   300  VEA300      0.0000
      6  C3D      -20.2890   17.0150   -4.8750 C.2   300  VEA300      0.0000
      7  C2D      -21.3680   18.0040   -4.5040 C.2   300  VEA300      0.0000
      8  C5D      -21.5420   18.1880   -2.9860 C.3   300  VEA300      0.0000
      9  C4D      -20.7600   16.5480   -6.2290 C.2   300  VEA300      0.0000
     10  CHA      -19.9230   16.0400   -7.1510 C.2   300  VEA300      0.0000
     11  N1       -22.1070   16.6650   -6.3150 N.2   300  VEA300      0.0000
     12  C1D      -22.5260   17.3880   -5.2510 C.2   300  VEA300      0.0000
     13  CHD      -23.8010   17.5620   -4.8590 C.2   300  VEA300      0.0000
     14  C4C      -25.0250   17.0910   -5.5370 C.ar  300  VEA300      0.0000
     15  C3C      -26.4250   17.2490   -5.0890 C.ar  300  VEA300      0.0000
     16  CAC      -26.8030   17.9330   -3.8320 C.2   300  VEA300      0.0000
     17  CBC      -27.6080   18.9640   -3.8650 C.2   300  VEA300      0.0000
     18  C2C      -27.2450   16.6440   -6.0460 C.ar  300  VEA300      0.0000
     19  C5C      -28.7590   16.5280   -6.0550 C.3   300  VEA300      0.0000
     20 FE        -23.2240   15.9560   -7.6830 Fe    300  VEA300      0.0000
     21  N2       -21.5740   15.5280   -8.8680 N.ar  300  VEA300      0.0000
     22  C1A      -20.2880   15.5980   -8.5180 C.ar  300  VEA300      0.0000
     23  N3       -24.9630   16.4300   -6.6850 N.ar  300  VEA300      0.0000
     24  C1C      -26.2340   16.1390   -7.0340 C.ar  300  VEA300      0.0000
     25  O        -26.6090   15.5190   -8.0910 O.3   300  VEA300      0.0000
     26  C4B      -25.8570   15.2910   -9.1160 C.2   300  VEA300      0.0000
     27  C3B      -26.4210   14.8670  -10.4340 C.2   300  VEA300      0.0000
     28  CAB      -27.8380   14.6460  -10.7990 C.2   300  VEA300      0.0000
     29  CBB      -28.7800   14.9000   -9.9220 C.2   300  VEA300      0.0000
     30  C2B      -25.3740   14.6720  -11.3130 C.2   300  VEA300      0.0000
     31  C5B      -25.4070   14.2310  -12.7640 C.3   300  VEA300      0.0000
     32  N4       -24.5100   15.3450   -9.1920 N.am  300  VEA300      0.0000
     33  C1B      -24.1960   14.9920  -10.4630 C.2   300  VEA300      0.0000
     34  CHB      -22.7950   14.9280  -10.9390 C.2   300  VEA300      0.0000
     35  C4A      -21.5550   15.1120  -10.1390 C.ar  300  VEA300      0.0000
     36  C3A      -20.1800   14.9030  -10.6590 C.ar  300  VEA300      0.0000
     37  C5A      -19.8100   14.4470  -12.0470 C.3   300  VEA300      0.0000
     38  C2A      -19.3380   15.2130   -9.6040 C.ar  300  VEA300      0.0000
     39  CAA      -17.8190   15.1900   -9.5680 C.3   300  VEA300      0.0000
     40  CBA      -17.2650   13.9190   -8.9250 C.3   300  VEA300      0.0000
     41  CGA      -15.7450   13.8760   -9.0350 C.2   300  VEA300      0.0000
     42  O1A      -15.0510   14.6920   -8.3610 O.co2 300  VEA300      0.0000
     43  O2A      -15.2220   13.0160   -9.8040 O.co2 300  VEA300      0.0000
@<TRIPOS>BOND
     1    31    30    1
     2    37    36    1
     3    30    33    1
     4    30    27    2
     5    34    33    1
     6    34    35    2
     7    28    27    1
     8    28    29    2
     9    36    35   ar
    10    36    38   ar
    11    33    32    2
    12    27    26    1
    13    35    21   ar
    14    43    41   ar
    15    38    39    1
    16    38    22   ar
    17    39    40    1
    18    32    26   am
    19    32    20    1
    20    26    25    2
    21    41    40    1
    22    41    42   ar
    23    21    22   ar
    24    21    20    1
    25    22    10    2
    26    25    24    1
    27    20    23    1
    28    20    11    1
    29    10     9    1
    30    24    23   ar
    31    24    18   ar
    32    23    14   ar
    33    11     9    2
    34    11    12    1
    35     9     6    1
    36    19    18    1
    37    18    15   ar
    38    14    15   ar
    39    14    13    1
    40    12    13    2
    41    12     7    1
    42    15    16    1
    43     6     5    1
    44     6     7    2
    45     5     4    1
    46     7     8    1
    47     1     2   ar
    48     4     2    1
    49    17    16    2
    50     2     3   ar
