@<TRIPOS>MOLECULE
2zw4_COA_A_1.pdb
 48 50 0 0 0
SMALL
GASTEIGER

@<TRIPOS>ATOM
      1  N1A      -62.6910   94.6850  -46.3670 N.2   401  COA401      0.0021
      2  C2A      -62.2740   94.5910  -45.0840 C.3   401  COA401      0.5254
      3  N3A      -61.9850   95.6800  -44.3650 N.2   401  COA401     -0.0055
      4  C4A      -62.0970   96.9200  -44.8920 C.2   401  COA401      0.3518
      5  C5A      -62.5300   97.0740  -46.2400 C.2   401  COA401      0.2526
      6  C6A      -62.8330   95.8940  -46.9790 C.2   401  COA401      0.4393
      7  N6A      -63.2660   95.9800  -48.2930 N.pl3 401  COA401      0.2180
      8  N7A      -62.5530   98.4020  -46.5070 N.2   401  COA401     -0.2095
      9  C8A      -62.1750   99.0670  -45.4520 C.3   401  COA401      0.3377
     10  N9A      -61.8840   98.2060  -44.4260 N.pl3 401  COA401     -0.1439
     11  C1B      -61.4320   98.6250  -43.0870 C.3   401  COA401      0.3185
     12  C2B      -61.7560   97.6550  -41.8930 C.3   401  COA401      0.2543
     13  O2B      -63.1480   97.6720  -41.5230 O.3   401  COA401     -0.2131
     14  C3B      -60.8050   98.2510  -40.8440 C.3   401  COA401      0.1928
     15  O3B      -61.3980   99.5300  -40.4470 O.3   401  COA401     -0.2673
     16  P3B      -60.8670   99.9410  -38.9680 P.3   401  COA401      0.5327
     17  O7A      -60.3030  101.3150  -39.0220 O.2   401  COA401     -0.2224
     18  O8A      -62.1030   99.9070  -37.9440 O.3   401  COA401     -0.1145
     19  O9A      -59.7170   98.9120  -38.4590 O.3   401  COA401     -0.1145
     20  C4B      -59.5390   98.4490  -41.6790 C.3   401  COA401      0.1795
     21  O4B      -59.9880   98.7850  -43.0240 O.3   401  COA401     -0.3136
     22  C5B      -58.6400   97.1920  -41.7710 C.3   401  COA401      0.1812
     23  O5B      -57.5500   97.5820  -42.6380 O.3   401  COA401     -0.3112
     24  P1A      -56.5710   96.2920  -42.8660 P.3   401  COA401      0.2189
     25  O1A      -55.6750   96.4400  -44.0670 O.2   401  COA401     -0.5170
     26  O2A      -57.0500   94.8720  -42.4430 O.3   401  COA401     -0.4371
     27  O3A      -55.4640   96.5440  -41.6570 O.3   401  COA401     -0.2703
     28  P2A      -55.1040   98.1660  -41.5320 P.3   401  COA401      0.2188
     29  O4A      -55.1160   98.8090  -42.8730 O.2   401  COA401     -0.5170
     30  O5A      -56.1740   98.8950  -40.5920 O.3   401  COA401     -0.4371
     31  O6A      -53.6420   98.3270  -40.8660 O.3   401  COA401     -0.3138
     32  CBP      -51.5010   97.0160  -40.9110 C.3   401  COA401      0.0645
     33  CCP      -52.7060   97.6120  -41.7010 C.3   401  COA401      0.1519
     34  CDP      -50.3030   96.4260  -41.6690 C.3   401  COA401      0.0056
     35  CEP      -51.3590   97.2230  -39.3860 C.3   401  COA401      0.0056
     36  CAP      -50.8860   98.5450  -41.1170 C.3   401  COA401      0.2312
     37  OAP      -51.4590   99.5290  -40.2270 O.3   401  COA401     -0.2131
     38  C9P      -49.3510   98.7680  -40.9870 C.2   401  COA401      0.2719
     39  O9P      -48.7070   98.9880  -42.0000 O.2   401  COA401     -0.2706
     40  N8P      -48.7420   98.7860  -39.7560 N.am  401  COA401     -0.2028
     41  C7P      -47.2980   99.0730  -39.6040 C.3   401  COA401      0.1248
     42  C6P      -46.4620   97.8350  -39.9970 C.3   401  COA401      0.1102
     43  C5P      -46.3450   96.8930  -38.8220 C.2   401  COA401      0.2432
     44  O5P      -46.1300   97.3500  -37.7140 O.2   401  COA401     -0.2733
     45  N4P      -46.4850   95.5470  -39.0100 N.am  401  COA401     -0.2044
     46  C3P      -46.3900   94.5780  -37.8830 C.3   401  COA401      0.1276
     47  C2P      -45.3450   93.4880  -38.1860 C.3   401  COA401      0.0920
     48  S1P      -46.0200   91.8290  -37.8320 S.3   401  COA401     -0.0802
@<TRIPOS>BOND
     1     7     6    1
     2     6     1    2
     3     6     5    1
     4     8     5    2
     5     8     9    1
     6     1     2    1
     7     5     4    1
     8     9    10    1
     9     2     3    1
    10     4    10    1
    11     4     3    2
    12    10    11    1
    13    25    24    2
    14    11    21    1
    15    11    12    1
    16    21    20    1
    17    29    28    2
    18    24    23    1
    19    24    26    1
    20    24    27    1
    21    23    22    1
    22    39    38    2
    23    12    13    1
    24    12    14    1
    25    22    20    1
    26    33    32    1
    27    33    31    1
    28    20    14    1
    29    34    32    1
    30    27    28    1
    31    28    31    1
    32    28    30    1
    33    36    38    1
    34    36    32    1
    35    36    37    1
    36    38    40   am
    37    32    35    1
    38    14    15    1
    39    15    16    1
    40    42    41    1
    41    42    43    1
    42    40    41    1
    43    17    16    2
    44    45    43   am
    45    45    46    1
    46    16    19    1
    47    16    18    1
    48    43    44    2
    49    47    46    1
    50    47    48    1
