@<TRIPOS>MOLECULE
2zw5_COA_A_1.pdb
 48 50 0 0 0
SMALL
GASTEIGER

@<TRIPOS>ATOM
      1  N1A       42.7400   33.2730   96.5340 N.2   402  COA402      0.0021
      2  C2A       44.0110   33.0220   96.8760 C.3   402  COA402      0.5254
      3  N3A       44.8850   34.0110   97.0950 N.2   402  COA402     -0.0055
      4  C4A       44.5190   35.3170   96.9790 C.2   402  COA402      0.3518
      5  C5A       43.1790   35.6340   96.6190 C.2   402  COA402      0.2526
      6  C6A       42.2770   34.5390   96.3920 C.2   402  COA402      0.4393
      7  N6A       40.9560   34.7660   96.0330 N.pl3 402  COA402      0.2180
      8  N7A       43.0900   36.9910   96.5750 N.2   402  COA402     -0.2095
      9  C8A       44.2480   37.5190   96.8730 C.3   402  COA402      0.3377
     10  N9A       45.1710   36.5400   97.1300 N.pl3 402  COA402     -0.1439
     11  C1B       46.5920   36.7840   97.4950 C.3   402  COA402      0.3185
     12  C2B       47.2270   35.6680   98.4010 C.3   402  COA402      0.2543
     13  O2B       47.7710   36.2050   99.6200 O.3   402  COA402     -0.2131
     14  C3B       48.2990   34.9640   97.4950 C.3   402  COA402      0.1928
     15  O3B       49.6780   34.9010   98.0700 O.3   402  COA402     -0.2673
     16  P3B       50.5070   36.3350   97.8270 P.3   402  COA402      0.5327
     17  O7A       49.6220   37.5030   98.0810 O.3   402  COA402     -0.1145
     18  O8A       51.7600   36.3950   98.8400 O.3   402  COA402     -0.1145
     19  O9A       51.0640   36.4010   96.3070 O.2   402  COA402     -0.2224
     20  C4B       48.1590   35.6460   96.1020 C.3   402  COA402      0.1795
     21  O4B       47.4270   36.8800   96.2960 O.3   402  COA402     -0.3136
     22  C5B       47.3990   34.7250   95.1120 C.3   402  COA402      0.1812
     23  O5B       48.2910   33.8320   94.4340 O.3   402  COA402     -0.3112
     24  P1A       48.0470   34.0260   92.8220 P.3   402  COA402      0.2189
     25  O1A       47.9940   35.4760   92.3820 O.3   402  COA402     -0.4371
     26  O2A       47.2430   32.9440   92.0320 O.2   402  COA402     -0.5170
     27  O3A       49.5620   33.6360   92.3060 O.3   402  COA402     -0.2703
     28  P2A       49.7540   34.0970   90.7310 P.3   402  COA402      0.2188
     29  O4A       48.4350   34.4230   90.1180 O.2   402  COA402     -0.5170
     30  O5A       50.7080   35.3970   90.6680 O.3   402  COA402     -0.4371
     31  O6A       50.4360   32.8640   89.9040 O.3   402  COA402     -0.3138
     32  CBP       52.0330   32.5290   88.0810 C.3   402  COA402      0.0645
     33  CCP       51.6860   33.3290   89.3560 C.3   402  COA402      0.1519
     34  CDP       52.0840   31.0280   88.4410 C.3   402  COA402      0.0056
     35  CEP       50.9370   32.7740   87.0300 C.3   402  COA402      0.0056
     36  CAP       53.4220   33.0140   87.5470 C.3   402  COA402      0.2312
     37  OAP       54.4620   32.6460   88.4690 O.3   402  COA402     -0.2131
     38  C9P       53.7640   32.4350   86.1690 C.2   402  COA402      0.2719
     39  O9P       53.3840   33.0080   85.1610 O.2   402  COA402     -0.2706
     40  N8P       54.4800   31.2720   86.0900 N.am  402  COA402     -0.2028
     41  C7P       54.8290   30.6430   84.8010 C.3   402  COA402      0.1248
     42  C6P       53.8790   29.4560   84.5430 C.3   402  COA402      0.1102
     43  C5P       54.3850   28.1820   85.1910 C.2   402  COA402      0.2432
     44  O5P       55.5640   28.0470   85.4140 O.2   402  COA402     -0.2733
     45  N4P       53.5120   27.1850   85.4990 N.am  402  COA402     -0.2044
     46  C3P       53.9670   25.9110   86.1050 C.3   402  COA402      0.1276
     47  C2P       53.9330   24.7790   85.0690 C.3   402  COA402      0.0920
     48  S1P       52.2180   24.4390   84.5730 S.3   402  COA402     -0.0802
@<TRIPOS>BOND
     1    42    41    1
     2    42    43    1
     3    48    47    1
     4    41    40    1
     5    47    46    1
     6    39    38    2
     7    43    44    2
     8    43    45   am
     9    45    46    1
    10    40    38   am
    11    38    36    1
    12    35    32    1
    13    36    32    1
    14    36    37    1
    15    32    34    1
    16    32    33    1
    17    33    31    1
    18    31    28    1
    19    29    28    2
    20    30    28    1
    21    28    27    1
    22    26    24    2
    23    27    24    1
    24    25    24    1
    25    24    23    1
    26    23    22    1
    27    22    20    1
    28     7     6    1
    29    20    21    1
    30    20    14    1
    31    21    11    1
    32    19    16    2
    33     6     1    2
    34     6     5    1
    35     1     2    1
    36     8     5    2
    37     8     9    1
    38     5     4    1
    39     9    10    1
    40     2     3    1
    41     4     3    2
    42     4    10    1
    43    10    11    1
    44    11    12    1
    45    14    15    1
    46    14    12    1
    47    16    15    1
    48    16    17    1
    49    16    18    1
    50    12    13    1
