@<TRIPOS>MOLECULE
2zw7_COA_A_1.pdb
 48 50 0 0 0
SMALL
GASTEIGER

@<TRIPOS>ATOM
      1  N1A       26.9610   63.4940   43.5040 N.2   401  COA401      0.0021
      2  C2A       26.6740   63.1200   44.7580 C.3   401  COA401      0.5254
      3  N3A       27.5220   62.3840   45.4860 N.2   401  COA401     -0.0055
      4  C4A       28.7090   61.9870   44.9800 C.2   401  COA401      0.3518
      5  C5A       29.0530   62.3650   43.6520 C.2   401  COA401      0.2526
      6  C6A       28.1180   63.1430   42.9170 C.2   401  COA401      0.4393
      7  N6A       28.3960   63.5360   41.6290 N.pl3 401  COA401      0.2180
      8  N7A       30.2690   61.8540   43.3930 N.2   401  COA401     -0.2095
      9  C8A       30.6970   61.2020   44.4340 C.3   401  COA401      0.3377
     10  N9A       29.7830   61.2450   45.4450 N.pl3 401  COA401     -0.1439
     11  C1B       29.9590   60.5900   46.7650 C.3   401  COA401      0.3185
     12  C2B       29.4410   61.3660   48.0150 C.3   401  COA401      0.2543
     13  O2B       30.4240   62.3110   48.4730 O.3   401  COA401     -0.2131
     14  C3B       29.1950   60.2000   49.0040 C.3   401  COA401      0.1928
     15  O3B       30.4910   59.8610   49.6090 O.3   401  COA401     -0.2673
     16  P3B       30.3180   59.7560   51.2520 P.3   401  COA401      0.5327
     17  O7A       29.0340   60.3370   51.7870 O.3   401  COA401     -0.1145
     18  O8A       31.5990   59.7310   52.1610 O.3   401  COA401     -0.1145
     19  O9A       29.9450   58.1840   51.3600 O.2   401  COA401     -0.2224
     20  C4B       28.7010   59.0700   48.0850 C.3   401  COA401      0.1795
     21  O4B       29.2620   59.3210   46.7870 O.3   401  COA401     -0.3136
     22  C5B       27.1560   58.9710   47.9240 C.3   401  COA401      0.1812
     23  O5B       26.8960   57.9300   46.9320 O.3   401  COA401     -0.3112
     24  P1A       25.2940   57.5230   46.9960 P.3   401  COA401      0.2189
     25  O1A       24.9290   56.3630   46.1200 O.2   401  COA401     -0.5170
     26  O2A       24.2240   58.6110   47.2790 O.3   401  COA401     -0.4371
     27  O3A       25.2750   56.7890   48.4470 O.3   401  COA401     -0.2703
     28  P2A       26.1780   55.3990   48.3600 P.3   401  COA401      0.2188
     29  O4A       26.9220   55.0910   49.6430 O.3   401  COA401     -0.4371
     30  O5A       26.7970   54.9420   46.9950 O.2   401  COA401     -0.5170
     31  O6A       24.9260   54.3170   48.4580 O.3   401  COA401     -0.3138
     32  CBP       24.2930   52.0000   49.0700 C.3   401  COA401      0.0645
     33  CCP       25.4100   53.0910   49.0330 C.3   401  COA401      0.1519
     34  CDP       23.3820   52.2060   50.3140 C.3   401  COA401      0.0056
     35  CEP       23.4290   52.0870   47.8010 C.3   401  COA401      0.0056
     36  CAP       25.0160   50.6340   49.1180 C.3   401  COA401      0.2312
     37  OAP       25.8030   50.5620   50.3080 O.3   401  COA401     -0.2131
     38  C9P       24.0670   49.4250   49.0780 C.2   401  COA401      0.2719
     39  O9P       23.6590   49.0200   48.0050 O.2   401  COA401     -0.2706
     40  N8P       23.7130   48.7760   50.2390 N.am  401  COA401     -0.2028
     41  C7P       22.8330   47.5680   50.2530 C.3   401  COA401      0.1248
     42  C6P       21.3700   47.9060   49.8950 C.3   401  COA401      0.1102
     43  C5P       20.7600   48.8800   50.8920 C.2   401  COA401      0.2432
     44  O5P       21.4560   49.7350   51.4040 O.2   401  COA401     -0.2733
     45  N4P       19.4330   48.8170   51.1900 N.am  401  COA401     -0.2044
     46  C3P       18.8350   49.7930   52.1300 C.3   401  COA401      0.1276
     47  C2P       17.4210   49.3870   52.5450 C.3   401  COA401      0.0920
     48  S1P       16.1810   50.3010   51.5690 S.3   401  COA401     -0.0802
@<TRIPOS>BOND
     1     7     6    1
     2     6     1    2
     3     6     5    1
     4     8     5    2
     5     8     9    1
     6     1     2    1
     7     5     4    1
     8     9    10    1
     9     2     3    1
    10     4    10    1
    11     4     3    2
    12    10    11    1
    13    25    24    2
    14    11    21    1
    15    11    12    1
    16    21    20    1
    17    23    24    1
    18    23    22    1
    19    30    28    2
    20    24    26    1
    21    24    27    1
    22    35    32    1
    23    22    20    1
    24    39    38    2
    25    12    13    1
    26    12    14    1
    27    20    14    1
    28    28    27    1
    29    28    31    1
    30    28    29    1
    31    31    33    1
    32    14    15    1
    33    33    32    1
    34    32    36    1
    35    32    34    1
    36    38    36    1
    37    38    40   am
    38    36    37    1
    39    15    16    1
    40    42    41    1
    41    42    43    1
    42    40    41    1
    43    43    45   am
    44    43    44    2
    45    45    46    1
    46    16    19    2
    47    16    17    1
    48    16    18    1
    49    48    47    1
    50    46    47    1
