@<TRIPOS>MOLECULE
2zw9_SAM_A_1.pdb
 27 29 0 0 0
SMALL
GASTEIGER

@<TRIPOS>ATOM
      1  N         32.2100  -11.1700  -26.1430 N.3   801  SAM801     -0.1208
      2  CA        33.3120  -12.0210  -26.5700 C.3   801  SAM801      0.1952
      3  C         33.3040  -12.2520  -28.0780 C.2   801  SAM801      0.3819
      4  O         32.2720  -12.1230  -28.7320 O.co2 801  SAM801     -0.2441
      5  OXT       34.3270  -12.5880  -28.6800 O.co2 801  SAM801     -0.2441
      6  CB        33.2490  -13.3780  -25.8820 C.3   801  SAM801      0.0414
      7  CG        32.1340  -14.2800  -26.3950 C.3   801  SAM801      0.0503
      8  SD        32.3940  -16.0040  -25.9180 S.3   801  SAM801     -0.1761
      9  CE        31.0230  -16.8050  -26.8010 C.3   801  SAM801      0.0590
     10  C5'       31.6850  -15.9410  -24.2560 C.3   801  SAM801      0.0806
     11  C4'       32.7300  -15.5580  -23.2220 C.3   801  SAM801      0.1622
     12  O4'       32.1100  -15.3040  -21.9750 O.3   801  SAM801     -0.3153
     13  C3'       33.7350  -16.6850  -23.0250 C.3   801  SAM801      0.2168
     14  O3'       35.0440  -16.2120  -23.2610 O.3   801  SAM801     -0.2175
     15  C2'       33.5710  -17.0930  -21.5750 C.3   801  SAM801      0.2569
     16  O2'       34.8050  -17.3500  -20.9550 O.3   801  SAM801     -0.2130
     17  C1'       32.8910  -15.8880  -20.9490 C.3   801  SAM801      0.3185
     18  N9        32.0960  -16.2550  -19.7620 N.pl3 801  SAM801     -0.1439
     19  C8        30.8610  -16.8480  -19.7350 C.3   801  SAM801      0.3377
     20  N7        30.4950  -17.0110  -18.4430 N.2   801  SAM801     -0.2095
     21  C5        31.4810  -16.5330  -17.6480 C.2   801  SAM801      0.2526
     22  C6        31.6220  -16.4550  -16.2670 C.2   801  SAM801      0.4393
     23  N6        30.6590  -16.9050  -15.4730 N.pl3 801  SAM801      0.2180
     24  N1        32.7650  -15.9040  -15.7280 N.2   801  SAM801      0.0021
     25  C2        33.7630  -15.4320  -16.5600 C.3   801  SAM801      0.5254
     26  N3        33.6130  -15.5160  -17.9300 N.2   801  SAM801     -0.0055
     27  C4        32.4920  -16.0540  -18.4660 C.2   801  SAM801      0.3518
@<TRIPOS>BOND
     1     4     3   ar
     2     5     3   ar
     3     3     2    1
     4     9     8    1
     5     2     1    1
     6     2     6    1
     7     7     8    1
     8     7     6    1
     9     8    10    1
    10    10    11    1
    11    14    13    1
    12    11    13    1
    13    11    12    1
    14    13    15    1
    15    12    17    1
    16    15    16    1
    17    15    17    1
    18    17    18    1
    19    18    19    1
    20    18    27    1
    21    19    20    1
    22    27    26    2
    23    27    21    1
    24    20    21    2
    25    26    25    1
    26    21    22    1
    27    25    24    1
    28    22    24    2
    29    22    23    1
