@<TRIPOS>MOLECULE
2zwa_SAH_A_1.pdb
 26 28 0 0 0
SMALL
GASTEIGER

@<TRIPOS>ATOM
      1  N          4.8390   -9.5710   96.5260 N.3   801  SAH801     -0.1208
      2  CA         5.6860  -10.1180   95.4680 C.3   801  SAH801      0.1952
      3  CB         6.0200  -11.6010   95.7240 C.3   801  SAH801      0.0422
      4  CG         4.8240  -12.5520   95.8160 C.3   801  SAH801      0.0597
      5  SD         5.3170  -14.2570   96.2330 S.3   801  SAH801     -0.1375
      6  C          5.0240   -9.9800   94.1090 C.2   801  SAH801      0.3819
      7  O          3.8060   -9.8230   94.0230 O.co2 801  SAH801     -0.2441
      8  OXT        5.7090  -10.0240   93.0770 O.co2 801  SAH801     -0.2441
      9  C5'        4.9490  -14.1380   98.0060 C.3   801  SAH801      0.0899
     10  C4'        6.0770  -13.5590   98.8450 C.3   801  SAH801      0.1630
     11  O4'        5.5680  -13.3940  100.1800 O.3   801  SAH801     -0.3153
     12  C3'        7.2600  -14.5250   98.9390 C.3   801  SAH801      0.2168
     13  O3'        8.4670  -13.9190   98.5090 O.3   801  SAH801     -0.2175
     14  C2'        7.2730  -14.9020  100.4170 C.3   801  SAH801      0.2569
     15  O2'        8.5570  -15.2300  100.9150 O.3   801  SAH801     -0.2130
     16  C1'        6.6170  -13.6780  101.0630 C.3   801  SAH801      0.3185
     17  N9         6.1650  -14.0970  102.3920 N.pl3 801  SAH801     -0.1439
     18  C8         5.1520  -14.9600  102.6930 C.3   801  SAH801      0.3377
     19  N7         5.1350  -15.1190  104.0350 N.2   801  SAH801     -0.2095
     20  C5         6.1400  -14.3890  104.5790 C.2   801  SAH801      0.2526
     21  C6         6.5890  -14.1870  105.8810 C.2   801  SAH801      0.4393
     22  N6         5.9950  -14.8020  106.9180 N.pl3 801  SAH801      0.2180
     23  N1         7.6650  -13.3550  106.1040 N.2   801  SAH801      0.0021
     24  C2         8.3030  -12.7230  105.0580 C.3   801  SAH801      0.5254
     25  N3         7.8560  -12.9240  103.7710 N.2   801  SAH801     -0.0055
     26  C4         6.7950  -13.7370  103.5420 C.2   801  SAH801      0.3518
@<TRIPOS>BOND
     1     8     6   ar
     2     7     6   ar
     3     6     2    1
     4     2     3    1
     5     2     1    1
     6     3     4    1
     7     4     5    1
     8     5     9    1
     9     9    10    1
    10    13    12    1
    11    10    12    1
    12    10    11    1
    13    12    14    1
    14    11    16    1
    15    14    15    1
    16    14    16    1
    17    16    17    1
    18    17    18    1
    19    17    26    1
    20    18    19    1
    21    26    25    2
    22    26    20    1
    23    25    24    1
    24    19    20    2
    25    20    21    1
    26    24    23    1
    27    21    23    2
    28    21    22    1
