@<TRIPOS>MOLECULE
2zwh_ADP_A_1.pdb
 27 29 0 0 0
SMALL
GASTEIGER

@<TRIPOS>ATOM
      1  PB        17.2270    1.0690    1.2490 P.3   376  ADP376      0.5373
      2  O1B       18.0860    1.8530    0.3450 O.3   376  ADP376     -0.1143
      3  O2B       16.1660    1.8430    1.8660 O.3   376  ADP376     -0.1143
      4  O3B       16.5360    0.4060   -0.0660 O.2   376  ADP376     -0.2221
      5  PA        19.0060   -1.2680    2.3320 P.3   376  ADP376      0.2231
      6  O1A       19.5030   -1.6930    1.0080 O.2   376  ADP376     -0.5169
      7  O2A       20.1300   -1.0520    3.2540 O.3   376  ADP376     -0.4370
      8  O3A       18.2750    0.1810    2.1010 O.3   376  ADP376     -0.2261
      9  O5'       18.0650   -2.3440    3.0180 O.3   376  ADP376     -0.3111
     10  C5'       17.4490   -2.1020    4.3220 C.3   376  ADP376      0.1813
     11  C4'       16.2640   -3.0560    4.5000 C.3   376  ADP376      0.1821
     12  O4'       16.7300   -4.3690    4.2200 O.3   376  ADP376     -0.3135
     13  C3'       15.5330   -3.1620    5.8390 C.3   376  ADP376      0.2184
     14  O3'       14.2130   -3.7220    5.7630 O.3   376  ADP376     -0.2174
     15  C2'       16.3860   -4.2270    6.4960 C.3   376  ADP376      0.2570
     16  O2'       15.6510   -4.8900    7.5310 O.3   376  ADP376     -0.2130
     17  C1'       16.4950   -5.1830    5.3310 C.3   376  ADP376      0.3186
     18  N9        17.6110   -6.1300    5.4280 N.pl3 376  ADP376     -0.1439
     19  C8        18.9210   -5.8780    5.6930 C.3   376  ADP376      0.3377
     20  N7        19.6960   -6.9140    5.5110 N.2   376  ADP376     -0.2095
     21  C5        18.7860   -7.9730    5.3900 C.2   376  ADP376      0.2526
     22  C6        18.9720   -9.3870    5.3300 C.2   376  ADP376      0.4393
     23  N6        20.1060  -10.0120    5.6410 N.pl3 376  ADP376      0.2180
     24  N1        17.8550  -10.1260    5.0240 N.2   376  ADP376      0.0021
     25  C2        16.6660   -9.4630    4.8750 C.3   376  ADP376      0.5254
     26  N3        16.3570   -8.1900    5.1440 N.2   376  ADP376     -0.0055
     27  C4        17.5050   -7.4820    5.2960 C.2   376  ADP376      0.3518
@<TRIPOS>BOND
     1     4     1    2
     2     2     1    1
     3     6     5    2
     4     1     3    1
     5     1     8    1
     6     8     5    1
     7     5     9    1
     8     5     7    1
     9     9    10    1
    10    12    11    1
    11    12    17    1
    12    10    11    1
    13    11    13    1
    14    25    24    1
    15    25    26    1
    16    24    22    2
    17    26    27    2
    18    27    21    1
    19    27    18    1
    20    22    21    1
    21    22    23    1
    22    17    18    1
    23    17    15    1
    24    21    20    2
    25    18    19    1
    26    20    19    1
    27    14    13    1
    28    13    15    1
    29    15    16    1
