@<TRIPOS>MOLECULE
2zwi_C5P_A_1.pdb
 21 22 0 0 0
SMALL
GASTEIGER

@<TRIPOS>ATOM
      1  O3P      -21.3130   38.7340    7.4260 O.3     1  C5P1       -0.1145
      2  P        -22.0920   37.4800    7.3150 P.3     1  C5P1        0.5327
      3  O1P      -21.1730   36.4100    6.8090 O.2     1  C5P1       -0.2224
      4  O2P      -22.8030   37.2260    8.6170 O.3     1  C5P1       -0.1145
      5  O5'      -23.1800   37.7560    6.1770 O.3     1  C5P1       -0.2675
      6  C5'      -24.2850   36.8840    5.9550 C.3     1  C5P1        0.1859
      7  C4'      -25.2660   37.6120    5.0500 C.3     1  C5P1        0.1801
      8  O4'      -25.7000   38.8400    5.6650 O.3     1  C5P1       -0.3320
      9  C3'      -24.6130   38.0570    3.7490 C.3     1  C5P1        0.2158
     10  O3'      -24.6460   37.0290    2.7670 O.3     1  C5P1       -0.2175
     11  C2'      -25.4680   39.2250    3.3320 C.3     1  C5P1        0.2319
     12  O2'      -26.7410   38.7690    2.8620 O.3     1  C5P1       -0.2157
     13  C1'      -25.7890   39.8710    4.6630 C.3     1  C5P1        0.2400
     14  N1       -24.9680   41.0360    5.0190 N.am    1  C5P1       -0.1778
     15  C2       -25.2960   42.2820    4.4440 C.1     1  C5P1        0.2756
     16  N3       -24.6050   43.3890    4.7800 N.2     1  C5P1       -0.3024
     17  C4       -23.5810   43.3190    5.6560 C.2     1  C5P1        0.2346
     18  C5       -23.2320   42.1090    6.2440 C.2     1  C5P1        0.0687
     19  C6       -23.9570   40.9580    5.9050 C.2     1  C5P1        0.0836
     20  O2       -26.2170   42.3660    3.6030 O.2     1  C5P1       -0.1925
     21  N4       -22.9210   44.4580    5.9720 N.pl3   1  C5P1       -0.0921
@<TRIPOS>BOND
     1    10     9    1
     2    12    11    1
     3    11     9    1
     4    11    13    1
     5    20    15    2
     6     9     7    1
     7    15    16    2
     8    15    14   am
     9    13    14    1
    10    13     8    1
    11    16    17    2
    12    14    19    1
    13     7     8    1
    14     7     6    1
    15    17    21    1
    16    17    18    1
    17    19    18    2
    18     6     5    1
    19     5     2    1
    20     3     2    2
    21     2     1    1
    22     2     4    1
