@<TRIPOS>MOLECULE
2zwj_HEM_A_1.pdb
 43 50 0 0 0
SMALL
GASTEIGER

@<TRIPOS>ATOM
      1  CHA        4.9200    2.3480   -0.8140 C.2   153  HEM153      0.0000
      2  CHB        9.2180    3.5220    1.1060 C.2   153  HEM153      0.0000
      3  CHC        9.5800    7.2920   -1.9200 C.2   153  HEM153      0.0000
      4  CHD        5.1220    6.3710   -3.5700 C.2   153  HEM153      0.0000
      5  C1A        6.0310    2.3650    0.0030 C.2   153  HEM153      0.0000
      6  C2A        6.2700    1.4920    1.1340 C.2   153  HEM153      0.0000
      7  C3A        7.4550    1.8180    1.6660 C.2   153  HEM153      0.0000
      8  C4A        8.0120    2.9030    0.8830 C.2   153  HEM153      0.0000
      9  CMA        8.1370    1.1610    2.8880 C.3   153  HEM153      0.0000
     10  CAA        5.2920    0.4040    1.6480 C.3   153  HEM153      0.0000
     11  CBA        5.2470   -0.8080    0.7390 C.3   153  HEM153      0.0000
     12  CGA        3.8630   -0.9530    0.1540 C.2   153  HEM153      0.0000
     13  O1A        2.8940   -1.2710    0.8980 O.co2 153  HEM153      0.0000
     14  O2A        3.7350   -0.7600   -1.0730 O.co2 153  HEM153      0.0000
     15  C1B        9.7080    4.6250    0.4440 C.ar  153  HEM153      0.0000
     16  C2B       11.0050    5.2440    0.6470 C.ar  153  HEM153      0.0000
     17  C3B       11.1110    6.2770   -0.1950 C.ar  153  HEM153      0.0000
     18  C4B        9.8840    6.3550   -0.9600 C.ar  153  HEM153      0.0000
     19  CMB       12.0820    4.7840    1.6540 C.3   153  HEM153      0.0000
     20  CAB       12.3140    7.2350   -0.3420 C.2   153  HEM153      0.0000
     21  CBB       12.9260    7.3360   -1.5300 C.2   153  HEM153      0.0000
     22  C1C        8.3590    7.4430   -2.5370 C.2   153  HEM153      0.0000
     23  C2C        7.8960    8.6140   -3.2660 C.2   153  HEM153      0.0000
     24  C3C        6.6550    8.3530   -3.7220 C.2   153  HEM153      0.0000
     25  C4C        6.3120    7.0100   -3.3000 C.2   153  HEM153      0.0000
     26  CMC        8.7300    9.9060   -3.4430 C.3   153  HEM153      0.0000
     27  CAC        5.6960    9.2450   -4.5590 C.2   153  HEM153      0.0000
     28  CBC        5.9580   10.5160   -4.8930 C.2   153  HEM153      0.0000
     29  C1D        4.6710    5.1840   -3.0390 C.ar  153  HEM153      0.0000
     30  C2D        3.4470    4.5180   -3.4300 C.ar  153  HEM153      0.0000
     31  C3D        3.3690    3.2460   -2.5650 C.ar  153  HEM153      0.0000
     32  C4D        4.5690    3.2920   -1.7480 C.ar  153  HEM153      0.0000
     33  CMD        2.4500    5.0250   -4.4940 C.3   153  HEM153      0.0000
     34  CAD        2.2940    2.1170   -2.5290 C.3   153  HEM153      0.0000
     35  CBD        0.8510    2.6280   -2.5170 C.3   153  HEM153      0.0000
     36  CGD        0.5410    3.3020   -1.2090 C.2   153  HEM153      0.0000
     37  O1D        1.1600    4.3500   -0.9210 O.co2 153  HEM153      0.0000
     38  O2D       -0.3460    2.8070   -0.4580 O.co2 153  HEM153      0.0000
     39  NA         7.1180    3.2060   -0.1230 N.2   153  HEM153      0.0000
     40  NB         9.0550    5.3290   -0.5460 N.ar  153  HEM153      0.0000
     41  NC         7.3690    6.4870   -2.5810 N.2   153  HEM153      0.0000
     42  ND         5.3030    4.4340   -2.0530 N.ar  153  HEM153      0.0000
     43 FE          7.2320    4.8400   -1.3730 Fe    153  HEM153      0.0000
@<TRIPOS>BOND
     1    28    27    2
     2    27    24    1
     3    33    30    1
     4    24    25    1
     5    24    23    2
     6     4    25    1
     7     4    29    2
     8    26    23    1
     9    30    29   ar
    10    30    31   ar
    11    25    41    2
    12    23    22    1
    13    29    42   ar
    14    41    22    1
    15    41    43    1
    16    31    34    1
    17    31    32   ar
    18    22     3    2
    19    34    35    1
    20    35    36    1
    21    42    32   ar
    22    42    43    1
    23     3    18    1
    24    32     1    2
    25    21    20    2
    26    43    40    1
    27    43    39    1
    28    36    37   ar
    29    36    38   ar
    30    14    12   ar
    31    18    40   ar
    32    18    17   ar
    33     1     5    1
    34    40    15   ar
    35    20    17    1
    36    17    16   ar
    37    39     5    2
    38    39     8    1
    39     5     6    1
    40    12    11    1
    41    12    13   ar
    42    15    16   ar
    43    15     2    1
    44    16    19    1
    45    11    10    1
    46     8     2    2
    47     8     7    1
    48     6    10    1
    49     6     7    2
    50     7     9    1
