@<TRIPOS>MOLECULE
2zwl_BGC_L_1.pdb
 11 11 0 0 0
SMALL
GASTEIGER

@<TRIPOS>ATOM
      1  C2        38.1110   36.1010   60.5150 C.3   1052  BGC1052     0.2141
      2  C3        38.4770   34.8010   59.7880 C.3   1052  BGC1052     0.2173
      3  C4        39.1000   33.8080   60.7770 C.3   1052  BGC1052     0.2142
      4  C5        38.1800   33.6150   62.0040 C.3   1052  BGC1052     0.1810
      5  C6        38.8490   32.6880   63.0240 C.3   1052  BGC1052     0.2141
      6  C1        37.1970   35.7760   61.7070 C.3   1052  BGC1052     0.1777
      7  O2        37.4380   36.9880   59.6140 O.3   1052  BGC1052    -0.2176
      8  O3        39.4060   35.0790   58.7340 O.3   1052  BGC1052    -0.2175
      9  O4        39.3020   32.5490   60.1230 O.3   1052  BGC1052    -0.2176
     10  O5        37.8510   34.8740   62.6160 O.3   1052  BGC1052    -0.3481
     11  O6        39.2510   31.4620   62.4310 O.3   1052  BGC1052    -0.2176
@<TRIPOS>BOND
     1     8     2    1
     2     7     1    1
     3     2     1    1
     4     2     3    1
     5     9     3    1
     6     1     6    1
     7     3     4    1
     8     6    10    1
     9     4    10    1
    10     4     5    1
    11    11     5    1
