@<TRIPOS>MOLECULE
2zwl_FUC_L_1.pdb
 10 10 0 0 0
SMALL
GASTEIGER

@<TRIPOS>ATOM
      1  C1        21.3750   32.3780   62.2680 C.3   1060  FUC1060     0.1776
      2  C2        20.2460   33.3870   62.5600 C.3   1060  FUC1060     0.2141
      3  C3        20.1740   34.4280   61.4300 C.3   1060  FUC1060     0.2172
      4  C4        20.0310   33.7150   60.0840 C.3   1060  FUC1060     0.2116
      5  C5        21.1640   32.6830   59.9130 C.3   1060  FUC1060     0.1483
      6  C6        21.0360   31.9690   58.5660 C.3   1060  FUC1060     0.0349
      7  O2        20.5090   34.0510   63.8020 O.3   1060  FUC1060    -0.2176
      8  O3        19.0490   35.2910   61.6380 O.3   1060  FUC1060    -0.2175
      9  O4        18.7640   33.0480   60.0340 O.3   1060  FUC1060    -0.2177
     10  O5        21.1720   31.7390   60.9960 O.3   1060  FUC1060    -0.3508
@<TRIPOS>BOND
     1     6     5    1
     2     5     4    1
     3     5    10    1
     4     9     4    1
     5     4     3    1
     6    10     1    1
     7     3     8    1
     8     3     2    1
     9     1     2    1
    10     2     7    1
