@<TRIPOS>MOLECULE
2zwt_CAM_A_1.pdb
 11 12 0 0 0
SMALL
GASTEIGER

@<TRIPOS>ATOM
      1  C1        19.0430  -14.0290  -21.0300 C.3   422  CAM422      0.0282
      2  C2        17.6670  -14.2860  -21.5250 C.3   422  CAM422      0.1519
      3  O         16.7300  -13.3310  -21.7510 O.3   422  CAM422     -0.2232
      4  C3        17.4660  -15.7500  -21.7520 C.3   422  CAM422      0.0329
      5  C4        18.8520  -16.2410  -21.3380 C.3   422  CAM422      0.0026
      6  C5        19.7540  -15.8080  -22.4980 C.3   422  CAM422      0.0002
      7  C6        19.8450  -14.2790  -22.3030 C.3   422  CAM422      0.0024
      8  C7        19.2450  -15.2940  -20.2010 C.3   422  CAM422      0.0024
      9  C8        18.3050  -15.3730  -19.0050 C.3   422  CAM422      0.0001
     10  C9        20.7000  -15.4720  -19.7690 C.3   422  CAM422      0.0001
     11  C10       19.2570  -12.6720  -20.3410 C.3   422  CAM422      0.0025
@<TRIPOS>BOND
     1     6     7    1
     2     6     5    1
     3     7     1    1
     4     4     2    1
     5     4     5    1
     6     3     2    1
     7     2     1    1
     8     5     8    1
     9     1    11    1
    10     1     8    1
    11     8    10    1
    12     8     9    1
