@<TRIPOS>MOLECULE
2zwt_HEM_A_1.pdb
 45 52 0 0 0
SMALL
GASTEIGER

@<TRIPOS>ATOM
      1 FE         22.1930  -18.9190  -22.8960 Fe    417  HEM417      0.0000
      2  CHA       18.8370  -19.6660  -22.6870 C.2   417  HEM417      0.0000
      3  CHB       22.3920  -19.0950  -19.4670 C.2   417  HEM417      0.0000
      4  CHC       25.4490  -17.8860  -23.0220 C.2   417  HEM417      0.0000
      5  CHD       21.7860  -17.9070  -26.1540 C.2   417  HEM417      0.0000
      6  NA        20.8690  -19.3060  -21.3900 N.2   417  HEM417      0.0000
      7  C1A       19.5350  -19.6210  -21.5040 C.2   417  HEM417      0.0000
      8  C2A       18.9880  -19.9180  -20.1950 C.2   417  HEM417      0.0000
      9  C3A       19.9790  -19.7520  -19.3170 C.2   417  HEM417      0.0000
     10  C4A       21.1780  -19.3640  -20.0370 C.2   417  HEM417      0.0000
     11  CMA       19.9150  -19.9380  -17.7970 C.3   417  HEM417      0.0000
     12  CAA       17.5450  -20.3440  -19.8740 C.3   417  HEM417      0.0000
     13  CBA       16.6630  -19.1540  -19.5300 C.3   417  HEM417      0.0000
     14  CGA       15.2550  -19.5390  -19.2010 C.2   417  HEM417      0.0000
     15  O1A       14.9280  -20.7490  -19.0460 O.co2 417  HEM417      0.0000
     16  O2A       14.4000  -18.6330  -19.0560 O.co2 417  HEM417      0.0000
     17  NB        23.6220  -18.4870  -21.4880 N.ar  417  HEM417      0.0000
     18  C1B       23.5320  -18.7530  -20.1260 C.ar  417  HEM417      0.0000
     19  C2B       24.8530  -18.6140  -19.5630 C.ar  417  HEM417      0.0000
     20  C3B       25.7030  -18.2910  -20.5500 C.ar  417  HEM417      0.0000
     21  C4B       24.9250  -18.2140  -21.7740 C.ar  417  HEM417      0.0000
     22  CMB       25.1390  -18.8430  -18.0640 C.3   417  HEM417      0.0000
     23  CAB       27.2040  -18.0110  -20.5150 C.2   417  HEM417      0.0000
     24  CBB       28.0280  -18.2960  -19.4930 C.2   417  HEM417      0.0000
     25  NC        23.3650  -18.0100  -24.3010 N.2   417  HEM417      0.0000
     26  C1C       24.7010  -17.7330  -24.1650 C.2   417  HEM417      0.0000
     27  C2C       25.2140  -17.2120  -25.4150 C.2   417  HEM417      0.0000
     28  C3C       24.1830  -17.1930  -26.2710 C.2   417  HEM417      0.0000
     29  C4C       23.0200  -17.6950  -25.6030 C.2   417  HEM417      0.0000
     30  CMC       26.6630  -16.7890  -25.6330 C.3   417  HEM417      0.0000
     31  CAC       24.1390  -16.7370  -27.7430 C.2   417  HEM417      0.0000
     32  CBC       25.0760  -15.9590  -28.2900 C.2   417  HEM417      0.0000
     33  ND        20.6130  -18.8160  -24.1910 N.ar  417  HEM417      0.0000
     34  C1D       20.6910  -18.4330  -25.5170 C.ar  417  HEM417      0.0000
     35  C2D       19.4060  -18.6310  -26.1460 C.ar  417  HEM417      0.0000
     36  C3D       18.5020  -19.1640  -25.0800 C.ar  417  HEM417      0.0000
     37  C4D       19.3210  -19.2390  -23.8970 C.ar  417  HEM417      0.0000
     38  CMD       19.0390  -18.3210  -27.6050 C.3   417  HEM417      0.0000
     39  CAD       17.0220  -19.4600  -25.1980 C.3   417  HEM417      0.0000
     40  CBD       16.6920  -20.9200  -25.4260 C.3   417  HEM417      0.0000
     41  CGD       15.2000  -21.0880  -25.3720 C.2   417  HEM417      0.0000
     42  O1D       14.7010  -22.1070  -25.9120 O.co2 417  HEM417      0.0000
     43  O2D       14.4580  -20.2470  -24.8040 O.co2 417  HEM417      0.0000
     44  HAB       27.5900  -17.5360  -21.2750 H     417  HEM417      0.0000
     45  HAC       23.5510  -17.2130  -28.3340 H     417  HEM417      0.0000
@<TRIPOS>BOND
     1    45    31    1
     2    32    31    2
     3    31    28    1
     4    38    35    1
     5    28    29    1
     6    28    27    2
     7     5    29    1
     8     5    34    2
     9    35    34   ar
    10    35    36   ar
    11    42    41   ar
    12    30    27    1
    13    29    25    2
    14    34    33   ar
    15    40    41    1
    16    40    39    1
    17    27    26    1
    18    41    43   ar
    19    39    36    1
    20    36    37   ar
    21    25    26    1
    22    25     1    1
    23    33    37   ar
    24    33     1    1
    25    26     4    2
    26    37     2    2
    27     4    21    1
    28     1    17    1
    29     1     6    1
    30     2     7    1
    31    21    17   ar
    32    21    20   ar
    33     7     6    2
    34     7     8    1
    35    17    18   ar
    36     6    10    1
    37    44    23    1
    38    20    23    1
    39    20    19   ar
    40    23    24    2
    41     8    12    1
    42     8     9    2
    43    18    19   ar
    44    18     3    1
    45    10     3    2
    46    10     9    1
    47    12    13    1
    48    19    22    1
    49    13    14    1
    50     9    11    1
    51    14    16   ar
    52    14    15   ar
