@<TRIPOS>MOLECULE
2zwu_CAM_A_1.pdb
 11 12 0 0 0
SMALL
GASTEIGER

@<TRIPOS>ATOM
      1  C1        48.9980   18.6440   21.3060 C.3   422  CAM422      0.0282
      2  C2        48.7450   17.2770   21.8620 C.3   422  CAM422      0.1519
      3  O         49.7180   16.3720   22.1290 O.3   422  CAM422     -0.2232
      4  C3        47.2930   17.0300   22.1130 C.3   422  CAM422      0.0329
      5  C4        46.7780   18.4020   21.7010 C.3   422  CAM422      0.0026
      6  C5        47.2580   19.3720   22.7820 C.3   422  CAM422      0.0002
      7  C6        48.7690   19.5350   22.5260 C.3   422  CAM422      0.0024
      8  C7        47.6860   18.7460   20.5150 C.3   422  CAM422      0.0024
      9  C8        47.5820   17.7460   19.3540 C.3   422  CAM422      0.0001
     10  C9        47.4420   20.1790   20.0040 C.3   422  CAM422      0.0001
     11  C10       50.3210   18.8260   20.5560 C.3   422  CAM422      0.0025
@<TRIPOS>BOND
     1     9     8    1
     2    10     8    1
     3     8     1    1
     4     8     5    1
     5    11     1    1
     6     1     2    1
     7     1     7    1
     8     5     4    1
     9     5     6    1
    10     2     4    1
    11     2     3    1
    12     7     6    1
