@<TRIPOS>MOLECULE
2zwu_HEM_A_1.pdb
 45 52 0 0 0
SMALL
GASTEIGER

@<TRIPOS>ATOM
      1 FE         44.0930   21.7820   23.1370 Fe    417  HEM417      0.0000
      2  CHA       43.3950   18.3990   23.0950 C.2   417  HEM417      0.0000
      3  CHB       43.8360   21.8300   19.7260 C.2   417  HEM417      0.0000
      4  CHC       45.0790   25.0440   23.1160 C.2   417  HEM417      0.0000
      5  CHD       45.1550   21.5050   26.3800 C.2   417  HEM417      0.0000
      6  NA        43.7210   20.3880   21.6870 N.ar  417  HEM417      0.0000
      7  C1A       43.4010   19.0520   21.8850 C.ar  417  HEM417      0.0000
      8  C2A       43.0710   18.4480   20.6140 C.ar  417  HEM417      0.0000
      9  C3A       43.2220   19.3980   19.6840 C.ar  417  HEM417      0.0000
     10  C4A       43.6100   20.6250   20.3390 C.ar  417  HEM417      0.0000
     11  CMA       42.9860   19.2900   18.1790 C.3   417  HEM417      0.0000
     12  CAA       42.6500   16.9690   20.3990 C.3   417  HEM417      0.0000
     13  CBA       43.8540   16.0780   20.0650 C.3   417  HEM417      0.0000
     14  CGA       43.4440   14.6590   19.7330 C.2   417  HEM417      0.0000
     15  O1A       42.2360   14.3470   19.6180 O.co2 417  HEM417      0.0000
     16  O2A       44.3740   13.8090   19.6140 O.co2 417  HEM417      0.0000
     17  NB        44.4720   23.1620   21.6650 N.2   417  HEM417      0.0000
     18  C1B       44.1660   23.0120   20.3370 C.2   417  HEM417      0.0000
     19  C2B       44.2600   24.3050   19.6950 C.2   417  HEM417      0.0000
     20  C3B       44.5970   25.1990   20.6280 C.2   417  HEM417      0.0000
     21  C4B       44.7390   24.4900   21.8890 C.2   417  HEM417      0.0000
     22  CMB       43.9720   24.5370   18.1960 C.3   417  HEM417      0.0000
     23  CAB       44.8320   26.7110   20.5500 C.2   417  HEM417      0.0000
     24  CBB       44.5550   27.4630   19.4780 C.2   417  HEM417      0.0000
     25  NC        45.0140   23.0270   24.4870 N.ar  417  HEM417      0.0000
     26  C1C       45.2860   24.3650   24.2980 C.ar  417  HEM417      0.0000
     27  C2C       45.8250   24.9140   25.5090 C.ar  417  HEM417      0.0000
     28  C3C       45.8740   23.9180   26.4040 C.ar  417  HEM417      0.0000
     29  C4C       45.3410   22.7220   25.7840 C.ar  417  HEM417      0.0000
     30  CMC       46.2290   26.3910   25.6530 C.3   417  HEM417      0.0000
     31  CAC       46.3520   23.9410   27.8620 C.2   417  HEM417      0.0000
     32  CBC       47.1800   24.8650   28.3370 C.2   417  HEM417      0.0000
     33  ND        44.2410   20.2340   24.4850 N.2   417  HEM417      0.0000
     34  C1D       44.6310   20.3860   25.8040 C.2   417  HEM417      0.0000
     35  C2D       44.4550   19.1470   26.5120 C.2   417  HEM417      0.0000
     36  C3D       43.9170   18.1970   25.5000 C.2   417  HEM417      0.0000
     37  C4D       43.8170   18.9330   24.2730 C.2   417  HEM417      0.0000
     38  CMD       44.7650   18.8510   27.9880 C.3   417  HEM417      0.0000
     39  CAD       43.6120   16.7180   25.7330 C.3   417  HEM417      0.0000
     40  CBD       42.1440   16.3280   25.8400 C.3   417  HEM417      0.0000
     41  CGD       42.0380   14.8140   25.8570 C.2   417  HEM417      0.0000
     42  O1D       41.0440   14.3090   26.4280 O.co2 417  HEM417      0.0000
     43  O2D       42.9150   14.1180   25.2800 O.co2 417  HEM417      0.0000
     44  HAB       45.3340   27.1330   21.2810 H     417  HEM417      0.0000
     45  HAC       45.6600   23.6760   28.4730 H     417  HEM417      0.0000
@<TRIPOS>BOND
     1    11     9    1
     2    22    19    1
     3    24    23    2
     4    16    14   ar
     5    15    14   ar
     6     9    10   ar
     7     9     8   ar
     8    19    18    1
     9    19    20    2
    10     3    18    1
    11     3    10    2
    12    14    13    1
    13    13    12    1
    14    18    17    2
    15    10     6   ar
    16    12     8    1
    17    23    20    1
    18    23    44    1
    19     8     7   ar
    20    20    21    1
    21    17    21    1
    22    17     1    1
    23     6     7   ar
    24     6     1    1
    25     7     2    2
    26    21     4    2
    27     2    37    1
    28     4    26    1
    29     1    33    1
    30     1    25    1
    31    37    33    2
    32    37    36    1
    33    26    25   ar
    34    26    27   ar
    35    33    34    1
    36    25    29   ar
    37    43    41   ar
    38    36    39    1
    39    36    35    2
    40    27    30    1
    41    27    28   ar
    42    39    40    1
    43    29     5    1
    44    29    28   ar
    45    34     5    2
    46    34    35    1
    47    40    41    1
    48    41    42   ar
    49    28    31    1
    50    35    38    1
    51    31    32    2
    52    31    45    1
