@<TRIPOS>MOLECULE
2zwv_SAH_A_1.pdb
 26 28 0 0 0
SMALL
GASTEIGER

@<TRIPOS>ATOM
      1  N         24.2720   14.6840   22.4760 N.3   376  SAH376     -0.1159
      2  CA        23.7760   13.3820   22.0050 C.3   376  SAH376      0.2168
      3  CB        24.9080   12.6120   21.3230 C.2   376  SAH376      0.0105
      4  CG        25.9910   12.1560   22.0660 C.2   376  SAH376      0.0284
      5  SD        27.2870   11.2660   21.2950 S.3   376  SAH376     -0.1108
      6  C         23.2580   12.5800   23.2000 C.2   376  SAH376      0.3860
      7  O         22.6350   11.5200   22.9450 O.co2 376  SAH376     -0.2437
      8  OXT       23.4930   13.0330   24.3360 O.co2 376  SAH376     -0.2437
      9  C5'       28.3180   12.6210   20.6250 C.3   376  SAH376      0.0945
     10  C4'       27.6830   13.3440   19.4350 C.3   376  SAH376      0.1634
     11  O4'       28.6570   14.2690   18.9180 O.3   376  SAH376     -0.3152
     12  C3'       27.3890   12.3500   18.3080 C.3   376  SAH376      0.2168
     13  O3'       26.1900   12.7280   17.6270 O.3   376  SAH376     -0.2175
     14  C2'       28.5900   12.5520   17.3860 C.3   376  SAH376      0.2569
     15  O2'       28.2240   12.2030   16.0490 O.3   376  SAH376     -0.2130
     16  C1'       28.6810   14.0720   17.4960 C.3   376  SAH376      0.3185
     17  N9        29.9340   14.5870   16.8950 N.pl3 376  SAH376     -0.1439
     18  C8        31.0400   13.8810   16.6630 C.3   376  SAH376      0.3377
     19  N7        31.9600   14.6670   16.1040 N.2   376  SAH376     -0.2095
     20  C5        31.4370   15.8780   15.9790 C.2   376  SAH376      0.2526
     21  C6        31.9050   17.0920   15.4770 C.2   376  SAH376      0.4393
     22  N6        33.1250   17.1810   14.9570 N.pl3 376  SAH376      0.2180
     23  N1        31.0980   18.1570   15.5060 N.2   376  SAH376      0.0021
     24  C2        29.8720   18.0730   15.9990 C.3   376  SAH376      0.5254
     25  N3        29.3930   16.9430   16.4790 N.2   376  SAH376     -0.0055
     26  C4        30.1470   15.8290   16.4850 C.2   376  SAH376      0.3518
@<TRIPOS>BOND
     1    22    21    1
     2    21    23    2
     3    21    20    1
     4    23    24    1
     5    20    19    2
     6    20    26    1
     7    24    25    1
     8    15    14    1
     9    19    18    1
    10    25    26    2
    11    26    17    1
    12    18    17    1
    13    17    16    1
    14    14    16    1
    15    14    12    1
    16    16    11    1
    17    13    12    1
    18    12    10    1
    19    11    10    1
    20    10     9    1
    21     9     5    1
    22     5     4    1
    23     3     2    1
    24     3     4    2
    25     2     1    1
    26     2     6    1
    27     7     6   ar
    28     6     8   ar
