@<TRIPOS>MOLECULE
2zwz_ZWZ_A_1.pdb
 12 12 0 0 0
SMALL
GASTEIGER

@<TRIPOS>ATOM
      1  OAE       -3.1150   26.0590   24.4980 O.3   901  ZWZ901     -0.2188
      2  CAK       -1.7520   26.4870   24.5090 C.3   901  ZWZ901      0.2020
      3  CAJ       -1.5670   27.6750   23.5630 C.3   901  ZWZ901      0.2150
      4  OAD       -2.0330   27.3480   22.2530 O.3   901  ZWZ901     -0.2176
      5  CAI       -0.0770   28.0090   23.5140 C.3   901  ZWZ901      0.2005
      6  OAC        0.5930   26.8790   22.9420 O.3   901  ZWZ901     -0.2188
      7  CAH        0.4280   28.3030   24.9310 C.3   901  ZWZ901      0.1059
      8  CAA        1.9310   28.5830   24.9400 C.3   901  ZWZ901      0.0216
      9  NAG        0.1470   27.1820   25.8460 N.3   901  ZWZ901     -0.2140
     10  CAL       -1.2940   26.8920   25.9150 C.3   901  ZWZ901      0.1247
     11  CAF       -1.5220   25.7600   26.9200 C.3   901  ZWZ901      0.1293
     12  NAB       -1.5400   26.2820   28.2960 N.3   901  ZWZ901     -0.1298
@<TRIPOS>BOND
     1     4     3    1
     2     6     5    1
     3     5     3    1
     4     5     7    1
     5     3     2    1
     6     1     2    1
     7     2    10    1
     8     7     8    1
     9     7     9    1
    10     9    10    1
    11    10    11    1
    12    11    12    1
