@<TRIPOS>MOLECULE
2zx5_ZX5_A_1.pdb
 25 27 0 0 0
SMALL
GASTEIGER

@<TRIPOS>ATOM
      1  CAT       -4.8310   27.3170   29.2230 C.2   901  ZX5901      0.0112
      2  CAI       -4.6060   27.8180   27.9450 C.2   901  ZX5901     -0.0202
      3  CAG       -5.5490   27.6040   26.9460 C.3   901  ZX5901      0.0521
      4  CAF       -6.7130   26.8940   27.2200 C.2   901  ZX5901     -0.0199
      5  CAH       -6.9370   26.3970   28.4990 C.2   901  ZX5901      0.0148
      6  CAS       -5.9940   26.6100   29.4990 C.2   901  ZX5901      0.0804
      7  NAP       -5.9350   26.2430   30.7770 N.2   901  ZX5901     -0.2442
      8  CAJ       -4.7990   26.6780   31.3190 C.2   901  ZX5901      0.0946
      9  CAR       -4.0940   27.3350   30.4020 C.2   901  ZX5901     -0.0014
     10  CAL       -2.7100   27.9510   30.6040 C.3   901  ZX5901      0.0376
     11  CAK       -1.6340   26.8640   30.5820 C.3   901  ZX5901      0.0915
     12  CAQ       -1.6930   26.0310   29.2980 C.2   901  ZX5901      0.2418
     13  OAB       -1.8070   24.8080   29.3570 O.2   901  ZX5901     -0.2733
     14  NAN       -1.6040   26.7010   28.1520 N.am  901  ZX5901     -0.2038
     15  CAM       -1.6410   26.0200   26.8490 C.3   901  ZX5901      0.1351
     16  CAV       -1.4040   27.0300   25.7230 C.3   901  ZX5901      0.1273
     17  NAO        0.0300   27.3410   25.6130 N.3   901  ZX5901     -0.2137
     18  CAU        0.2420   28.4320   24.6470 C.3   901  ZX5901      0.1059
     19  CAA        1.7310   28.7740   24.6030 C.3   901  ZX5901      0.0216
     20  CAW       -0.2690   28.0510   23.2530 C.3   901  ZX5901      0.2005
     21  OAC        0.5370   27.0070   22.6980 O.3   901  ZX5901     -0.2188
     22  CAY       -1.7240   27.5840   23.3100 C.3   901  ZX5901      0.2150
     23  OAE       -2.0950   27.0690   22.0290 O.3   901  ZX5901     -0.2176
     24  CAX       -1.8760   26.4890   24.3710 C.3   901  ZX5901      0.2023
     25  OAD       -3.2430   26.0790   24.4590 O.3   901  ZX5901     -0.2188
@<TRIPOS>BOND
     1    23    22    1
     2    21    20    1
     3    20    22    1
     4    20    18    1
     5    22    24    1
     6    24    25    1
     7    24    16    1
     8    19    18    1
     9    18    17    1
    10    17    16    1
    11    16    15    1
    12    15    14    1
    13     3     4    1
    14     3     2    1
    15     4     5    2
    16     2     1    2
    17    14    12   am
    18     5     6    1
    19     1     6    1
    20     1     9    1
    21    12    13    2
    22    12    11    1
    23     6     7    2
    24     9    10    1
    25     9     8    2
    26    11    10    1
    27     7     8    1
