@<TRIPOS>MOLECULE
2zx6_ZX6_A_1.pdb
 24 26 0 0 0
SMALL
GASTEIGER

@<TRIPOS>ATOM
      1  CAS       -1.1610   25.1410   31.1330 C.2   901  ZX6901      0.0117
      2  CAI       -1.7660   24.1020   30.4360 C.2   901  ZX6901     -0.0202
      3  CAG       -1.3070   22.7970   30.5960 C.3   901  ZX6901      0.0521
      4  CAF       -0.2480   22.5260   31.4560 C.2   901  ZX6901     -0.0199
      5  CAH        0.3560   23.5660   32.1570 C.2   901  ZX6901      0.0148
      6  CAR       -0.1000   24.8690   31.9900 C.2   901  ZX6901      0.0804
      7  NAO        0.3160   26.0310   32.4850 N.2   901  ZX6901     -0.2442
      8  CAJ       -0.4270   27.0170   31.9850 C.2   901  ZX6901      0.0950
      9  CAQ       -1.3400   26.5200   31.1540 C.2   901  ZX6901      0.0073
     10  CAL       -2.3730   27.3610   30.4010 C.3   901  ZX6901      0.1147
     11  CAP       -2.5730   26.9930   28.9260 C.2   901  ZX6901      0.2459
     12  OAB       -3.6080   27.3560   28.3690 O.2   901  ZX6901     -0.2730
     13  NAM       -1.5730   26.4080   28.2680 N.am  901  ZX6901     -0.2036
     14  CAK       -1.6930   25.9670   26.8670 C.3   901  ZX6901      0.1351
     15  CAU       -1.4420   27.0340   25.7960 C.3   901  ZX6901      0.1273
     16  NAN       -0.0090   27.3760   25.7340 N.3   901  ZX6901     -0.2137
     17  CAT        0.2610   28.4520   24.7620 C.3   901  ZX6901      0.1059
     18  CAA        1.7620   28.7420   24.7310 C.3   901  ZX6901      0.0216
     19  CAV       -0.2350   28.1170   23.3480 C.3   901  ZX6901      0.2005
     20  OAC        0.5660   27.0820   22.7690 O.3   901  ZX6901     -0.2188
     21  CAX       -1.6950   27.6580   23.4010 C.3   901  ZX6901      0.2150
     22  OAE       -2.1520   27.2080   22.1240 O.3   901  ZX6901     -0.2176
     23  CAW       -1.7980   26.5060   24.4000 C.3   901  ZX6901      0.2023
     24  OAD       -3.1190   25.9680   24.3230 O.3   901  ZX6901     -0.2188
@<TRIPOS>BOND
     1    22    21    1
     2    20    19    1
     3    19    21    1
     4    19    17    1
     5    21    23    1
     6    24    23    1
     7    23    15    1
     8    18    17    1
     9    17    16    1
    10    16    15    1
    11    15    14    1
    12    14    13    1
    13    13    11   am
    14    12    11    2
    15    11    10    1
    16    10     9    1
    17     2     3    1
    18     2     1    2
    19     3     4    1
    20     1     9    1
    21     1     6    1
    22     9     8    2
    23     4     5    2
    24     8     7    1
    25     6     5    1
    26     6     7    2
