@<TRIPOS>MOLECULE
2zx7_ZX7_A_1.pdb
 23 25 0 0 0
SMALL
GASTEIGER

@<TRIPOS>ATOM
      1  OAD       -3.2430   25.8470   24.3060 O.3   901  ZX7901     -0.2188
      2  CAV       -1.9120   26.3630   24.3570 C.3   901  ZX7901      0.2023
      3  CAW       -1.7970   27.5880   23.4480 C.3   901  ZX7901      0.2150
      4  OAE       -2.2300   27.2390   22.1340 O.3   901  ZX7901     -0.2176
      5  CAU       -0.3380   28.0440   23.4370 C.3   901  ZX7901      0.2005
      6  OAC        0.4580   27.0320   22.8150 O.3   901  ZX7901     -0.2188
      7  CAS        0.1500   28.3030   24.8680 C.3   901  ZX7901      0.1059
      8  CAA        1.6530   28.5840   24.8770 C.3   901  ZX7901      0.0216
      9  NAM       -0.1070   27.1590   25.7590 N.3   901  ZX7901     -0.2137
     10  CAT       -1.5280   26.7730   25.7820 C.3   901  ZX7901      0.1274
     11  CAK       -1.7330   25.5940   26.7360 C.3   901  ZX7901      0.1355
     12  NAL       -1.6190   25.9790   28.1510 N.am  901  ZX7901     -0.1979
     13  CAO       -1.4190   25.0280   29.0620 C.2   901  ZX7901      0.2945
     14  OAB       -1.2690   23.8370   28.7850 O.2   901  ZX7901     -0.2656
     15  CAP       -1.3280   25.4520   30.5310 C.2   901  ZX7901      0.1862
     16  CAJ       -1.7870   24.6740   31.5050 C.2   901  ZX7901      0.0393
     17  CAQ       -1.5800   25.3220   32.6470 C.ar  901  ZX7901      0.0323
     18  CAH       -1.9100   25.0050   33.9600 C.ar  901  ZX7901      0.0026
     19  CAF       -1.6150   25.9060   34.9770 C.ar  901  ZX7901      0.0002
     20  CAG       -0.9870   27.1070   34.6600 C.ar  901  ZX7901      0.0026
     21  CAI       -0.6540   27.4250   33.3460 C.ar  901  ZX7901      0.0320
     22  CAR       -0.9600   26.5270   32.3300 C.ar  901  ZX7901      0.1316
     23  NAN       -0.8230   26.5860   31.0080 N.2   901  ZX7901     -0.3972
@<TRIPOS>BOND
     1     4     3    1
     2     6     5    1
     3     5     3    1
     4     5     7    1
     5     3     2    1
     6     1     2    1
     7     2    10    1
     8     7     8    1
     9     7     9    1
    10     9    10    1
    11    10    11    1
    12    11    12    1
    13    12    13   am
    14    14    13    2
    15    13    15    1
    16    15    23    2
    17    15    16    1
    18    23    22    2
    19    16    17    2
    20    22    17   ar
    21    22    21   ar
    22    17    18   ar
    23    21    20   ar
    24    18    19   ar
    25    20    19   ar
