@<TRIPOS>MOLECULE
2zx8_ZX8_A_1.pdb
 23 25 0 0 0
SMALL
GASTEIGER

@<TRIPOS>ATOM
      1  CAJ       -1.0110   27.0880   30.9920 C.ar  901  ZX8901      0.0453
      2  CAQ       -0.2210   27.3300   32.0420 C.ar  901  ZX8901      0.0377
      3  CAH        0.1010   28.4980   32.7090 C.ar  901  ZX8901      0.0031
      4  CAF        1.0770   28.4830   33.7060 C.ar  901  ZX8901      0.0002
      5  CAG        1.7270   27.3020   34.0400 C.ar  901  ZX8901      0.0031
      6  CAI        1.4020   26.1220   33.3780 C.ar  901  ZX8901      0.0375
      7  CAR        0.4330   26.1440   32.3830 C.ar  901  ZX8901      0.1455
      8  OAN        0.0060   25.1920   31.5070 O.2   901  ZX8901     -0.4488
      9  CAP       -0.8630   25.8110   30.6530 C.ar  901  ZX8901      0.2000
     10  CAO       -1.1930   25.1980   29.2910 C.2   901  ZX8901      0.2995
     11  OAB       -1.2210   23.9800   29.1710 O.2   901  ZX8901     -0.2650
     12  NAL       -1.3620   26.0660   28.2850 N.am  901  ZX8901     -0.1975
     13  CAK       -1.6510   25.6320   26.9130 C.3   901  ZX8901      0.1355
     14  CAT       -1.4120   26.7710   25.9140 C.3   901  ZX8901      0.1274
     15  NAM        0.0100   27.1510   25.8760 N.3   901  ZX8901     -0.2137
     16  CAS        0.2220   28.2920   24.9680 C.3   901  ZX8901      0.1059
     17  CAA        1.7020   28.6690   24.9890 C.3   901  ZX8901      0.0216
     18  CAU       -0.2500   28.0050   23.5350 C.3   901  ZX8901      0.2005
     19  OAC        0.5010   26.9290   22.9610 O.3   901  ZX8901     -0.2188
     20  CAW       -1.7200   27.5870   23.5810 C.3   901  ZX8901      0.2150
     21  OAE       -2.2080   27.2450   22.2820 O.3   901  ZX8901     -0.2176
     22  CAV       -1.8300   26.3670   24.4970 C.3   901  ZX8901      0.2023
     23  OAD       -3.1770   25.8940   24.4780 O.3   901  ZX8901     -0.2188
@<TRIPOS>BOND
     1    21    20    1
     2    19    18    1
     3    18    20    1
     4    18    16    1
     5    20    22    1
     6    23    22    1
     7    22    14    1
     8    16    17    1
     9    16    15    1
    10    15    14    1
    11    14    13    1
    12    13    12    1
    13    12    10   am
    14    11    10    2
    15    10     9    1
    16     9     1   ar
    17     9     8   ar
    18     1     2   ar
    19     8     7   ar
    20     2     7   ar
    21     2     3   ar
    22     7     6   ar
    23     3     4   ar
    24     6     5   ar
    25     4     5   ar
