@<TRIPOS>MOLECULE
2zx9_ZX9_A_1.pdb
 26 28 0 0 0
SMALL
GASTEIGER

@<TRIPOS>ATOM
      1  CAI       -0.7880   26.9120   31.4170 C.ar  901  ZX9901     -0.0038
      2  CAG       -0.0850   26.6860   32.5930 C.ar  901  ZX9901     -0.0003
      3  CAF       -0.7970   26.2960   33.7240 C.ar  901  ZX9901     -0.0000
      4  CAH       -2.1790   26.1370   33.6820 C.ar  901  ZX9901     -0.0003
      5  CAJ       -2.8770   26.3640   32.5010 C.ar  901  ZX9901     -0.0038
      6  CAS       -2.1680   26.7500   31.3690 C.ar  901  ZX9901     -0.0138
      7  CAZ       -2.8270   26.9350   30.0040 C.3   901  ZX9901      0.1004
      8  CAX       -4.3360   26.7210   29.8560 C.3   901  ZX9901      0.0128
      9  CAM       -5.2810   27.9160   29.9550 C.3   901  ZX9901      0.0008
     10  CAK       -6.5460   27.1640   29.5330 C.3   901  ZX9901      0.0000
     11  CAL       -6.5070   25.9090   30.4130 C.3   901  ZX9901      0.0000
     12  CAN       -5.0230   25.6560   30.7130 C.3   901  ZX9901      0.0008
     13  CAR       -2.1160   26.0010   29.0270 C.2   901  ZX9901      0.2450
     14  OAB       -1.8340   24.8440   29.3400 O.2   901  ZX9901     -0.2730
     15  NAP       -1.8200   26.5850   27.8730 N.am  901  ZX9901     -0.2036
     16  CAO       -1.1450   25.8900   26.7740 C.3   901  ZX9901      0.1351
     17  CAY       -1.0710   26.9010   25.6320 C.3   901  ZX9901      0.1273
     18  NAQ        0.3310   27.3050   25.4450 N.3   901  ZX9901     -0.2137
     19  CAT        0.3860   28.3770   24.4390 C.3   901  ZX9901      0.1059
     20  CAA        1.8290   28.8570   24.2830 C.3   901  ZX9901      0.0216
     21  CAU       -0.1850   27.8990   23.0990 C.3   901  ZX9901      0.2005
     22  OAC        0.6130   26.8290   22.5830 O.3   901  ZX9901     -0.2188
     23  CAV       -1.6210   27.4020   23.2690 C.3   901  ZX9901      0.2150
     24  OAD       -2.1020   26.8640   22.0360 O.3   901  ZX9901     -0.2176
     25  CAW       -1.6280   26.3060   24.3340 C.3   901  ZX9901      0.2023
     26  OAE       -2.9670   25.8350   24.5180 O.3   901  ZX9901     -0.2188
@<TRIPOS>BOND
     1    24    23    1
     2    22    21    1
     3    21    23    1
     4    21    19    1
     5    23    25    1
     6    20    19    1
     7    25    26    1
     8    25    17    1
     9    19    18    1
    10    18    17    1
    11    17    16    1
    12    16    15    1
    13    15    13   am
    14    13    14    2
    15    13     7    1
    16    10     9    1
    17    10    11    1
    18     8     9    1
    19     8     7    1
    20     8    12    1
    21     7     6    1
    22    11    12    1
    23     6     1   ar
    24     6     5   ar
    25     1     2   ar
    26     5     4   ar
    27     2     3   ar
    28     4     3   ar
