@<TRIPOS>MOLECULE
2zxa_ZXA_A_1.pdb
 15 15 0 0 0
SMALL
GASTEIGER

@<TRIPOS>ATOM
      1  CAA       -1.7240   27.5490   30.6290 C.3   901  ZXA901      0.0964
      2  CAJ       -1.8180   26.5340   29.4880 C.2   901  ZXA901      0.2419
      3  OAC       -2.0170   25.3470   29.7370 O.2   901  ZXA901     -0.2733
      4  NAH       -1.6370   27.0190   28.2630 N.am  901  ZXA901     -0.2038
      5  CAG       -1.6920   26.1940   27.0460 C.3   901  ZXA901      0.1351
      6  CAL       -1.3680   27.0890   25.8470 C.3   901  ZXA901      0.1273
      7  NAI        0.0770   27.3700   25.7690 N.3   901  ZXA901     -0.2137
      8  CAK        0.3170   28.4330   24.7770 C.3   901  ZXA901      0.1059
      9  CAB        1.8100   28.7510   24.6800 C.3   901  ZXA901      0.0216
     10  CAM       -0.2240   28.0720   23.3880 C.3   901  ZXA901      0.2005
     11  OAD        0.5760   27.0630   22.7670 O.3   901  ZXA901     -0.2188
     12  CAO       -1.6710   27.5860   23.4720 C.3   901  ZXA901      0.2150
     13  OAF       -2.0780   27.0950   22.1970 O.3   901  ZXA901     -0.2176
     14  CAN       -1.7510   26.4610   24.5050 C.3   901  ZXA901      0.2023
     15  OAE       -3.0880   25.9600   24.5090 O.3   901  ZXA901     -0.2188
@<TRIPOS>BOND
     1    13    12    1
     2    11    10    1
     3    10    12    1
     4    10     8    1
     5    12    14    1
     6    14    15    1
     7    14     6    1
     8     9     8    1
     9     8     7    1
    10     7     6    1
    11     6     5    1
    12     5     4    1
    13     4     2   am
    14     2     3    2
    15     2     1    1
