@<TRIPOS>MOLECULE
2zxb_ZXB_A_1.pdb
 16 17 0 0 0
SMALL
GASTEIGER

@<TRIPOS>ATOM
      1  CAG       -4.2660   27.4860   28.8870 C.ar  901  ZXB901     -0.0042
      2  CAE       -5.6410   27.2930   29.0070 C.ar  901  ZXB901     -0.0003
      3  CAD       -6.4280   27.1420   27.8660 C.ar  901  ZXB901     -0.0000
      4  CAF       -5.8410   27.1860   26.5990 C.ar  901  ZXB901     -0.0003
      5  CAH       -4.4650   27.3870   26.4770 C.ar  901  ZXB901     -0.0042
      6  CAL       -3.6810   27.5410   27.6220 C.ar  901  ZXB901     -0.0207
      7  CAJ       -2.1820   27.8590   27.5220 C.3   901  ZXB901      0.0464
      8  CAP       -1.4720   27.3490   26.2580 C.3   901  ZXB901      0.1101
      9  NAK       -0.1710   28.0480   26.2380 N.3   901  ZXB901     -0.2137
     10  CAI        0.6340   27.5940   25.0940 C.3   901  ZXB901      0.1243
     11  CAM       -0.0490   28.0930   23.8220 C.3   901  ZXB901      0.2020
     12  OAA        0.6490   27.5630   22.6920 O.3   901  ZXB901     -0.2188
     13  CAN       -1.4640   27.5300   23.7200 C.3   901  ZXB901      0.2150
     14  OAB       -2.0590   28.3240   22.6870 O.3   901  ZXB901     -0.2176
     15  CAO       -2.2320   27.8180   25.0140 C.3   901  ZXB901      0.2008
     16  OAC       -2.3250   29.2470   25.1400 O.3   901  ZXB901     -0.2188
@<TRIPOS>BOND
     1    14    13    1
     2    12    11    1
     3    13    11    1
     4    13    15    1
     5    11    10    1
     6    15    16    1
     7    15     8    1
     8    10     9    1
     9     9     8    1
    10     8     7    1
    11     5     4   ar
    12     5     6   ar
    13     4     3   ar
    14     7     6    1
    15     6     1   ar
    16     3     2   ar
    17     1     2   ar
