@<TRIPOS>MOLECULE
2zxc_2ED_A_1.pdb
 13 12 0 0 0
SMALL
GASTEIGER

@<TRIPOS>ATOM
      1  O2         5.1710   -4.9380   51.5510 O.2   701  2ED701     -0.2733
      2  O3         5.4470   -1.9130   48.1180 O.3   701  2ED701     -0.2184
      3  O1         5.2750   -6.2770   48.5570 O.3   701  2ED701     -0.2164
      4  C1         4.6430   -3.9970   49.0350 C.3   701  2ED701      0.1626
      5  C2         4.3840   -5.2250   48.1700 C.3   701  2ED701      0.1961
      6  C3         4.6160   -4.8760   46.7190 C.2   701  2ED701      0.0034
      7  C4         5.0810   -5.7970   45.8800 C.2   701  2ED701     -0.0281
      8  C5         5.3750   -7.1920   46.3780 C.3   701  2ED701      0.0258
      9  C6         5.9580   -8.0180   45.2520 C.3   701  2ED701      0.0050
     10  C18        4.0340   -4.5650   51.3130 C.2   701  2ED701      0.2420
     11  C19        2.9450   -4.6100   52.3440 C.3   701  2ED701      0.0964
     12  N          3.6790   -4.0920   50.1210 N.am  701  2ED701     -0.2015
     13  C          4.2750   -2.7180   48.2930 C.3   701  2ED701      0.2065
@<TRIPOS>BOND
     1     9     8    1
     2     7     8    1
     3     7     6    2
     4     6     5    1
     5     2    13    1
     6     5     3    1
     7     5     4    1
     8    13     4    1
     9     4    12    1
    10    12    10   am
    11    10     1    2
    12    10    11    1
