@<TRIPOS>MOLECULE
2zxd_ZXD_A_1.pdb
 12 12 0 0 0
SMALL
GASTEIGER

@<TRIPOS>ATOM
      1  CAA        1.4890   29.4010   26.9320 C.3   901  ZXD901      0.0015
      2  CAH        1.2300   28.9010   25.5070 C.3   901  ZXD901      0.0186
      3  CAB        2.3070   27.8780   25.1350 C.3   901  ZXD901      0.0015
      4  CAL       -0.1720   28.2870   25.4200 C.3   901  ZXD901      0.1058
      5  NAG       -0.2240   27.0110   26.1540 N.3   901  ZXD901     -0.2140
      6  CAF       -1.6000   26.4880   26.1950 C.3   901  ZXD901      0.1242
      7  CAI       -2.0660   26.2140   24.7590 C.3   901  ZXD901      0.2020
      8  OAC       -3.3820   25.6550   24.7520 O.3   901  ZXD901     -0.2188
      9  CAJ       -2.0570   27.5250   23.9690 C.3   901  ZXD901      0.2150
     10  OAD       -2.4910   27.2890   22.6290 O.3   901  ZXD901     -0.2176
     11  CAK       -0.6340   28.0860   23.9730 C.3   901  ZXD901      0.2005
     12  OAE        0.2340   27.1550   23.3240 O.3   901  ZXD901     -0.2188
@<TRIPOS>BOND
     1    10     9    1
     2    12    11    1
     3     9    11    1
     4     9     7    1
     5    11     4    1
     6     8     7    1
     7     7     6    1
     8     3     2    1
     9     4     2    1
    10     4     5    1
    11     2     1    1
    12     5     6    1
