@<TRIPOS>MOLECULE
2zxe_CLR_A_1.pdb
 28 31 0 0 0
SMALL
GASTEIGER

@<TRIPOS>ATOM
      1  C1       137.6690   -1.6570   17.0710 C.3   3001  CLR3001     0.0063
      2  C2       137.3680   -1.9350   18.5510 C.3   3001  CLR3001     0.0335
      3  C3       136.7430   -0.7480   19.2870 C.3   3001  CLR3001     0.1560
      4  C4       135.4940   -0.2720   18.5500 C.3   3001  CLR3001     0.0545
      5  C5       135.8340   -0.0080   17.0970 C.2   3001  CLR3001    -0.0466
      6  C6       135.5440    1.2140   16.6140 C.2   3001  CLR3001    -0.0345
      7  C7       135.8870    1.6680   15.2140 C.3   3001  CLR3001     0.0254
      8  C8       136.0350    0.4720   14.2790 C.3   3001  CLR3001     0.0046
      9  C9       136.9730   -0.5810   14.8940 C.3   3001  CLR3001     0.0038
     10  C10      136.4830   -1.1070   16.2620 C.3   3001  CLR3001     0.0150
     11  C11      137.3130   -1.7140   13.8940 C.3   3001  CLR3001     0.0003
     12  C12      137.6070   -1.2900   12.4400 C.3   3001  CLR3001     0.0000
     13  C13      136.6400   -0.2440   11.8840 C.3   3001  CLR3001     0.0000
     14  C14      136.6000    0.8820   12.9140 C.3   3001  CLR3001     0.0003
     15  C15      136.0410    2.1240   12.2140 C.3   3001  CLR3001     0.0000
     16  C16      136.5050    1.9410   10.7690 C.3   3001  CLR3001     0.0000
     17  C17      137.1220    0.5350   10.6420 C.3   3001  CLR3001     0.0000
     18  C18      135.2570   -0.8810   11.6580 C.3   3001  CLR3001     0.0000
     19  C19      135.4440   -2.2100   16.0450 C.3   3001  CLR3001     0.0040
     20  C20      136.9480   -0.0260    9.2110 C.3   3001  CLR3001     0.0000
     21  C21      137.4770   -1.4490    9.0260 C.3   3001  CLR3001     0.0000
     22  C22      137.6320    0.8970    8.1960 C.3   3001  CLR3001     0.0000
     23  C23      137.0950    0.7790    6.7700 C.3   3001  CLR3001     0.0000
     24  C24      137.9190    1.6560    5.8270 C.3   3001  CLR3001     0.0000
     25  C25      137.3810    1.6420    4.3960 C.3   3001  CLR3001     0.0000
     26  C26      137.5840    2.9910    3.7130 C.3   3001  CLR3001     0.0000
     27  C27      138.0280    0.5320    3.5730 C.3   3001  CLR3001     0.0000
     28  O1       136.3810   -1.1410   20.6160 O.3   3001  CLR3001    -0.2228
@<TRIPOS>BOND
     1    27    25    1
     2    26    25    1
     3    25    24    1
     4    24    23    1
     5    23    22    1
     6    22    20    1
     7    21    20    1
     8    20    17    1
     9    17    16    1
    10    17    13    1
    11    16    15    1
    12    18    13    1
    13    13    12    1
    14    13    14    1
    15    15    14    1
    16    12    11    1
    17    14     8    1
    18    11     9    1
    19     8     9    1
    20     8     7    1
    21     9    10    1
    22     7     6    1
    23    19    10    1
    24    10     1    1
    25    10     5    1
    26     6     5    2
    27     1     2    1
    28     5     4    1
    29     4     3    1
    30     2     3    1
    31     3    28    1
