@<TRIPOS>MOLECULE
2zxg_S23_A_1.pdb
 29 30 0 0 0
SMALL
GASTEIGER

@<TRIPOS>ATOM
      1  O2        71.8700   45.1120    6.4610 O.2   901  S23901     -0.2855
      2  P         72.1010   46.1770    7.3850 P.3   901  S23901      0.2708
      3  O1        73.4930   46.0300    7.7980 O.3   901  S23901     -0.1664
      4  C1        71.1580   45.9650    8.6670 C.3   901  S23901      0.1712
      5  N1        71.4820   44.7800    9.4690 N.3   901  S23901     -0.1224
      6  C2        71.1840   47.1000    9.7020 C.3   901  S23901      0.0311
      7  C3        71.8480   47.6150    6.7410 C.3   901  S23901      0.1002
      8  C4        72.8780   48.1790    5.7160 C.3   901  S23901      0.0923
      9  C6        72.5780   47.7440    4.2590 C.3   901  S23901      0.0360
     10  C7        73.6690   48.2390    3.3160 C.ar  901  S23901     -0.0217
     11  C8        74.7960   47.4400    3.0910 C.ar  901  S23901     -0.0043
     12  C10       75.8130   47.8810    2.2430 C.ar  901  S23901     -0.0003
     13  C12       75.7010   49.1300    1.6350 C.ar  901  S23901     -0.0000
     14  C11       74.5930   49.9470    1.8610 C.ar  901  S23901     -0.0003
     15  C9        73.5650   49.4970    2.7000 C.ar  901  S23901     -0.0043
     16  C5        73.0180   49.6960    5.7370 C.2   901  S23901      0.2422
     17  O3        72.0740   50.4400    5.5170 O.2   901  S23901     -0.2733
     18  N2        74.2500   50.1710    5.9820 N.am  901  S23901     -0.1952
     19  C13       74.6180   51.5710    5.8030 C.3   901  S23901      0.2020
     20  C14       75.9130   51.6740    5.0440 C.2   901  S23901      0.3845
     21  O4        76.0940   52.6740    4.3060 O.co2 901  S23901     -0.2437
     22  O5        76.7570   50.7600    5.1650 O.co2 901  S23901     -0.2437
     23  C15       74.7830   52.2830    7.1470 C.3   901  S23901      0.0596
     24  C16       73.5060   52.2970    7.9640 C.ar  901  S23901     -0.0199
     25  C17       72.5770   53.3280    7.7840 C.ar  901  S23901     -0.0042
     26  C19       71.4000   53.3550    8.5390 C.ar  901  S23901     -0.0003
     27  C21       71.1520   52.3490    9.4760 C.ar  901  S23901     -0.0000
     28  C20       72.0710   51.3010    9.6360 C.ar  901  S23901     -0.0003
     29  C18       73.2580   51.2820    8.8930 C.ar  901  S23901     -0.0042
@<TRIPOS>BOND
     1    13    14   ar
     2    13    12   ar
     3    14    15   ar
     4    12    11   ar
     5    15    10   ar
     6    11    10   ar
     7    10     9    1
     8     9     8    1
     9    21    20   ar
    10    20    22   ar
    11    20    19    1
    12    17    16    2
    13     8    16    1
    14     8     7    1
    15    16    18   am
    16    19    18    1
    17    19    23    1
    18     1     2    2
    19     7     2    1
    20    23    24    1
    21     2     3    1
    22     2     4    1
    23    25    24   ar
    24    25    26   ar
    25    24    29   ar
    26    26    27   ar
    27     4     5    1
    28     4     6    1
    29    29    28   ar
    30    27    28   ar
