@<TRIPOS>MOLECULE
2zxm_JB1_A_1.pdb
 31 33 0 0 0
SMALL
GASTEIGER

@<TRIPOS>ATOM
      1  C31       16.7630   -6.6740   29.2720 C.3     1  JB11        0.0000
      2  C30       15.9410   -5.5160   29.8350 C.3     1  JB11        0.0000
      3  C29       14.4690   -5.9080   29.9930 C.3     1  JB11        0.0000
      4  C28       13.5390   -4.7250   29.7130 C.3     1  JB11        0.0001
      5  C22       13.2060   -4.4960   28.2060 C.3     1  JB11        0.0026
      6  C23       12.4810   -5.7270   27.5660 C.3     1  JB11        0.0355
      7  C24       11.0340   -6.1310   27.9280 C.3     1  JB11        0.1821
      8  O03       10.4880   -7.0950   27.0290 O.3     1  JB11       -0.2204
      9  C20       12.3800   -3.1760   27.8960 C.3     1  JB11        0.0001
     10  C21       11.5700   -2.6040   29.0920 C.3     1  JB11        0.0000
     11  C17       13.3900   -2.1230   27.2580 C.3     1  JB11        0.0003
     12  C16       14.3320   -2.8210   26.2040 C.3     1  JB11        0.0003
     13  C15       14.7850   -1.7630   25.2010 C.3     1  JB11        0.0040
     14  C14       14.3230   -0.5170   25.9380 C.3     1  JB11        0.0183
     15  C13       12.8990   -0.8400   26.4770 C.3     1  JB11        0.0034
     16  C18       11.7360   -1.1760   25.4500 C.3     1  JB11        0.0003
     17  C12       12.4680    0.3750   27.3760 C.3     1  JB11        0.0006
     18  C11       12.4030    1.7480   26.6240 C.3     1  JB11        0.0044
     19  C09       13.6880    2.0570   25.8020 C.3     1  JB11        0.0220
     20  C08       14.2780    0.8040   25.0740 C.2     1  JB11       -0.0446
     21  C07       14.7060    0.8710   23.7360 C.2     1  JB11       -0.0091
     22  C06       14.6720    2.0130   22.8870 C.2     1  JB11       -0.0090
     23  C05       14.3660    2.0260   21.4840 C.2     1  JB11       -0.0396
     24  C04       14.3840    3.3820   20.7010 C.3     1  JB11        0.0550
     25  C03       15.1830    3.2980   19.3660 C.3     1  JB11        0.1586
     26  O02       16.5810    3.1950   19.6630 O.3     1  JB11       -0.2227
     27  C02       14.7310    2.0680   18.5150 C.3     1  JB11        0.0664
     28  C01       14.8020    0.7300   19.3240 C.3     1  JB11        0.1582
     29  O01       14.2290   -0.3170   18.5370 O.3     1  JB11       -0.2227
     30  C10       14.0460    0.8710   20.6910 C.3     1  JB11        0.0489
     31  C19       13.0820   -0.1050   21.0210 C.3     1  JB11        0.0070
@<TRIPOS>BOND
     1    27    28    1
     2    27    25    1
     3    29    28    1
     4    28    30    1
     5    25    26    1
     6    25    24    1
     7    30    31    1
     8    30    23    1
     9    24    23    1
    10    23    22    2
    11    22    21    1
    12    21    20    2
    13    20    19    1
    14    20    14    1
    15    13    14    1
    16    13    12    1
    17    16    15    1
    18    19    18    1
    19    14    15    1
    20    12    11    1
    21    15    11    1
    22    15    17    1
    23    18    17    1
    24     8     7    1
    25    11     9    1
    26     6     7    1
    27     6     5    1
    28     9     5    1
    29     9    10    1
    30     5     4    1
    31     1     2    1
    32     4     3    1
    33     2     3    1
