@<TRIPOS>MOLECULE
2zxn_JC1_A_1.pdb
 31 33 0 0 0
SMALL
GASTEIGER

@<TRIPOS>ATOM
      1  C31        7.5610   -5.7270   26.2860 C.3     1  JC11        0.0000
      2  C30        8.2590   -5.3740   27.5860 C.3     1  JC11        0.0000
      3  C29        9.5040   -4.5350   27.3330 C.3     1  JC11        0.0000
      4  C28       10.7460   -5.2200   27.9180 C.3     1  JC11        0.0001
      5  C22       12.0140   -4.3280   27.9030 C.3     1  JC11        0.0026
      6  C23       12.6560   -4.3320   29.3250 C.3     1  JC11        0.0355
      7  C24       11.8080   -3.7100   30.4510 C.3     1  JC11        0.1821
      8  O03       11.0630   -2.5660   30.0300 O.3     1  JC11       -0.2204
      9  C20       13.1090   -4.7010   26.8140 C.3     1  JC11        0.0001
     10  C21       13.8390   -6.0170   27.1520 C.3     1  JC11        0.0000
     11  C17       14.1270   -3.4950   26.5370 C.3     1  JC11        0.0003
     12  C16       15.2900   -3.8220   25.5340 C.3     1  JC11        0.0003
     13  C15       15.7190   -2.5250   24.8310 C.3     1  JC11        0.0040
     14  C14       14.9260   -1.4780   25.6240 C.3     1  JC11        0.0183
     15  C13       13.5500   -2.1560   25.9440 C.3     1  JC11        0.0034
     16  C18       12.5610   -2.4210   24.7280 C.3     1  JC11        0.0003
     17  C12       12.8420   -1.2140   26.9940 C.3     1  JC11        0.0006
     18  C11       12.6170    0.2560   26.5030 C.3     1  JC11        0.0044
     19  C09       13.8760    0.8840   25.8600 C.3     1  JC11        0.0220
     20  C08       14.5940   -0.1140   24.9080 C.2     1  JC11       -0.0446
     21  C07       14.8830    0.1240   23.5530 C.2     1  JC11       -0.0091
     22  C06       14.6770    1.1870   22.6520 C.2     1  JC11       -0.0090
     23  C05       14.3010    1.1710   21.2870 C.2     1  JC11       -0.0396
     24  C04       14.1760    2.5850   20.6600 C.3     1  JC11        0.0550
     25  C03       14.9030    2.6590   19.2930 C.3     1  JC11        0.1586
     26  O02       16.3150    2.5440   19.5130 O.3     1  JC11       -0.2227
     27  C02       14.4430    1.5110   18.3460 C.3     1  JC11        0.0664
     28  C01       14.6710    0.1060   18.9930 C.3     1  JC11        0.1582
     29  O01       14.1170   -0.9010   18.1500 O.3     1  JC11       -0.2227
     30  C10       14.0320    0.0600   20.4320 C.3     1  JC11        0.0489
     31  C19       13.2370   -1.0410   20.8010 C.3     1  JC11        0.0070
@<TRIPOS>BOND
     1    29    28    1
     2    27    28    1
     3    27    25    1
     4    28    30    1
     5    25    26    1
     6    25    24    1
     7    30    31    1
     8    30    23    1
     9    24    23    1
    10    23    22    2
    11    22    21    1
    12    21    20    2
    13    16    15    1
    14    13    12    1
    15    13    14    1
    16    20    14    1
    17    20    19    1
    18    12    11    1
    19    14    15    1
    20    19    18    1
    21    15    11    1
    22    15    17    1
    23     1     2    1
    24    18    17    1
    25    11     9    1
    26     9    10    1
    27     9     5    1
    28     3     2    1
    29     3     4    1
    30     5     4    1
    31     5     6    1
    32     6     7    1
    33     8     7    1
