@<TRIPOS>MOLECULE
2zxt_MAL_A_1.pdb
 23 24 0 0 0
SMALL
GASTEIGER

@<TRIPOS>ATOM
      1  C1       -18.2140    0.2900  -19.1770 C.3   466  MAL466      0.2695
      2  C2       -17.9160   -1.1720  -19.4580 C.3   466  MAL466      0.2406
      3  C3       -19.2230   -1.9360  -19.3610 C.3   466  MAL466      0.2198
      4  C4       -19.7660   -1.7730  -17.9380 C.3   466  MAL466      0.2144
      5  C5       -19.8760   -0.3070  -17.5430 C.3   466  MAL466      0.1835
      6  C6       -20.0990   -0.2070  -16.0460 C.3   466  MAL466      0.2142
      7  O1       -19.1380    0.7950  -20.1250 O.3   466  MAL466     -0.3257
      8  O2       -17.3200   -1.3240  -20.7190 O.3   466  MAL466     -0.2149
      9  O3       -18.9540   -3.2810  -19.6590 O.3   466  MAL466     -0.2174
     10  O4       -21.0330   -2.3660  -17.8090 O.3   466  MAL466     -0.2176
     11  O5       -18.6900    0.4000  -17.8490 O.3   466  MAL466     -0.3256
     12  O6       -19.9350    1.1150  -15.5720 O.3   466  MAL466     -0.2176
     13  C1'      -19.5860    4.2760  -22.4070 C.3   466  MAL466      0.3023
     14  C2'      -18.2490    3.5390  -22.5140 C.3   466  MAL466      0.2433
     15  C3'      -18.3460    2.1090  -21.9980 C.3   466  MAL466      0.2168
     16  C4'      -18.8820    2.1160  -20.5660 C.3   466  MAL466      0.1804
     17  C5'      -20.1350    3.0000  -20.4240 C.3   466  MAL466      0.1804
     18  C6'      -20.4550    3.2380  -18.9530 C.3   466  MAL466      0.2141
     19  O1'      -20.5700    3.6820  -23.2220 O.3   466  MAL466     -0.1869
     20  O2'      -17.7830    3.5210  -23.8400 O.3   466  MAL466     -0.2148
     21  O3'      -17.0550    1.5570  -22.0160 O.3   466  MAL466     -0.2175
     22  O5'      -19.9980    4.2710  -21.0520 O.3   466  MAL466     -0.3237
     23  O6'      -21.6420    3.9860  -18.8630 O.3   466  MAL466     -0.2176
@<TRIPOS>BOND
     1    20    14    1
     2    19    13    1
     3    14    13    1
     4    14    15    1
     5    13    22    1
     6    21    15    1
     7    15    16    1
     8    22    17    1
     9     8     2    1
    10    16    17    1
    11    16     7    1
    12    17    18    1
    13     7     1    1
    14     9     3    1
    15     2     3    1
    16     2     1    1
    17     3     4    1
    18     1    11    1
    19    18    23    1
    20     4    10    1
    21     4     5    1
    22    11     5    1
    23     5     6    1
    24     6    12    1
