@<TRIPOS>MOLECULE
2zxu_DST_A_1.pdb
 14 13 0 0 0
SMALL
GASTEIGER

@<TRIPOS>ATOM
      1  O4         6.7870   51.4420   85.8410 O.2   317  DST317     -0.2220
      2  P1         7.3420   52.6800   86.4730 P.3   317  DST317      0.5394
      3  O6         8.3130   52.4100   87.5840 O.3   317  DST317     -0.1143
      4  O5         6.2460   53.6370   86.9120 O.3   317  DST317     -0.1143
      5  O2         8.2060   53.4010   85.2990 O.3   317  DST317     -0.1955
      6  P3         8.0010   54.9180   84.7290 P.3   317  DST317      0.4273
      7  O8         8.9950   55.8130   85.4510 O.3   317  DST317     -0.1309
      8  O7         6.5280   55.2500   84.8760 O.2   317  DST317     -0.2431
      9  S9         8.4560   54.8830   82.7200 S.3   317  DST317     -0.0237
     10  C10        8.3840   56.3180   81.6950 C.3   317  DST317      0.0942
     11  C11        8.5700   55.8510   80.2610 C.2   317  DST317     -0.0224
     12  C12        9.7540   55.9210   79.6040 C.2   317  DST317     -0.0470
     13  C13        9.8450   55.4220   78.1950 C.3   317  DST317      0.0261
     14  C14       10.9870   56.4820   80.2510 C.3   317  DST317      0.0261
@<TRIPOS>BOND
     1    13    12    1
     2    12    14    1
     3    12    11    2
     4    11    10    1
     5    10     9    1
     6     9     6    1
     7     6     8    2
     8     6     5    1
     9     6     7    1
    10     5     2    1
    11     1     2    2
    12     2     4    1
    13     2     3    1
