@<TRIPOS>MOLECULE
2zxw_DMU_C_1.pdb
 33 34 0 0 0
SMALL
GASTEIGER

@<TRIPOS>ATOM
      1  C1        74.2550  345.9280  190.6070 C.2   272  DMU272      0.3077
      2  C2        74.4930  347.1780  189.7080 C.2   272  DMU272      0.2743
      3  C3        73.3750  347.5970  188.7660 C.2   272  DMU272      0.2108
      4  C4        72.1480  346.7860  188.6600 C.3   272  DMU272      0.2615
      5  O5        71.9440  345.5860  189.4640 O.2   272  DMU272     -0.4388
      6  C6        72.9690  345.1510  190.4020 C.2   272  DMU272      0.3364
      7  O7        73.3520  349.0200  188.4090 O.2   272  DMU272     -0.4187
      8  O16       72.5750  344.0640  191.3110 O.2   272  DMU272     -0.4458
      9  C18       73.3980  342.8690  191.3750 C.3   272  DMU272      0.2087
     10  C19       73.3980  342.1280  192.6910 C.3   272  DMU272      0.0475
     11  C22       72.9980  340.6620  192.5290 C.3   272  DMU272      0.0038
     12  C25       72.5440  340.0950  193.8750 C.3   272  DMU272      0.0001
     13  C28       73.1810  338.7640  194.2780 C.3   272  DMU272      0.0000
     14  C31       72.0710  337.8180  194.7810 C.3   272  DMU272      0.0000
     15  C34       72.5270  336.7850  195.8180 C.3   272  DMU272      0.0000
     16  C37       73.5470  335.7610  195.2910 C.3   272  DMU272      0.0000
     17  C40       74.2530  334.9950  196.4250 C.3   272  DMU272      0.0000
     18  C43       73.4120  333.8860  197.0690 C.3   272  DMU272      0.0000
     19  O49       74.3460  346.3310  191.9790 O.2   272  DMU272     -0.2762
     20  O55       75.0490  348.2600  190.4630 O.2   272  DMU272     -0.2798
     21  C57       71.0470  347.1570  187.6720 C.3   272  DMU272      0.2335
     22  O61       69.6800  346.9340  188.1260 O.3   272  DMU272     -0.2159
     23  C5        74.0810  349.8370  186.1100 C.2   272  DMU272      0.3083
     24  C7        73.6000  350.7650  184.9590 C.2   272  DMU272      0.2787
     25  C8        72.0880  350.9820  184.6680 C.2   272  DMU272      0.2575
     26  C9        71.0960  350.4490  185.6860 C.3   272  DMU272      0.2659
     27  O1        71.5450  349.6450  186.8230 O.2   272  DMU272     -0.4384
     28  C10       72.9770  349.3620  187.0370 C.2   272  DMU272      0.3409
     29  O2        71.8440  352.3460  184.3280 O.2   272  DMU272     -0.2839
     30  O3        74.8140  348.7070  185.6130 O.2   272  DMU272     -0.2762
     31  O4        74.3880  350.8220  183.7600 O.2   272  DMU272     -0.2797
     32  C11       69.5990  350.7340  185.5350 C.3   272  DMU272      0.2336
     33  O6        68.8440  349.6690  184.9170 O.3   272  DMU272     -0.2159
@<TRIPOS>BOND
     1    31    24    1
     2    29    25    1
     3    25    24    2
     4    25    26    1
     5    33    32    1
     6    24    23    1
     7    32    26    1
     8    30    23    1
     9    26    27    1
    10    23    28    2
    11    27    28    1
    12    28     7    1
    13    21    22    1
    14    21     4    1
    15     7     3    1
    16     4     3    1
    17     4     5    1
    18     3     2    2
    19     5     6    1
    20     2    20    1
    21     2     1    1
    22     6     1    2
    23     6     8    1
    24     1    19    1
    25     8     9    1
    26     9    10    1
    27    11    10    1
    28    11    12    1
    29    12    13    1
    30    13    14    1
    31    14    15    1
    32    16    15    1
    33    16    17    1
    34    17    18    1
