@<TRIPOS>MOLECULE
2zxy_HEC_A_1.pdb
 43 50 0 0 0
SMALL
GASTEIGER

@<TRIPOS>ATOM
      1 FE         18.8340   33.0620    5.4190 Fe    200  HEC200      0.0000
      2  CHA       15.6820   34.3350    5.9490 C.2   200  HEC200      0.0000
      3  CHB       18.5810   31.2780    8.2990 C.2   200  HEC200      0.0000
      4  CHC       21.9170   31.6990    4.8360 C.2   200  HEC200      0.0000
      5  CHD       19.1700   34.9680    2.6170 C.2   200  HEC200      0.0000
      6  NA        17.3890   32.8180    6.8170 N.2   200  HEC200      0.0000
      7  C1A       16.1690   33.4540    6.8720 C.2   200  HEC200      0.0000
      8  C2A       15.4890   33.0560    8.0760 C.2   200  HEC200      0.0000
      9  C3A       16.2820   32.1940    8.7140 C.2   200  HEC200      0.0000
     10  C4A       17.4930   32.0380    7.9430 C.2   200  HEC200      0.0000
     11  CMA       15.9760   31.4410   10.0170 C.3   200  HEC200      0.0000
     12  CAA       14.0610   33.4870    8.4520 C.3   200  HEC200      0.0000
     13  CBA       13.0490   32.5200    7.8480 C.3   200  HEC200      0.0000
     14  CGA       11.6430   33.0510    8.0040 C.2   200  HEC200      0.0000
     15  O1A       11.2820   34.0200    7.2910 O.co2 200  HEC200      0.0000
     16  O2A       10.8680   32.5090    8.8300 O.co2 200  HEC200      0.0000
     17  NB        20.0110   31.7510    6.3760 N.ar  200  HEC200      0.0000
     18  C1B       19.7290   31.1200    7.5680 C.ar  200  HEC200      0.0000
     19  C2B       20.8090   30.2170    7.8890 C.ar  200  HEC200      0.0000
     20  C3B       21.6960   30.2810    6.8910 C.ar  200  HEC200      0.0000
     21  C4B       21.2350   31.2760    5.9510 C.ar  200  HEC200      0.0000
     22  CMB       20.8820   29.3660    9.1710 C.3   200  HEC200      0.0000
     23  CAB       23.0130   29.4960    6.7400 C.3   200  HEC200      0.0000
     24  CBB       22.7070   27.9970    6.5550 C.3   200  HEC200      0.0000
     25  NC        20.2750   33.3180    4.0280 N.2   200  HEC200      0.0000
     26  C1C       21.5110   32.7060    4.0020 C.2   200  HEC200      0.0000
     27  C2C       22.2790   33.2510    2.9070 C.2   200  HEC200      0.0000
     28  C3C       21.5090   34.1550    2.2920 C.2   200  HEC200      0.0000
     29  C4C       20.2380   34.1910    2.9700 C.2   200  HEC200      0.0000
     30  CMC       23.7490   32.9050    2.6050 C.3   200  HEC200      0.0000
     31  CAC       21.9250   35.1680    1.2090 C.3   200  HEC200      0.0000
     32  CBC       22.3720   34.4310   -0.0680 C.3   200  HEC200      0.0000
     33  ND        17.6220   34.3770    4.4400 N.ar  200  HEC200      0.0000
     34  C1D       17.9650   35.0250    3.2640 C.ar  200  HEC200      0.0000
     35  C2D       16.8600   35.8140    2.8080 C.ar  200  HEC200      0.0000
     36  C3D       15.7930   35.6600    3.8610 C.ar  200  HEC200      0.0000
     37  C4D       16.3450   34.7550    4.8290 C.ar  200  HEC200      0.0000
     38  CMD       16.7840   36.6700    1.5410 C.3   200  HEC200      0.0000
     39  CAD       14.3880   36.2670    3.8130 C.3   200  HEC200      0.0000
     40  CBD       13.4060   35.2490    3.2470 C.3   200  HEC200      0.0000
     41  CGD       12.8060   34.4400    4.3660 C.2   200  HEC200      0.0000
     42  O1D       12.3860   35.0650    5.3760 O.co2 200  HEC200      0.0000
     43  O2D       12.7600   33.1870    4.2620 O.co2 200  HEC200      0.0000
@<TRIPOS>BOND
     1    32    31    1
     2    31    28    1
     3    38    35    1
     4    28    27    2
     5    28    29    1
     6    30    27    1
     7     5    29    1
     8     5    34    2
     9    35    34   ar
    10    35    36   ar
    11    27    26    1
    12    29    25    2
    13    40    39    1
    14    40    41    1
    15    34    33   ar
    16    39    36    1
    17    36    37   ar
    18    26    25    1
    19    26     4    2
    20    25     1    1
    21    43    41   ar
    22    41    42   ar
    23    33    37   ar
    24    33     1    1
    25    37     2    2
    26     4    21    1
    27     1    17    1
    28     1     6    1
    29     2     7    1
    30    21    17   ar
    31    21    20   ar
    32    17    18   ar
    33    24    23    1
    34    23    20    1
    35     6     7    2
    36     6    10    1
    37     7     8    1
    38    20    19   ar
    39    15    14   ar
    40    18    19   ar
    41    18     3    1
    42    13    14    1
    43    13    12    1
    44    19    22    1
    45    10     3    2
    46    10     9    1
    47    14    16   ar
    48     8    12    1
    49     8     9    2
    50     9    11    1
