@<TRIPOS>MOLECULE
2zxz_P26_A_1.pdb
 27 30 0 0 0
SMALL
GASTEIGER

@<TRIPOS>ATOM
      1  O2        54.3090   44.2320   30.5850 O.co2   1  P261       -0.2406
      2  C22       54.6610   45.1670   29.8320 C.2     1  P261        0.3878
      3  O1        53.8330   45.9420   29.2940 O.co2   1  P261       -0.2406
      4  C19       56.1230   45.4070   29.5870 C.ar    1  P261        0.0798
      5  C18       56.5350   45.9730   28.3810 C.ar    1  P261        0.0064
      6  C17       57.8830   46.2190   28.1530 C.ar    1  P261        0.0009
      7  C20       57.0630   45.0920   30.5680 C.ar    1  P261        0.0064
      8  C21       58.4160   45.3380   30.3350 C.ar    1  P261        0.0009
      9  C16       58.8340   45.8990   29.1260 C.ar    1  P261        0.0326
     10  C13       60.2790   46.2070   28.8290 C.3     1  P261        0.2278
     11  O4        60.3540   47.6240   28.6750 O.3     1  P261       -0.3250
     12  C15       61.3290   47.8570   27.6700 C.3     1  P261        0.1773
     13  C14       61.1240   46.6880   26.7260 C.3     1  P261        0.1773
     14  O3        60.6440   45.6390   27.5670 O.3     1  P261       -0.3250
     15  C10       61.2780   45.8240   29.8970 C.ar    1  P261        0.0323
     16  C9        61.3190   46.5010   31.1280 C.ar    1  P261       -0.0039
     17  C8        62.2860   46.1220   32.0690 C.ar    1  P261       -0.0269
     18  C01       62.4950   46.6950   33.4420 C.3     1  P261        0.0189
     19  C2        61.2510   46.4740   34.2990 C.3     1  P261        0.0044
     20  C1        62.8510   48.1750   33.3710 C.3     1  P261        0.0044
     21  C11       62.2120   44.8110   29.6270 C.ar    1  P261        0.0004
     22  C12       63.1720   44.4450   30.5740 C.ar    1  P261       -0.0048
     23  C7        63.1850   45.1220   31.7950 C.ar    1  P261       -0.0268
     24  C02       64.1290   44.8800   32.9300 C.3     1  P261        0.0189
     25  C6        63.9920   43.4470   33.4320 C.3     1  P261        0.0044
     26  C5        65.5580   45.1790   32.4910 C.3     1  P261        0.0044
     27  C3        63.6800   45.8910   33.9900 C.3     1  P261        0.0081
@<TRIPOS>BOND
     1    13    14    1
     2    13    12    1
     3    14    10    1
     4    12    11    1
     5     6     5   ar
     6     6     9   ar
     7     5     4   ar
     8    11    10    1
     9    10     9    1
    10    10    15    1
    11     9     8   ar
    12     3     2   ar
    13     4     2    1
    14     4     7   ar
    15    21    15   ar
    16    21    22   ar
    17     2     1   ar
    18    15    16   ar
    19     8     7   ar
    20    22    23   ar
    21    16    17   ar
    22    23    17   ar
    23    23    24    1
    24    17    18    1
    25    26    24    1
    26    24    25    1
    27    24    27    1
    28    20    18    1
    29    18    27    1
    30    18    19    1
