@<TRIPOS>MOLECULE
2zy0_21P_A_1.pdb
 27 30 0 0 0
SMALL
GASTEIGER

@<TRIPOS>ATOM
      1  C11       14.6120   13.3160   15.6140 C.ar    1  21P1        0.0000
      2  C14       13.9110   15.2000   12.9860 C.3     1  21P1        0.0000
      3  C9        13.6550   14.9010   17.1850 C.ar    1  21P1        0.0000
      4  C13       12.6670   14.7520   14.8670 C.3     1  21P1        0.0000
      5  C8        14.5810   14.4730   18.1320 C.ar    1  21P1        0.0000
      6  C5        18.4140   13.4490   18.6980 C.3     1  21P1        0.0000
      7  C1        15.1710   16.9480   19.8010 C.3     1  21P1        0.0000
      8  C12       15.5420   12.9000   16.5650 C.ar    1  21P1        0.0000
      9  C19        8.5720   13.6690   15.8120 C.ar    1  21P1        0.0000
     10  C3        16.1060   14.1640   20.5830 C.3     1  21P1        0.0000
     11  C6        16.5130   11.2380   19.5880 C.3     1  21P1        0.0000
     12  C18        8.8780   14.4290   14.6820 C.ar    1  21P1        0.0000
     13  C21       10.9440   13.5920   16.3520 C.ar    1  21P1        0.0000
     14  C20        9.6180   13.2570   16.6470 C.ar    1  21P1        0.0000
     15  C10       13.6670   14.3100   15.9140 C.ar    1  21P1        0.0000
     16  C16       11.2510   14.3500   15.2190 C.ar    1  21P1        0.0000
     17  C17       10.2030   14.7640   14.3930 C.ar    1  21P1        0.0000
     18  O2         6.8820   12.3770   16.9170 O.co2   1  21P1        0.0000
     19  C22        7.1330   13.3190   16.1310 C.2     1  21P1        0.0000
     20  O1         6.1970   13.9920   15.6290 O.co2   1  21P1        0.0000
     21  O4        12.6990   16.1750   14.7400 O.3     1  21P1        0.0000
     22  C15       13.7090   16.4790   13.7820 C.3     1  21P1        0.0000
     23  O3        13.0130   14.2540   13.5740 O.3     1  21P1        0.0000
     24 SI1        14.6950   15.1520   19.8610 Si      1  21P1        0.0000
     25  C2        13.0850   14.9390   20.7650 C.3     1  21P1        0.0000
     26  C7        15.5080   13.4930   17.8210 C.ar    1  21P1        0.0000
     27 SI2        16.6710   13.0490   19.1960 Si      1  21P1        0.0000
@<TRIPOS>BOND
     1     2    23    1
     2     2    22    1
     3    23     4    1
     4    22    21    1
     5    17    12   ar
     6    17    16   ar
     7    12     9   ar
     8    21     4    1
     9     4    16    1
    10     4    15    1
    11    16    13   ar
    12     1    15   ar
    13     1     8   ar
    14    20    19   ar
    15     9    19    1
    16     9    14   ar
    17    15     3   ar
    18    19    18   ar
    19    13    14   ar
    20     8    26   ar
    21     3     5   ar
    22    26     5   ar
    23    26    27    1
    24     5    24    1
    25     6    27    1
    26    27    11    1
    27    27    10    1
    28     7    24    1
    29    24    10    1
    30    24    25    1
