@<TRIPOS>MOLECULE
2zy1_830_A_1.pdb
 24 25 0 0 0
SMALL
GASTEIGER

@<TRIPOS>ATOM
      1  CAJ       13.0250   57.9300   36.9900 C.ar  808  830808      0.0375
      2  CAF       11.9720   58.6310   36.4120 C.ar  808  830808      0.0031
      3  CAE       11.5460   59.8370   36.9550 C.ar  808  830808      0.0002
      4  CAG       12.1690   60.3470   38.0910 C.ar  808  830808      0.0031
      5  CAK       13.2170   59.6440   38.6680 C.ar  808  830808      0.0375
      6  CAV       13.6540   58.4400   38.1200 C.ar  808  830808      0.1453
      7  OAS       14.7730   57.8650   38.6400 O.3   808  830808     -0.4535
      8  CAW       15.1870   56.7080   38.0480 C.ar  808  830808      0.1450
      9  CAM       16.0440   56.7590   36.9540 C.ar  808  830808      0.0332
     10  CAL       14.8530   55.4800   38.6050 C.ar  808  830808      0.0375
     11  CAH       15.3850   54.3100   38.0680 C.ar  808  830808      0.0028
     12  CAI       16.2450   54.3650   36.9770 C.ar  808  830808     -0.0041
     13  CAU       16.5800   55.5930   36.4190 C.ar  808  830808     -0.0191
     14  CAP       17.5640   55.6720   35.2490 C.3   808  830808      0.0283
     15  CAN       18.9900   56.0180   35.6930 C.3   808  830808      0.0281
     16  CAO       19.6100   54.9210   36.5620 C.3   808  830808      0.1155
     17  NAR       19.3850   53.6280   35.8970 N.am  808  830808     -0.2050
     18  CAT       19.3900   52.4720   36.5520 C.2   808  830808      0.2488
     19  OAA       19.5620   52.3680   37.7680 O.2   808  830808     -0.2728
     20  CAQ       19.0890   51.2510   35.6820 C.3   808  830808      0.1454
     21  PAX       20.5540   50.2720   35.2740 P.3   808  830808      0.1264
     22  OAC       21.2780   51.0530   34.0650 O.2   808  830808     -0.4596
     23  OAD       21.4880   50.3020   36.5840 O.3   808  830808     -0.3568
     24  OAB       20.1230   48.9070   34.8850 O.3   808  830808     -0.3568
@<TRIPOS>BOND
     1    22    21    2
     2    24    21    1
     3    14    15    1
     4    14    13    1
     5    21    20    1
     6    21    23    1
     7    20    18    1
     8    15    16    1
     9    17    18   am
    10    17    16    1
    11     2     3   ar
    12     2     1   ar
    13    13     9   ar
    14    13    12   ar
    15    18    19    2
    16     9     8   ar
    17     3     4   ar
    18    12    11   ar
    19     1     6   ar
    20     8    10   ar
    21     8     7    1
    22    11    10   ar
    23     4     5   ar
    24     6     7    1
    25     6     5   ar
