@<TRIPOS>MOLECULE
2zy2_PLP_A_1.pdb
 15 15 0 0 0
SMALL
GASTEIGER

@<TRIPOS>ATOM
      1  N1        89.2280  122.8430   82.4100 N.2   900  PLP900     -0.2764
      2  C2        90.5540  122.7120   82.0570 C.2   900  PLP900      0.0619
      3  C2A       91.5470  123.7090   82.6080 C.3   900  PLP900      0.0495
      4  C3        91.0000  121.5730   81.3740 C.3   900  PLP900      0.1872
      5  O3        92.3780  121.3260   81.2860 O.3   900  PLP900     -0.2170
      6  C4        90.0850  120.5620   80.9690 C.3   900  PLP900      0.0403
      7  C4A       90.5290  119.6420   79.8490 C.3   900  PLP900      0.0032
      8  C5        88.7250  120.6360   81.3580 C.3   900  PLP900      0.0574
      9  C6        88.3530  121.7920   82.1120 C.3   900  PLP900      0.1274
     10  C5A       87.5160  119.8350   80.5530 C.3   900  PLP900      0.1558
     11  O4P       86.5840  120.6820   79.6840 O.3   900  PLP900     -0.2702
     12  P         85.2180  120.1550   79.1000 P.3   900  PLP900      0.5326
     13  O1P       85.6420  119.2640   78.0330 O.2   900  PLP900     -0.2224
     14  O2P       83.9660  120.8930   78.4320 O.3   900  PLP900     -0.1145
     15  O3P       84.6130  119.7610   80.3340 O.3   900  PLP900     -0.1145
@<TRIPOS>BOND
     1    13    12    2
     2    14    12    1
     3    12    11    1
     4    12    15    1
     5    11    10    1
     6     7     6    1
     7    10     8    1
     8     6     8    1
     9     6     4    1
    10     5     4    1
    11     8     9    1
    12     4     2    1
    13     2     1    2
    14     2     3    1
    15     9     1    1
