@<TRIPOS>MOLECULE
2zy3_PLP_A_1.pdb
 15 15 0 0 0
SMALL
GASTEIGER

@<TRIPOS>ATOM
      1  N1       115.3650   86.5530   58.7040 N.ar  900  PLP900     -0.2452
      2  C2       115.6620   87.5460   57.8170 C.ar  900  PLP900      0.0978
      3  C2A      115.1030   87.4270   56.3370 C.3   900  PLP900      0.0555
      4  C3       116.4140   88.6120   58.2220 C.ar  900  PLP900      0.2049
      5  O3       116.5580   89.6910   57.3410 O.3   900  PLP900     -0.2857
      6  C4       116.9260   88.6600   59.5400 C.ar  900  PLP900      0.0182
      7  C4A      117.7750   89.8860   59.9760 C.3   900  PLP900      0.0342
      8  C5       116.6420   87.6210   60.4280 C.ar  900  PLP900      0.0261
      9  C6       115.8250   86.5940   59.9900 C.ar  900  PLP900      0.0965
     10  C5A      117.4960   87.3210   61.7610 C.3   900  PLP900      0.1815
     11  O4P      118.4170   86.0700   61.8280 O.3   900  PLP900     -0.2653
     12  P        118.6490   85.5490   63.2720 P.3   900  PLP900      0.5329
     13  O1P      119.5320   86.5960   63.8220 O.3   900  PLP900     -0.1145
     14  O2P      119.2960   84.1110   63.2190 O.2   900  PLP900     -0.2224
     15  O3P      117.3340   85.2750   63.8980 O.3   900  PLP900     -0.1145
@<TRIPOS>BOND
     1     3     2    1
     2     5     4    1
     3     2     4   ar
     4     2     1   ar
     5     4     6   ar
     6     1     9   ar
     7     6     7    1
     8     6     8   ar
     9     9     8   ar
    10     8    10    1
    11    10    11    1
    12    11    12    1
    13    14    12    2
    14    12    13    1
    15    12    15    1
