@<TRIPOS>MOLECULE
2zy4_PLP_A_1.pdb
 15 15 0 0 0
SMALL
GASTEIGER

@<TRIPOS>ATOM
      1  N1       115.6850   86.9840   58.0320 N.ar  900  PLP900     -0.2452
      2  C2       115.9790   88.0180   57.1990 C.ar  900  PLP900      0.0978
      3  C2A      115.3730   88.0420   55.7820 C.3   900  PLP900      0.0555
      4  C3       116.7430   89.0410   57.6200 C.ar  900  PLP900      0.2049
      5  O3       117.0290   89.9910   56.7060 O.3   900  PLP900     -0.2857
      6  C4       117.2460   89.0730   58.9460 C.ar  900  PLP900      0.0182
      7  C4A      117.9350   90.3790   59.3870 C.3   900  PLP900      0.0342
      8  C5       116.9100   87.9990   59.7670 C.ar  900  PLP900      0.0261
      9  C6       116.1440   86.9750   59.2670 C.ar  900  PLP900      0.0965
     10  C5A      117.4650   87.7070   61.2530 C.3   900  PLP900      0.1815
     11  O4P      118.2700   86.3120   61.2350 O.3   900  PLP900     -0.2653
     12  P        118.7310   85.9140   62.6300 P.3   900  PLP900      0.5329
     13  O1P      119.5650   87.0050   63.1730 O.3   900  PLP900     -0.1145
     14  O2P      119.5510   84.6790   62.3450 O.2   900  PLP900     -0.2224
     15  O3P      117.5530   85.5250   63.3490 O.3   900  PLP900     -0.1145
@<TRIPOS>BOND
     1     3     2    1
     2     5     4    1
     3     2     4   ar
     4     2     1   ar
     5     4     6   ar
     6     1     9   ar
     7     6     7    1
     8     6     8   ar
     9     9     8   ar
    10     8    10    1
    11    11    10    1
    12    11    12    1
    13    14    12    2
    14    12    13    1
    15    12    15    1
