@<TRIPOS>MOLECULE
2zy5_PLP_A_1.pdb
 15 15 0 0 0
SMALL
GASTEIGER

@<TRIPOS>ATOM
      1  N1       115.6960   86.3930   58.6950 N.ar  900  PLP900     -0.2452
      2  C2       115.9310   87.4840   57.8560 C.ar  900  PLP900      0.0978
      3  C2A      115.2940   87.4990   56.4660 C.3   900  PLP900      0.0555
      4  C3       116.6230   88.5880   58.3480 C.ar  900  PLP900      0.2049
      5  O3       117.0310   89.6250   57.4310 O.3   900  PLP900     -0.2857
      6  C4       117.0470   88.5930   59.7100 C.ar  900  PLP900      0.0182
      7  C4A      117.6730   89.8840   60.2040 C.3   900  PLP900      0.0342
      8  C5       116.7800   87.4750   60.5360 C.ar  900  PLP900      0.0261
      9  C6       116.0990   86.4060   60.0060 C.ar  900  PLP900      0.0965
     10  C5A      117.3750   87.2620   61.9580 C.3   900  PLP900      0.1815
     11  O4P      118.4800   86.3020   62.0360 O.3   900  PLP900     -0.2653
     12  P        118.6840   85.3930   63.3630 P.3   900  PLP900      0.5329
     13  O1P      119.6130   86.3400   63.9260 O.3   900  PLP900     -0.1145
     14  O2P      119.3800   84.0040   63.0300 O.2   900  PLP900     -0.2224
     15  O3P      117.4580   85.1040   64.0900 O.3   900  PLP900     -0.1145
@<TRIPOS>BOND
     1     3     2    1
     2     5     4    1
     3     2     4   ar
     4     2     1   ar
     5     4     6   ar
     6     1     9   ar
     7     6     7    1
     8     6     8   ar
     9     9     8   ar
    10     8    10    1
    11    10    11    1
    12    11    12    1
    13    14    12    2
    14    12    13    1
    15    12    15    1
