@<TRIPOS>MOLECULE
2zya_6PG_A_1.pdb
 17 16 0 0 0
SMALL
GASTEIGER

@<TRIPOS>ATOM
      1  C1        46.3970   53.7290   76.2010 C.2   2002  6PG2002     0.3973
      2  C2        46.6110   53.7500   77.7160 C.3   2002  6PG2002     0.2865
      3  C3        45.9450   54.9900   78.4090 C.3   2002  6PG2002     0.2260
      4  C4        45.8050   54.8260   79.9650 C.3   2002  6PG2002     0.2179
      5  C5        47.1040   54.6590   80.7240 C.3   2002  6PG2002     0.2147
      6  C6        47.0890   53.2290   81.3760 C.3   2002  6PG2002     0.1892
      7  O1A       45.5940   52.9620   75.7260 O.co2 2002  6PG2002    -0.2427
      8  O1        47.1060   54.5160   75.3860 O.co2 2002  6PG2002    -0.2427
      9  O2        46.0500   52.5320   78.2490 O.3   2002  6PG2002    -0.2080
     10  O3        44.6350   55.1840   77.9000 O.3   2002  6PG2002    -0.2169
     11  O4        45.1240   55.9580   80.5570 O.3   2002  6PG2002    -0.2175
     12  O5        48.2580   54.8660   79.8090 O.3   2002  6PG2002    -0.2176
     13  O6        45.8020   52.9440   82.1150 O.3   2002  6PG2002    -0.2674
     14  P         46.1110   53.0880   83.7560 P.3   2002  6PG2002     0.5327
     15  O1P       46.6450   54.4530   84.0450 O.2   2002  6PG2002    -0.2224
     16  O2P       44.7580   52.8520   84.5470 O.3   2002  6PG2002    -0.1145
     17  O3P       47.2570   51.9890   84.1470 O.3   2002  6PG2002    -0.1145
@<TRIPOS>BOND
     1     8     1   ar
     2     7     1   ar
     3     1     2    1
     4     2     9    1
     5     2     3    1
     6    10     3    1
     7     3     4    1
     8    12     5    1
     9     4    11    1
    10     4     5    1
    11     5     6    1
    12     6    13    1
    13    13    14    1
    14    14    15    2
    15    14    17    1
    16    14    16    1
