@<TRIPOS>MOLECULE
2zyb_KSL_A_1.pdb
 24 27 0 0 0
SMALL
GASTEIGER

@<TRIPOS>ATOM
      1  C8        19.1860   35.3390    8.7970 C.3   511  KSL511      0.0324
      2  C7        19.0140   36.2140    7.5540 C.ar  511  KSL511     -0.0069
      3  C5        17.9860   35.9450    6.6540 C.ar  511  KSL511     -0.0030
      4  C4        17.8040   36.7030    5.4940 C.ar  511  KSL511     -0.0006
      5  C3        18.7660   37.6420    5.1120 C.ar  511  KSL511     -0.0030
      6  C6        20.0060   37.2610    7.2400 C.ar  511  KSL511      0.0642
      7  C2        19.8370   37.9920    5.9710 C.ar  511  KSL511     -0.0069
      8  C1        20.8120   39.0920    5.6440 C.3   511  KSL511      0.0324
      9  N9        21.0820   37.5430    8.0460 N.pl3 511  KSL511     -0.1935
     10  C10       22.3750   37.0680    7.8750 C.ar  511  KSL511      0.1696
     11  C18       23.5120   37.6410    8.6450 C.ar  511  KSL511      0.1181
     12  C17       23.6050   38.6800    9.6410 C.ar  511  KSL511      0.1210
     13  N16       24.8940   38.7240   10.0370 N.ar  511  KSL511     -0.2220
     14  C15       25.5680   37.7770    9.3500 C.ar  511  KSL511      0.1829
     15  N14       24.7240   37.0990    8.5400 N.ar  511  KSL511     -0.2838
     16  C13       24.9360   36.0710    7.6760 C.ar  511  KSL511      0.0846
     17  C12       23.8800   35.5540    6.9260 C.ar  511  KSL511      0.1179
     18  N11       22.6360   36.0180    7.0820 N.ar  511  KSL511     -0.2243
     19  C19       26.2850   35.4400    7.5310 C.ar  511  KSL511      0.0177
     20  C24       27.2140   35.5330    8.5440 C.ar  511  KSL511      0.0015
     21  C23       28.4350   34.8690    8.4430 C.ar  511  KSL511      0.0000
     22  C22       28.7650   34.2090    7.2500 C.ar  511  KSL511      0.0000
     23  C21       27.8450   34.1120    6.2430 C.ar  511  KSL511      0.0000
     24  C20       26.5860   34.7010    6.3960 C.ar  511  KSL511      0.0015
@<TRIPOS>BOND
     1     5     4   ar
     2     5     7   ar
     3     4     3   ar
     4     8     7    1
     5     7     6   ar
     6    23    24   ar
     7    23    22   ar
     8    24    19   ar
     9     3     2   ar
    10    17    18   ar
    11    17    16   ar
    12    18    10   ar
    13     6     2   ar
    14     6     9    1
    15    22    21   ar
    16    19    16    1
    17    19    20   ar
    18     2     1    1
    19    16    15   ar
    20    10     9    1
    21    10    11   ar
    22    21    20   ar
    23    15    11   ar
    24    15    14   ar
    25    11    12   ar
    26    14    13   ar
    27    12    13   ar
