@<TRIPOS>MOLECULE
2zyd_GLO_A_1.pdb
 12 11 0 0 0
SMALL
GASTEIGER

@<TRIPOS>ATOM
      1  C1         0.1050   25.5400   36.8730 C.2   3929  GLO3929     0.2427
      2  C2        -1.3130   25.9830   37.0140 C.3   3929  GLO3929     0.2486
      3  C3        -1.4500   27.4700   37.3580 C.3   3929  GLO3929     0.2225
      4  C4        -0.9170   27.9910   38.7070 C.3   3929  GLO3929     0.2179
      5  C5        -2.0670   28.2320   39.7190 C.3   3929  GLO3929     0.2175
      6  C6        -2.8100   27.0080   40.3210 C.3   3929  GLO3929     0.2175
      7  O1         0.5790   24.7980   37.6820 O.2   3929  GLO3929    -0.2854
      8  O2        -1.8430   25.8670   35.7450 O.3   3929  GLO3929    -0.2118
      9  O3        -2.8400   27.8170   37.2110 O.3   3929  GLO3929    -0.2171
     10  O4         0.1340   27.1580   39.2400 O.3   3929  GLO3929    -0.2175
     11  O5        -1.5680   29.0990   40.7290 O.3   3929  GLO3929    -0.2175
     12  O6        -3.9160   27.4660   41.1370 O.3   3929  GLO3929    -0.2175
@<TRIPOS>BOND
     1     8     2    1
     2     1     2    1
     3     1     7    2
     4     2     3    1
     5     9     3    1
     6     3     4    1
     7     4    10    1
     8     4     5    1
     9     5     6    1
    10     5    11    1
    11     6    12    1
