@<TRIPOS>MOLECULE
2zyf_AKG_A_1.pdb
 10 9 0 0 0
SMALL
GASTEIGER

@<TRIPOS>ATOM
      1  C1        38.5170  -38.2010  -22.5090 C.2   383  AKG383      0.4219
      2  O1        38.5140  -38.9710  -23.4990 O.co2 383  AKG383     -0.2373
      3  O2        39.1010  -37.0890  -22.5590 O.co2 383  AKG383     -0.2373
      4  C2        37.8330  -38.6450  -21.2630 C.2   383  AKG383      0.2526
      5  O5        36.9580  -39.5090  -21.3000 O.2   383  AKG383     -0.2843
      6  C3        38.2790  -38.0960  -19.9340 C.3   383  AKG383      0.0881
      7  C4        39.5370  -38.8910  -19.6160 C.3   383  AKG383      0.1224
      8  C5        40.4920  -38.2430  -18.6380 C.2   383  AKG383      0.3653
      9  O3        40.1350  -37.3700  -17.8070 O.co2 383  AKG383     -0.2456
     10  O4        41.6560  -38.6530  -18.7040 O.co2 383  AKG383     -0.2456
@<TRIPOS>BOND
     1     2     1   ar
     2     3     1   ar
     3     1     4    1
     4     5     4    2
     5     4     6    1
     6     6     7    1
     7     7     8    1
     8    10     8   ar
     9     8     9   ar
