@<TRIPOS>MOLECULE
2zyj_PGU_A_1.pdb
 25 25 0 0 0
SMALL
GASTEIGER

@<TRIPOS>ATOM
      1  N1       -34.7360   -2.2000    9.8470 N.ar  500  PGU500     -0.2452
      2  C2       -34.5280   -2.0890    8.5240 C.ar  500  PGU500      0.0981
      3  C2A      -35.5390   -2.7290    7.5620 C.3   500  PGU500      0.0555
      4  C3       -33.3910   -1.3920    8.0520 C.ar  500  PGU500      0.2103
      5  O3       -33.2160   -1.2600    6.6950 O.3   500  PGU500     -0.2853
      6  C4       -32.4690   -0.8360    8.9770 C.ar  500  PGU500      0.0587
      7  C4A      -31.1690   -0.0670    8.6220 C.2   500  PGU500      0.0967
      8  C5       -32.7530   -1.0370   10.3520 C.ar  500  PGU500      0.0316
      9  C6       -33.8870   -1.7330   10.7450 C.ar  500  PGU500      0.0968
     10  C5A      -31.8910   -0.4900   11.4610 C.3   500  PGU500      0.1819
     11  O4P      -32.1320    0.9690   11.4550 O.3   500  PGU500     -0.2653
     12  P        -32.1660    1.7260   12.8520 P.3   500  PGU500      0.5329
     13  O1P      -33.6630    1.9420   13.2210 O.3   500  PGU500     -0.1145
     14  O2P      -31.4240    1.1080   13.9570 O.3   500  PGU500     -0.1145
     15  O3P      -31.5590    3.1810   12.5530 O.2   500  PGU500     -0.2224
     16  N        -31.0520    0.3710    7.2270 N.2   500  PGU500     -0.2593
     17  CA       -29.7060    0.7830    6.7400 C.3   500  PGU500      0.2062
     18  CB       -28.5850    0.8170    7.8160 C.3   500  PGU500      0.0477
     19  CG       -27.3470    1.6070    7.3670 C.3   500  PGU500      0.1166
     20  CD       -26.1050    1.3500    8.2560 C.2   500  PGU500      0.3649
     21  OE1      -25.1210    2.0970    8.0510 O.co2 500  PGU500     -0.2457
     22  OE2      -26.1470    0.4080    9.0890 O.co2 500  PGU500     -0.2457
     23  C        -29.3360   -0.1180    5.5320 C.2   500  PGU500      0.3866
     24  O        -29.9040   -1.2340    5.4340 O.co2 500  PGU500     -0.2435
     25  OXT      -28.4740    0.3230    4.7400 O.co2 500  PGU500     -0.2435
@<TRIPOS>BOND
     1    25    23   ar
     2    24    23   ar
     3    23    17    1
     4     5     4    1
     5    17    16    1
     6    17    18    1
     7    16     7    2
     8    19    18    1
     9    19    20    1
    10     3     2    1
    11    21    20   ar
    12     4     2   ar
    13     4     6   ar
    14    20    22   ar
    15     2     1   ar
    16     7     6    1
    17     6     8   ar
    18     1     9   ar
    19     8     9   ar
    20     8    10    1
    21    11    10    1
    22    11    12    1
    23    15    12    2
    24    12    13    1
    25    12    14    1
