@<TRIPOS>MOLECULE
2zyk_GLC_A_1.pdb
 11 11 0 0 0
SMALL
GASTEIGER

@<TRIPOS>ATOM
      1  C1        17.5700   -8.2180   18.2580 C.3   902  GLC902      0.1777
      2  C2        18.5090   -9.3000   18.7730 C.3   902  GLC902      0.2141
      3  C3        19.5410   -9.6560   17.7180 C.3   902  GLC902      0.2173
      4  C4        18.8910  -10.0060   16.3760 C.3   902  GLC902      0.2142
      5  C5        17.9350   -8.8800   15.9550 C.3   902  GLC902      0.1810
      6  C6        17.1330   -9.2100   14.6990 C.3   902  GLC902      0.2141
      7  O2        19.1880   -8.8010   19.9130 O.3   902  GLC902     -0.2176
      8  O3        20.3380  -10.7400   18.1760 O.3   902  GLC902     -0.2175
      9  O4        19.9290  -10.1230   15.3920 O.3   902  GLC902     -0.2176
     10  O5        16.9890   -8.5980   17.0150 O.3   902  GLC902     -0.3481
     11  O6        16.0960  -10.1490   14.9640 O.3   902  GLC902     -0.2176
@<TRIPOS>BOND
     1     6    11    1
     2     6     5    1
     3     9     4    1
     4     5     4    1
     5     5    10    1
     6     4     3    1
     7    10     1    1
     8     3     8    1
     9     3     2    1
    10     1     2    1
    11     2     7    1
