@<TRIPOS>MOLECULE
2zyo_GLC_A_1.pdb
 11 11 0 0 0
SMALL
GASTEIGER

@<TRIPOS>ATOM
      1  C1       -17.1100    9.4540   -3.3450 C.3   903  GLC903      0.1777
      2  C2       -16.7180    8.5880   -2.1460 C.3   903  GLC903      0.2141
      3  C3       -16.2700    9.4750   -0.9870 C.3   903  GLC903      0.2173
      4  C4       -15.1370   10.4010   -1.4380 C.3   903  GLC903      0.2142
      5  C5       -15.5730   11.1960   -2.6740 C.3   903  GLC903      0.1810
      6  C6       -14.4520   12.0350   -3.2530 C.3   903  GLC903      0.2141
      7  O2       -17.8270    7.8010   -1.7430 O.3   903  GLC903     -0.2176
      8  O3       -15.8330    8.6680    0.0950 O.3   903  GLC903     -0.2175
      9  O4       -14.8030   11.2960   -0.3870 O.3   903  GLC903     -0.2176
     10  O5       -16.0230   10.3010   -3.7170 O.3   903  GLC903     -0.3481
     11  O6       -14.8110   13.4070   -3.2950 O.3   903  GLC903     -0.2176
@<TRIPOS>BOND
     1    10     1    1
     2    10     5    1
     3     1     2    1
     4    11     6    1
     5     6     5    1
     6     5     4    1
     7     2     7    1
     8     2     3    1
     9     4     3    1
    10     4     9    1
    11     3     8    1
