@<TRIPOS>MOLECULE
2zyt_PPS_X_1.pdb
 31 33 0 0 0
SMALL
GASTEIGER

@<TRIPOS>ATOM
      1  S2        23.5240    3.8280    6.5690 S.3   501  PPS501      0.0049
      2  OS1       23.2770    5.2630    6.2510 O.2   501  PPS501     -0.3449
      3  OS2       24.7780    3.7380    7.3620 O.3   501  PPS501     -0.2679
      4  OS3       23.6370    3.0450    5.3230 O.2   501  PPS501     -0.3449
      5  O6P       22.2190    3.3530    7.4300 O.3   501  PPS501     -0.1945
      6  P2        22.3110    2.0430    8.3270 P.3   501  PPS501      0.2383
      7  O4P       22.8570    2.3680    9.6860 O.3   501  PPS501     -0.4361
      8  O5P       22.9660    0.9290    7.5560 O.2   501  PPS501     -0.5161
      9  O5'       20.7710    1.6580    8.4910 O.3   501  PPS501     -0.3102
     10  C5'       19.8890    2.4990    9.2270 C.3   501  PPS501      0.1813
     11  C4'       18.6890    1.6210    9.5130 C.3   501  PPS501      0.1795
     12  O4'       18.9960    0.8060   10.6420 O.3   501  PPS501     -0.3136
     13  C1'       18.1890    1.2000   11.7510 C.3   501  PPS501      0.3185
     14  N9        18.9310    1.1810   13.0270 N.pl3 501  PPS501     -0.1439
     15  C4        18.6660    0.3050   13.9890 C.2   501  PPS501      0.3518
     16  N3        17.7930   -0.7240   14.1230 N.2   501  PPS501     -0.0055
     17  C2        17.7640   -1.4420   15.2620 C.3   501  PPS501      0.5254
     18  N1        18.5980   -1.2130   16.2930 N.2   501  PPS501      0.0021
     19  C6        19.5130   -0.2240   16.2950 C.2   501  PPS501      0.4393
     20  N6        20.3310   -0.0220   17.3520 N.pl3 501  PPS501      0.2180
     21  C5        19.6060    0.6140   15.0780 C.2   501  PPS501      0.2526
     22  N7        20.3490    1.6550   14.6760 N.2   501  PPS501     -0.2095
     23  C8        19.9350    1.9940   13.4260 C.3   501  PPS501      0.3377
     24  C2'       17.6850    2.5890   11.3880 C.3   501  PPS501      0.2543
     25  O2'       16.5090    2.9620   12.1170 O.3   501  PPS501     -0.2131
     26  C3'       17.4760    2.4410    9.8910 C.3   501  PPS501      0.1928
     27  O3'       16.3810    1.5760    9.6270 O.3   501  PPS501     -0.2673
     28  P1        14.8610    2.0600    9.3990 P.3   501  PPS501      0.5327
     29  O1P       14.9020    3.2050    8.4130 O.2   501  PPS501     -0.2224
     30  O2P       14.3890    2.4370   10.7920 O.3   501  PPS501     -0.1145
     31  O3P       14.1600    0.8290    8.9270 O.3   501  PPS501     -0.1145
@<TRIPOS>BOND
     1     4     1    2
     2     2     1    2
     3     1     3    1
     4     1     5    1
     5     5     6    1
     6     8     6    2
     7     6     9    1
     8     6     7    1
     9    29    28    2
    10     9    10    1
    11    31    28    1
    12    10    11    1
    13    28    27    1
    14    28    30    1
    15    11    26    1
    16    11    12    1
    17    27    26    1
    18    26    24    1
    19    12    13    1
    20    24    13    1
    21    24    25    1
    22    13    14    1
    23    14    23    1
    24    14    15    1
    25    23    22    1
    26    15    16    2
    27    15    21    1
    28    16    17    1
    29    22    21    2
    30    21    19    1
    31    17    18    1
    32    18    19    2
    33    19    20    1
