@<TRIPOS>MOLECULE
2zyu_4NS_X_1.pdb
 14 14 0 0 0
SMALL
GASTEIGER

@<TRIPOS>ATOM
      1  O6       -34.3940  -47.5770   12.5180 O.2   859  4NS859     -0.1261
      2  N        -34.5360  -46.3700   12.6220 N.pl3 859  4NS859      0.0577
      3  O5       -35.6570  -45.8990   12.7420 O.2   859  4NS859     -0.1261
      4  C4       -33.4170  -45.5240   12.6150 C.ar  859  4NS859      0.1431
      5  C5       -33.5900  -44.1520   12.8420 C.ar  859  4NS859      0.0273
      6  C6       -32.4840  -43.3090   12.8430 C.ar  859  4NS859      0.0415
      7  C3       -32.1420  -46.0560   12.3900 C.ar  859  4NS859      0.0273
      8  C2       -31.0380  -45.2070   12.3930 C.ar  859  4NS859      0.0415
      9  C1       -31.2130  -43.8360   12.6140 C.ar  859  4NS859      0.1716
     10  O1       -30.1340  -42.9890   12.6080 O.3   859  4NS859     -0.3592
     11  S        -28.9040  -43.3300   11.5840 S.3   859  4NS859      0.0425
     12  O2       -28.1310  -42.1060   11.3050 O.2   859  4NS859     -0.3360
     13  O3       -29.4670  -43.8440   10.3120 O.2   859  4NS859     -0.3360
     14  O4       -28.1030  -44.3940   12.2260 O.3   859  4NS859     -0.2589
@<TRIPOS>BOND
     1    13    11    2
     2    12    11    2
     3    11    14    1
     4    11    10    1
     5     7     8   ar
     6     7     4   ar
     7     8     9   ar
     8     1     2    2
     9    10     9    1
    10     9     6   ar
    11     4     2    1
    12     4     5   ar
    13     2     3    2
    14     5     6   ar
