@<TRIPOS>MOLECULE
2zyu_PPS_X_1.pdb
 31 33 0 0 0
SMALL
GASTEIGER

@<TRIPOS>ATOM
      1  S2       -29.0280  -36.7950   14.4250 S.3   501  PPS501      0.0049
      2  OS1      -30.4900  -36.5910   14.4870 O.3   501  PPS501     -0.2679
      3  OS2      -28.4050  -36.2310   13.2260 O.2   501  PPS501     -0.3449
      4  OS3      -28.7090  -38.2490   14.4680 O.2   501  PPS501     -0.3449
      5  O6P      -28.3870  -36.2400   15.8020 O.3   501  PPS501     -0.1945
      6  P2       -28.9050  -34.8560   16.3840 P.3   501  PPS501      0.2383
      7  O4P      -30.0570  -35.0060   17.3410 O.3   501  PPS501     -0.4361
      8  O5P      -28.9160  -33.8740   15.2330 O.2   501  PPS501     -0.5161
      9  O5'      -27.6750  -34.4890   17.3200 O.3   501  PPS501     -0.3102
     10  C5'      -27.3810  -35.3320   18.4100 C.3   501  PPS501      0.1813
     11  C4'      -26.5420  -34.3450   19.1850 C.3   501  PPS501      0.1795
     12  O4'      -27.4230  -33.3910   19.7810 O.3   501  PPS501     -0.3136
     13  C1'      -27.2660  -33.4590   21.1890 C.3   501  PPS501      0.3185
     14  N9       -28.5560  -33.2810   21.8600 N.pl3 501  PPS501     -0.1439
     15  C4       -28.7900  -32.3030   22.7110 C.2   501  PPS501      0.3518
     16  N3       -28.0620  -31.2640   23.1940 N.2   501  PPS501     -0.0055
     17  C2       -28.5760  -30.4160   24.0990 C.3   501  PPS501      0.5254
     18  N1       -29.8400  -30.5210   24.5450 N.2   501  PPS501      0.0021
     19  C6       -30.6660  -31.5280   24.1340 C.2   501  PPS501      0.4393
     20  N6       -31.9250  -31.6350   24.6010 N.pl3 501  PPS501      0.2180
     21  C5       -30.1700  -32.4940   23.1480 C.2   501  PPS501      0.2526
     22  N7       -30.6500  -33.5770   22.5300 N.2   501  PPS501     -0.2095
     23  C8       -29.6600  -34.0430   21.7290 C.3   501  PPS501      0.3377
     24  C2'      -26.7420  -34.8670   21.4400 C.3   501  PPS501      0.2543
     25  O2'      -26.1290  -35.0390   22.7240 O.3   501  PPS501     -0.2131
     26  C3'      -25.7640  -35.0020   20.3030 C.3   501  PPS501      0.1928
     27  O3'      -24.6810  -34.1110   20.5020 O.3   501  PPS501     -0.2673
     28  P1       -23.3090  -34.6270   21.1570 P.3   501  PPS501      0.5327
     29  O1P      -22.9180  -35.8890   20.4340 O.2   501  PPS501     -0.2224
     30  O2P      -23.7050  -34.8560   22.6030 O.3   501  PPS501     -0.1145
     31  O3P      -22.3730  -33.4610   20.9900 O.3   501  PPS501     -0.1145
@<TRIPOS>BOND
     1     3     1    2
     2     1     4    2
     3     1     2    1
     4     1     5    1
     5     8     6    2
     6     5     6    1
     7     6     9    1
     8     6     7    1
     9     9    10    1
    10    10    11    1
    11    11    12    1
    12    11    26    1
    13    12    13    1
    14    26    27    1
    15    26    24    1
    16    29    28    2
    17    27    28    1
    18    31    28    1
    19    28    30    1
    20    13    24    1
    21    13    14    1
    22    24    25    1
    23    23    14    1
    24    23    22    1
    25    14    15    1
    26    22    21    2
    27    15    21    1
    28    15    16    2
    29    21    19    1
    30    16    17    1
    31    17    18    1
    32    19    18    2
    33    19    20    1
