@<TRIPOS>MOLECULE
2zyv_NPO_X_1.pdb
 10 10 0 0 0
SMALL
GASTEIGER

@<TRIPOS>ATOM
      1  C1       -29.0720  -43.2850   11.9770 C.ar  1601  NPO1601     0.1431
      2  C2       -30.0800  -42.9410   12.8830 C.ar  1601  NPO1601     0.0274
      3  C3       -30.4380  -41.6020   13.0250 C.ar  1601  NPO1601     0.0437
      4  C4       -29.7840  -40.6290   12.2530 C.ar  1601  NPO1601     0.1958
      5  C5       -28.7800  -40.9650   11.3410 C.ar  1601  NPO1601     0.0437
      6  C6       -28.4210  -42.3090   11.2120 C.ar  1601  NPO1601     0.0274
      7  OH       -30.1490  -39.3380   12.4010 O.3   1601  NPO1601    -0.2866
      8  N1       -28.6820  -44.6160   11.8380 N.pl3 1601  NPO1601     0.0577
      9  O2       -27.8290  -44.8790   11.0020 O.2   1601  NPO1601    -0.1261
     10  O3       -29.1430  -45.5030   12.5490 O.2   1601  NPO1601    -0.1261
@<TRIPOS>BOND
     1     9     8    2
     2     6     5   ar
     3     6     1   ar
     4     5     4   ar
     5     8     1    1
     6     8    10    2
     7     1     2   ar
     8     4     7    1
     9     4     3   ar
    10     2     3   ar
