@<TRIPOS>MOLECULE
2zyv_PPS_X_1.pdb
 31 33 0 0 0
SMALL
GASTEIGER

@<TRIPOS>ATOM
      1  S2       -29.1630  -37.5660   14.7110 S.3   1501  PPS1501     0.0049
      2  OS1      -28.8090  -38.9940   14.6190 O.2   1501  PPS1501    -0.3449
      3  OS2      -30.6370  -37.4260   14.8300 O.3   1501  PPS1501    -0.2679
      4  OS3      -28.6980  -36.8150   13.5280 O.2   1501  PPS1501    -0.3449
      5  O6P      -28.4260  -36.9470   16.0190 O.3   1501  PPS1501    -0.1945
      6  P2       -29.0050  -35.5630   16.5370 P.3   1501  PPS1501     0.2383
      7  O4P      -30.2220  -35.7780   17.4120 O.3   1501  PPS1501    -0.4361
      8  O5P      -29.0860  -34.5690   15.3910 O.2   1501  PPS1501    -0.5161
      9  O5'      -27.8640  -35.0010   17.5290 O.3   1501  PPS1501    -0.3102
     10  C5'      -27.4170  -35.8030   18.6180 C.3   1501  PPS1501     0.1813
     11  C4'      -26.6010  -34.8510   19.4720 C.3   1501  PPS1501     0.1795
     12  O4'      -27.5090  -33.9700   20.1470 O.3   1501  PPS1501    -0.3136
     13  C1'      -27.3220  -34.1000   21.5560 C.3   1501  PPS1501     0.3185
     14  N9       -28.5980  -33.9100   22.2750 N.pl3 1501  PPS1501    -0.1439
     15  C4       -28.8420  -32.8930   23.0910 C.2   1501  PPS1501     0.3518
     16  N3       -28.1070  -31.8270   23.5310 N.2   1501  PPS1501    -0.0055
     17  C2       -28.6260  -30.9430   24.4090 C.3   1501  PPS1501     0.5254
     18  N1       -29.8810  -31.0640   24.8930 N.2   1501  PPS1501     0.0021
     19  C6       -30.7090  -32.0940   24.5340 C.2   1501  PPS1501     0.4393
     20  N6       -31.9590  -32.2230   25.0320 N.pl3 1501  PPS1501     0.2180
     21  C5       -30.2090  -33.0990   23.5720 C.2   1501  PPS1501     0.2526
     22  N7       -30.6840  -34.2220   22.9960 N.2   1501  PPS1501    -0.2095
     23  C8       -29.6960  -34.7010   22.2010 C.3   1501  PPS1501     0.3377
     24  C2'      -26.7460  -35.5070   21.7060 C.3   1501  PPS1501     0.2543
     25  O2'      -26.1190  -35.7590   22.9700 O.3   1501  PPS1501    -0.2131
     26  C3'      -25.7710  -35.5430   20.5520 C.3   1501  PPS1501     0.1928
     27  O3'      -24.6590  -34.6780   20.8070 O.3   1501  PPS1501    -0.2673
     28  P1       -23.2610  -35.2070   21.4330 P.3   1501  PPS1501     0.5327
     29  O1P      -22.8910  -36.4710   20.7020 O.2   1501  PPS1501    -0.2224
     30  O2P      -23.6240  -35.4240   22.8890 O.3   1501  PPS1501    -0.1145
     31  O3P      -22.3320  -34.0350   21.2210 O.3   1501  PPS1501    -0.1145
@<TRIPOS>BOND
     1     4     1    2
     2     2     1    2
     3     1     3    1
     4     1     5    1
     5     8     6    2
     6     5     6    1
     7     6     7    1
     8     6     9    1
     9     9    10    1
    10    10    11    1
    11    11    12    1
    12    11    26    1
    13    12    13    1
    14    26    27    1
    15    26    24    1
    16    29    28    2
    17    27    28    1
    18    31    28    1
    19    28    30    1
    20    13    24    1
    21    13    14    1
    22    24    25    1
    23    23    14    1
    24    23    22    1
    25    14    15    1
    26    22    21    2
    27    15    16    2
    28    15    21    1
    29    16    17    1
    30    21    19    1
    31    17    18    1
    32    19    18    2
    33    19    20    1
