@<TRIPOS>MOLECULE
2zyw_A3P_X_1.pdb
 27 29 0 0 0
SMALL
GASTEIGER

@<TRIPOS>ATOM
      1  P1       -23.2380  -35.1680   21.4340 P.3   501  A3P501      0.5327
      2  O1P      -22.3080  -34.0030   21.2040 O.3   501  A3P501     -0.1145
      3  O2P      -22.9010  -36.4380   20.7020 O.2   501  A3P501     -0.2224
      4  O3P      -23.5630  -35.3940   22.8950 O.3   501  A3P501     -0.1145
      5  P2       -28.9590  -35.6850   16.4750 P.3   501  A3P501      0.5327
      6  O4P      -28.3300  -36.9920   16.0380 O.3   501  A3P501     -0.1145
      7  O5P      -29.0570  -34.6450   15.3870 O.2   501  A3P501     -0.2224
      8  O6P      -30.2150  -35.8270   17.2900 O.3   501  A3P501     -0.1145
      9  O5'      -27.9200  -35.0200   17.5070 O.3   501  A3P501     -0.2675
     10  C5'      -27.3880  -35.7630   18.5960 C.3   501  A3P501      0.1859
     11  C4'      -26.5930  -34.7890   19.4600 C.3   501  A3P501      0.1796
     12  O4'      -27.4950  -33.9250   20.1600 O.3   501  A3P501     -0.3136
     13  C3'      -25.7620  -35.5000   20.5280 C.3   501  A3P501      0.1928
     14  O3'      -24.6470  -34.6480   20.8060 O.3   501  A3P501     -0.2673
     15  C2'      -26.7360  -35.5090   21.6900 C.3   501  A3P501      0.2543
     16  O2'      -26.1390  -35.7570   22.9690 O.3   501  A3P501     -0.2131
     17  C1'      -27.3210  -34.1080   21.5660 C.3   501  A3P501      0.3185
     18  N9       -28.6010  -33.9470   22.2870 N.pl3 501  A3P501     -0.1439
     19  C8       -29.6820  -34.7490   22.2220 C.3   501  A3P501      0.3377
     20  N7       -30.6750  -34.2830   23.0180 N.2   501  A3P501     -0.2095
     21  C5       -30.2140  -33.1560   23.5990 C.2   501  A3P501      0.2526
     22  C6       -30.7280  -32.1610   24.5620 C.2   501  A3P501      0.4393
     23  N6       -31.9790  -32.2910   25.0600 N.pl3 501  A3P501      0.2180
     24  N1       -29.9160  -31.1240   24.9160 N.2   501  A3P501      0.0021
     25  C2       -28.6690  -30.9910   24.4270 C.3   501  A3P501      0.5254
     26  N3       -28.1330  -31.8610   23.5460 N.2   501  A3P501     -0.0055
     27  C4       -28.8490  -32.9390   23.1130 C.2   501  A3P501      0.3518
@<TRIPOS>BOND
     1     7     5    2
     2     6     5    1
     3     5     8    1
     4     5     9    1
     5     9    10    1
     6    10    11    1
     7    11    12    1
     8    11    13    1
     9    12    17    1
    10    13    14    1
    11    13    15    1
    12     3     1    2
    13    14     1    1
    14     2     1    1
    15     1     4    1
    16    17    15    1
    17    17    18    1
    18    15    16    1
    19    19    18    1
    20    19    20    1
    21    18    27    1
    22    20    21    2
    23    27    26    2
    24    27    21    1
    25    26    25    1
    26    21    22    1
    27    25    24    1
    28    22    24    2
    29    22    23    1
