@<TRIPOS>MOLECULE
2zyw_NPO_X_1.pdb
 10 10 0 0 0
SMALL
GASTEIGER

@<TRIPOS>ATOM
      1  C1       -29.0630  -43.2570   11.9230 C.ar  601  NPO601      0.1431
      2  C2       -30.0790  -42.9490   12.8340 C.ar  601  NPO601      0.0274
      3  C3       -30.4820  -41.6280   13.0080 C.ar  601  NPO601      0.0437
      4  C4       -29.8680  -40.6160   12.2680 C.ar  601  NPO601      0.1958
      5  C5       -28.8540  -40.9120   11.3560 C.ar  601  NPO601      0.0437
      6  C6       -28.4550  -42.2380   11.1830 C.ar  601  NPO601      0.0274
      7  OH       -30.1850  -39.3240   12.5240 O.3   601  NPO601     -0.2866
      8  N1       -28.6480  -44.5880   11.7550 N.pl3 601  NPO601      0.0577
      9  O2       -27.8070  -44.8730   10.9020 O.2   601  NPO601     -0.1261
     10  O3       -29.1100  -45.4740   12.4670 O.2   601  NPO601     -0.1261
@<TRIPOS>BOND
     1     9     8    2
     2     6     5   ar
     3     6     1   ar
     4     5     4   ar
     5     8     1    1
     6     8    10    2
     7     1     2   ar
     8     4     7    1
     9     4     3   ar
    10     2     3   ar
