@<TRIPOS>MOLECULE
2zz1_6CN_A_1.pdb
 23 24 0 0 0
SMALL
GASTEIGER

@<TRIPOS>ATOM
      1  O3P       24.5860  -17.0270    7.6270 O.2   303  6CN303     -0.2224
      2  P         24.5080  -16.0120    8.7490 P.3   303  6CN303      0.5327
      3  O1P       25.8140  -15.2770    8.9660 O.3   303  6CN303     -0.1145
      4  O2P       23.3180  -15.1050    8.6240 O.3   303  6CN303     -0.1145
      5  O5'       24.1660  -16.8480   10.1040 O.3   303  6CN303     -0.2675
      6  C5'       25.1930  -17.4770   10.8640 C.3   303  6CN303      0.1859
      7  C4'       24.4550  -18.1490   12.0310 C.3   303  6CN303      0.1801
      8  C3'       23.9190  -17.1700   13.0460 C.3   303  6CN303      0.2158
      9  O3'       22.8010  -17.8330   13.6960 O.3   303  6CN303     -0.2175
     10  C2'       25.0980  -17.0780   14.0270 C.3   303  6CN303      0.2316
     11  O2'       24.5910  -16.7320   15.3100 O.3   303  6CN303     -0.2157
     12  O4'       25.3770  -19.0230   12.7050 O.3   303  6CN303     -0.3322
     13  C1'       25.6460  -18.5020   14.0210 C.3   303  6CN303      0.2369
     14  N1        27.0920  -18.6260   14.2710 N.am  303  6CN303     -0.1873
     15  C6        27.5010  -19.5470   15.2020 C.3   303  6CN303      0.1956
     16  C5        28.8640  -19.6850   15.5060 C.3   303  6CN303      0.1717
     17  C4        29.7620  -18.8800   14.8380 C.1   303  6CN303      0.1952
     18  O4        31.0370  -18.9510   15.0200 O.2   303  6CN303     -0.2133
     19  N3        29.3080  -18.0430   13.8740 N.2   303  6CN303     -0.2496
     20  C2        27.9870  -17.9120   13.5980 C.1   303  6CN303      0.2810
     21  O2        27.6330  -17.1150   12.7080 O.2   303  6CN303     -0.1922
     22  C7        26.8020  -20.8310   15.2930 C.1   303  6CN303      0.0945
     23  N8        26.2510  -21.8460   15.3980 N.1   303  6CN303     -0.1941
@<TRIPOS>BOND
     1     1     2    2
     2     4     2    1
     3     2     3    1
     4     2     5    1
     5     5     6    1
     6     6     7    1
     7     7    12    1
     8     7     8    1
     9    12    13    1
    10    21    20    2
    11     8     9    1
    12     8    10    1
    13    20    19    2
    14    20    14   am
    15    19    17    2
    16    13    10    1
    17    13    14    1
    18    10    11    1
    19    14    15    1
    20    17    18    2
    21    17    16    1
    22    15    22    1
    23    15    16    1
    24    22    23    3
