@<TRIPOS>MOLECULE
2zz1_BMP_A_1.pdb
 22 23 0 0 0
SMALL
GASTEIGER

@<TRIPOS>ATOM
      1  P         24.5080  -16.0120    8.7490 P.3   301  BMP301      0.5327
      2  OP1       25.8140  -15.2770    8.9660 O.3   301  BMP301     -0.1145
      3  OP2       23.3180  -15.1050    8.6240 O.3   301  BMP301     -0.1145
      4  OP3       24.5860  -17.0270    7.6270 O.2   301  BMP301     -0.2224
      5  O5'       24.1660  -16.8480   10.1040 O.3   301  BMP301     -0.2675
      6  C5'       25.1930  -17.4770   10.8640 C.3   301  BMP301      0.1859
      7  C4'       24.4550  -18.1490   12.0310 C.3   301  BMP301      0.1801
      8  O4'       25.3770  -19.0230   12.7050 O.3   301  BMP301     -0.3319
      9  C3'       23.9190  -17.1700   13.0460 C.3   301  BMP301      0.2158
     10  O3'       22.8010  -17.8330   13.6960 O.3   301  BMP301     -0.2175
     11  C2'       25.0980  -17.0780   14.0270 C.3   301  BMP301      0.2320
     12  O2'       24.5910  -16.7320   15.3100 O.3   301  BMP301     -0.2157
     13  C1'       25.6460  -18.5020   14.0210 C.3   301  BMP301      0.2425
     14  N1        27.0920  -18.6260   14.2710 N.am  301  BMP301     -0.1473
     15  C2        27.9870  -17.9120   13.5980 C.1   301  BMP301      0.2863
     16  O2        27.6330  -17.1150   12.7080 O.2   301  BMP301     -0.1918
     17  N3        29.3080  -18.0430   13.8740 N.2   301  BMP301     -0.2489
     18  C4        29.7620  -18.8800   14.8380 C.1   301  BMP301      0.2018
     19  O4        31.0370  -18.9510   15.0200 O.2   301  BMP301     -0.2129
     20  C5        28.8640  -19.6850   15.5060 C.3   301  BMP301      0.2213
     21  C6        27.5010  -19.5470   15.2020 C.2   301  BMP301      0.2591
     22  O1        26.6390  -20.2200   15.7890 O.2   301  BMP301     -0.2725
@<TRIPOS>BOND
     1     4     1    2
     2     3     1    1
     3     1     2    1
     4     1     5    1
     5     5     6    1
     6     6     7    1
     7     7     8    1
     8     7     9    1
     9     8    13    1
    10    16    15    2
    11     9    10    1
    12     9    11    1
    13    15    17    2
    14    15    14   am
    15    17    18    2
    16    13    11    1
    17    13    14    1
    18    11    12    1
    19    14    21   am
    20    18    19    2
    21    18    20    1
    22    21    20    1
    23    21    22    2
