@<TRIPOS>MOLECULE
2zz2_6CN_A_1.pdb
 23 24 0 0 0
SMALL
GASTEIGER

@<TRIPOS>ATOM
      1  O3P       25.8050  -15.4430    9.0620 O.3   301  6CN301     -0.1145
      2  P         24.4900  -16.1550    8.8290 P.3   301  6CN301      0.5327
      3  O1P       23.3070  -15.2400    8.7140 O.3   301  6CN301     -0.1145
      4  O2P       24.5930  -17.1590    7.6890 O.2   301  6CN301     -0.2224
      5  O5'       24.1170  -17.0330   10.1690 O.3   301  6CN301     -0.2675
      6  C5'       25.1600  -17.6320   10.9430 C.3   301  6CN301      0.1859
      7  C4'       24.4090  -18.2730   12.1140 C.3   301  6CN301      0.1801
      8  C3'       23.8780  -17.2370   13.0910 C.3   301  6CN301      0.2158
      9  O3'       22.7500  -17.8640   13.7770 O.3   301  6CN301     -0.2175
     10  C2'       25.0390  -17.0990   14.0880 C.3   301  6CN301      0.2316
     11  O2'       24.5610  -16.6630   15.3590 O.3   301  6CN301     -0.2157
     12  O4'       25.3610  -19.0800   12.8470 O.3   301  6CN301     -0.3322
     13  C1'       25.5680  -18.5160   14.1690 C.3   301  6CN301      0.2369
     14  N1        27.0110  -18.5990   14.5000 N.am  301  6CN301     -0.1873
     15  C6        27.3750  -19.3010   15.6280 C.3   301  6CN301      0.1956
     16  C5        28.7370  -19.4050   15.9670 C.3   301  6CN301      0.1717
     17  C4        29.6780  -18.8040   15.1420 C.1   301  6CN301      0.1952
     18  O4        30.9340  -18.8710   15.3240 O.2   301  6CN301     -0.2133
     19  N3        29.2650  -18.1350   14.0230 N.2   301  6CN301     -0.2496
     20  C2        27.9490  -18.0470   13.7040 C.1   301  6CN301      0.2810
     21  O2        27.6390  -17.3830   12.6930 O.2   301  6CN301     -0.1922
     22  C7        26.7500  -20.6300   15.6300 C.1   301  6CN301      0.0945
     23  N8        26.3720  -21.7260   15.5170 N.1   301  6CN301     -0.1941
@<TRIPOS>BOND
     1     4     2    2
     2     3     2    1
     3     2     1    1
     4     2     5    1
     5     5     6    1
     6     6     7    1
     7     7    12    1
     8     7     8    1
     9    21    20    2
    10    12    13    1
    11     8     9    1
    12     8    10    1
    13    20    19    2
    14    20    14   am
    15    19    17    2
    16    10    13    1
    17    10    11    1
    18    13    14    1
    19    14    15    1
    20    17    18    2
    21    17    16    1
    22    23    22    3
    23    15    22    1
    24    15    16    1
