@<TRIPOS>MOLECULE
2zz3_6CN_A_1.pdb
 21 22 0 0 0
SMALL
GASTEIGER

@<TRIPOS>ATOM
      1  O3P       24.5840  -17.0730    7.5930 O.2   301  6CN301     -0.2224
      2  P         24.4840  -16.1630    8.8250 P.3   301  6CN301      0.5327
      3  O1P       25.8340  -15.3860    8.9870 O.3   301  6CN301     -0.1145
      4  O2P       23.3010  -15.1930    8.6810 O.3   301  6CN301     -0.1145
      5  O5'       24.1750  -17.0540   10.0910 O.3   301  6CN301     -0.2675
      6  C5'       25.2130  -17.5930   10.9160 C.3   301  6CN301      0.1859
      7  C4'       24.4730  -18.2530   12.0910 C.3   301  6CN301      0.1801
      8  C3'       23.8210  -17.3270   13.1230 C.3   301  6CN301      0.2158
      9  O3'       22.7240  -17.9570   13.7700 O.3   301  6CN301     -0.2175
     10  C2'       24.9360  -17.0560   14.1020 C.3   301  6CN301      0.2319
     11  O2'       24.4540  -16.5710   15.3380 O.3   301  6CN301     -0.2157
     12  O4'       25.4420  -18.9950   12.8470 O.3   301  6CN301     -0.3320
     13  C1'       25.5980  -18.3960   14.1870 C.3   301  6CN301      0.2401
     14  N1        27.0380  -18.4930   14.5580 N.am  301  6CN301     -0.1766
     15  C6        27.4420  -19.2830   15.7080 C.2   301  6CN301      0.0929
     16  C5        28.7570  -19.5020   15.9510 C.2   301  6CN301      0.1242
     17  C4        29.7650  -18.9580   15.0840 C.1   301  6CN301      0.2182
     18  O4        30.9510  -19.1100   15.1550 O.2   301  6CN301     -0.2085
     19  N3        29.2740  -18.1480   13.9910 N.2   301  6CN301     -0.2452
     20  C2        28.0000  -17.8900   13.6940 C.1   301  6CN301      0.2845
     21  O2        27.6600  -17.2240   12.7580 O.2   301  6CN301     -0.1918
@<TRIPOS>BOND
     1     1     2    2
     2     4     2    1
     3     2     3    1
     4     2     5    1
     5     5     6    1
     6     6     7    1
     7     7    12    1
     8     7     8    1
     9    21    20    2
    10    12    13    1
    11     8     9    1
    12     8    10    1
    13    20    19    2
    14    20    14   am
    15    19    17    2
    16    10    13    1
    17    10    11    1
    18    13    14    1
    19    14    15    1
    20    17    18    2
    21    17    16    1
    22    15    16    2
