@<TRIPOS>MOLECULE
2zz4_6CN_A_1.pdb
 21 22 0 0 0
SMALL
GASTEIGER

@<TRIPOS>ATOM
      1  O3P       24.5850  -17.2160    7.6630 O.2   301  6CN301     -0.2224
      2  P         24.4390  -16.2790    8.8370 P.3   301  6CN301      0.5327
      3  O1P       25.7160  -15.4860    9.0570 O.3   301  6CN301     -0.1145
      4  O2P       23.2690  -15.3390    8.7080 O.3   301  6CN301     -0.1145
      5  O5'       24.0940  -17.1370   10.1120 O.3   301  6CN301     -0.2675
      6  C5'       25.1840  -17.6920   10.9180 C.3   301  6CN301      0.1859
      7  C4'       24.4260  -18.3190   12.0750 C.3   301  6CN301      0.1801
      8  C3'       23.8350  -17.3730   13.0790 C.3   301  6CN301      0.2158
      9  O3'       22.7220  -17.9840   13.7280 O.3   301  6CN301     -0.2175
     10  C2'       24.9580  -17.2070   14.0950 C.3   301  6CN301      0.2319
     11  O2'       24.4490  -16.8180   15.3780 O.3   301  6CN301     -0.2157
     12  O4'       25.3660  -19.1500   12.8640 O.3   301  6CN301     -0.3320
     13  C1'       25.5510  -18.5820   14.1630 C.3   301  6CN301      0.2401
     14  N1        27.0170  -18.6640   14.5110 N.am  301  6CN301     -0.1766
     15  C6        27.4450  -19.4170   15.6590 C.2   301  6CN301      0.0929
     16  C5        28.7870  -19.5160   15.9030 C.2   301  6CN301      0.1242
     17  C4        29.7460  -18.9390   15.0620 C.1   301  6CN301      0.2182
     18  O4        30.9600  -19.0100   15.1600 O.2   301  6CN301     -0.2085
     19  N3        29.2450  -18.1950   13.9650 N.2   301  6CN301     -0.2452
     20  C2        27.9440  -18.0230   13.6700 C.1   301  6CN301      0.2845
     21  O2        27.5990  -17.3640   12.7440 O.2   301  6CN301     -0.1918
@<TRIPOS>BOND
     1     1     2    2
     2     4     2    1
     3     2     3    1
     4     2     5    1
     5     5     6    1
     6     6     7    1
     7     7    12    1
     8     7     8    1
     9    21    20    2
    10    12    13    1
    11     8     9    1
    12     8    10    1
    13    20    19    2
    14    20    14   am
    15    19    17    2
    16    10    13    1
    17    10    11    1
    18    13    14    1
    19    14    15    1
    20    17    18    2
    21    17    16    1
    22    15    16    2
