@<TRIPOS>MOLECULE
2zz5_6CN_A_1.pdb
 23 24 0 0 0
SMALL
GASTEIGER

@<TRIPOS>ATOM
      1  O3P       -7.5840   -9.6980   20.4250 O.3   301  6CN301     -0.1145
      2  P         -8.3670   -8.9050   19.3920 P.3   301  6CN301      0.5327
      3  O1P       -9.0940   -9.7780   18.4010 O.2   301  6CN301     -0.2224
      4  O2P       -9.3410   -7.9460   20.0590 O.3   301  6CN301     -0.1145
      5  O5'       -7.4020   -8.0180   18.4720 O.3   301  6CN301     -0.2675
      6  C5'       -6.1990   -7.3860   18.9720 C.3   301  6CN301      0.1859
      7  C4'       -5.5130   -6.7860   17.7530 C.3   301  6CN301      0.1801
      8  C3'       -4.9730   -7.7970   16.7790 C.3   301  6CN301      0.2158
      9  O3'       -4.9440   -7.0890   15.5080 O.3   301  6CN301     -0.2175
     10  C2'       -3.5160   -7.9430   17.2460 C.3   301  6CN301      0.2316
     11  O2'       -2.6360   -8.3010   16.1450 O.3   301  6CN301     -0.2157
     12  O4'       -4.4210   -5.9980   18.2370 O.3   301  6CN301     -0.3322
     13  C1'       -3.1500   -6.5230   17.7380 C.3   301  6CN301      0.2369
     14  N1        -2.1680   -6.4470   18.8220 N.am  301  6CN301     -0.1873
     15  C6        -1.0080   -5.7440   18.5850 C.3   301  6CN301      0.1956
     16  C5        -0.0670   -5.6230   19.6170 C.3   301  6CN301      0.1717
     17  C4        -0.3440   -6.2400   20.8820 C.1   301  6CN301      0.1952
     18  O4         0.5160   -6.1720   21.7770 O.2   301  6CN301     -0.2133
     19  N3        -1.5080   -6.9490   21.0920 N.2   301  6CN301     -0.2496
     20  C2        -2.3890   -7.0360   20.0610 C.1   301  6CN301      0.2810
     21  O2        -3.4430   -7.6720   20.2910 O.2   301  6CN301     -0.1922
     22  C7        -1.1790   -4.4510   17.9910 C.1   301  6CN301      0.0945
     23  N8        -1.4780   -3.4280   17.5110 N.1   301  6CN301     -0.1941
@<TRIPOS>BOND
     1     9     8    1
     2    11    10    1
     3     8    10    1
     4     8     7    1
     5    10    13    1
     6    23    22    3
     7    13    12    1
     8    13    14    1
     9     7    12    1
    10     7     6    1
    11    22    15    1
    12     3     2    2
    13     5     6    1
    14     5     2    1
    15    15    14    1
    16    15    16    1
    17    14    20   am
    18     2     4    1
    19     2     1    1
    20    16    17    1
    21    20    21    2
    22    20    19    2
    23    17    19    2
    24    17    18    2
