@<TRIPOS>MOLECULE
2zz6_6AZ_A_1.pdb
 21 22 0 0 0
SMALL
GASTEIGER

@<TRIPOS>ATOM
      1  O3P       24.5270  -17.2120    7.6980 O.2   301  6AZ301     -0.2224
      2  P         24.4090  -16.2970    8.8980 P.3   301  6AZ301      0.5327
      3  O1P       25.7120  -15.5080    9.1220 O.3   301  6AZ301     -0.1145
      4  O2P       23.2400  -15.3200    8.7530 O.3   301  6AZ301     -0.1145
      5  O5'       24.0840  -17.1920   10.1620 O.3   301  6AZ301     -0.2675
      6  C5'       25.1370  -17.6540   11.0230 C.3   301  6AZ301      0.1859
      7  C4'       24.4140  -18.2770   12.2190 C.3   301  6AZ301      0.1801
      8  C3'       23.7250  -17.3310   13.1670 C.3   301  6AZ301      0.2158
      9  O3'       22.6350  -17.9880   13.8090 O.3   301  6AZ301     -0.2175
     10  C2'       24.8350  -16.9690   14.1710 C.3   301  6AZ301      0.2319
     11  O2'       24.3210  -16.4520   15.3550 O.3   301  6AZ301     -0.2157
     12  O4'       25.3730  -18.9650   13.0840 O.3   301  6AZ301     -0.3320
     13  C1'       25.5210  -18.2670   14.3630 C.3   301  6AZ301      0.2401
     14  N1        26.9820  -18.3140   14.7210 N.am  301  6AZ301     -0.1766
     15  C6        27.4470  -18.9910   15.9160 C.2   301  6AZ301      0.0929
     16  C5        28.7770  -19.2080   16.0810 C.2   301  6AZ301      0.1242
     17  C4        29.7210  -18.8060   15.1090 C.1   301  6AZ301      0.2182
     18  O4        30.9280  -19.0110   15.1240 O.2   301  6AZ301     -0.2085
     19  N3        29.2050  -18.1020   13.9940 N.2   301  6AZ301     -0.2452
     20  C2        27.9060  -17.8160   13.7550 C.1   301  6AZ301      0.2845
     21  O2        27.5320  -17.2070   12.8000 O.2   301  6AZ301     -0.1918
@<TRIPOS>BOND
     1     1     2    2
     2     4     2    1
     3     2     3    1
     4     2     5    1
     5     5     6    1
     6     6     7    1
     7     7    12    1
     8     7     8    1
     9    21    20    2
    10    12    13    1
    11     8     9    1
    12     8    10    1
    13    20    19    2
    14    20    14   am
    15    19    17    2
    16    10    13    1
    17    10    11    1
    18    13    14    1
    19    14    15    1
    20    17    18    2
    21    17    16    1
    22    15    16    2
