@<TRIPOS>MOLECULE
2zz7_BMP_A_1.pdb
 22 23 0 0 0
SMALL
GASTEIGER

@<TRIPOS>ATOM
      1  P         18.9630   34.6160   38.3440 P.3   301  BMP301      0.5327
      2  OP1       17.6910   34.8520   39.0800 O.3   301  BMP301     -0.1145
      3  OP2       20.1580   34.5150   39.2580 O.3   301  BMP301     -0.1145
      4  OP3       18.8810   33.4820   37.3710 O.2   301  BMP301     -0.2224
      5  O5'       19.3290   35.9380   37.4830 O.3   301  BMP301     -0.2675
      6  C5'       18.2800   36.7450   36.9070 C.3   301  BMP301      0.1859
      7  C4'       19.0230   37.8900   36.2380 C.3   301  BMP301      0.1801
      8  O4'       18.1080   38.6630   35.4120 O.3   301  BMP301     -0.3319
      9  C3'       19.5820   38.9020   37.2300 C.3   301  BMP301      0.2158
     10  O3'       20.7140   39.5650   36.6010 O.3   301  BMP301     -0.2175
     11  C2'       18.4360   39.8960   37.4070 C.3   301  BMP301      0.2320
     12  O2'       18.9670   41.1700   37.7890 O.3   301  BMP301     -0.2157
     13  C1'       17.8860   39.9760   36.0060 C.3   301  BMP301      0.2425
     14  N1        16.4480   40.2590   35.9230 N.am  301  BMP301     -0.1473
     15  C2        15.4840   39.4580   36.4850 C.1   301  BMP301      0.2863
     16  O2        15.8330   38.4890   37.1770 O.2   301  BMP301     -0.1918
     17  N3        14.1800   39.7570   36.3340 N.2   301  BMP301     -0.2489
     18  C4        13.7520   40.8240   35.6200 C.1   301  BMP301      0.2018
     19  O4        12.5120   40.9950   35.5030 O.2   301  BMP301     -0.2129
     20  C5        14.6690   41.6770   35.0380 C.3   301  BMP301      0.2213
     21  C6        16.0110   41.3830   35.1680 C.2   301  BMP301      0.2591
     22  O1        16.8690   42.1150   34.6020 O.2   301  BMP301     -0.2725
@<TRIPOS>BOND
     1    22    21    2
     2    20    21    1
     3    20    18    1
     4    21    14   am
     5     8    13    1
     6     8     7    1
     7    19    18    2
     8    18    17    2
     9    14    13    1
    10    14    15   am
    11    13    11    1
    12     7     6    1
    13     7     9    1
    14    17    15    2
    15    15    16    2
    16    10     9    1
    17     6     5    1
    18     9    11    1
    19     4     1    2
    20    11    12    1
    21     5     1    1
    22     1     2    1
    23     1     3    1
