@<TRIPOS>MOLECULE
2zza_NAP_A_1.pdb
 48 52 0 0 0
SMALL
GASTEIGER

@<TRIPOS>ATOM
      1  PA        21.4550   16.7750   16.0140 P.3   163  NAP163      0.2189
      2  O1A       21.4890   18.0260   16.8040 O.3   163  NAP163     -0.4371
      3  O2A       19.9890   16.1110   15.9650 O.2   163  NAP163     -0.5170
      4  O5B       21.8610   17.0210   14.4780 O.3   163  NAP163     -0.3112
      5  C5B       23.1310   17.5980   14.1680 C.3   163  NAP163      0.1813
      6  C4B       23.2140   17.9370   12.6790 C.3   163  NAP163      0.1820
      7  O4B       22.1990   18.8780   12.2930 O.3   163  NAP163     -0.3136
      8  C3B       24.5320   18.6290   12.3340 C.3   163  NAP163      0.2157
      9  O3B       25.5540   17.6380   12.2030 O.3   163  NAP163     -0.2175
     10  C2B       24.1330   19.1460   10.9540 C.3   163  NAP163      0.2314
     11  O2B       23.9880   18.0480   10.0510 O.3   163  NAP163     -0.2630
     12  C1B       22.7450   19.7150   11.2570 C.3   163  NAP163      0.3158
     13  N9A       22.8490   21.0930   11.7860 N.pl3 163  NAP163     -0.1439
     14  C8A       23.1050   21.4450   13.0450 C.3   163  NAP163      0.3377
     15  N7A       23.0730   22.7710   13.1500 N.2   163  NAP163     -0.2095
     16  C5A       22.7950   23.2710   11.9500 C.2   163  NAP163      0.2526
     17  C6A       22.6170   24.5540   11.4500 C.2   163  NAP163      0.4393
     18  N6A       22.7220   25.6120   12.2490 N.pl3 163  NAP163      0.2180
     19  N1A       22.3230   24.7090   10.1510 N.2   163  NAP163      0.0021
     20  C2A       22.2010   23.6660    9.3500 C.3   163  NAP163      0.5254
     21  N3A       22.3630   22.4310    9.7920 N.2   163  NAP163     -0.0055
     22  C4A       22.6570   22.2010   11.0780 C.2   163  NAP163      0.3518
     23  O3        22.4570   15.6210   16.5310 O.3   163  NAP163     -0.2703
     24  PN        22.8790   15.3940   18.0710 P.3   163  NAP163      0.2189
     25  O1N       23.8800   14.3380   17.8080 O.2   163  NAP163     -0.5170
     26  O2N       23.2010   16.7940   18.4300 O.3   163  NAP163     -0.4371
     27  O5D       21.3910   14.9280   18.4730 O.3   163  NAP163     -0.3112
     28  C5D       20.9780   13.5700   18.2880 C.3   163  NAP163      0.1813
     29  C4D       21.1300   12.7560   19.5740 C.3   163  NAP163      0.1799
     30  O4D       20.2510   13.3600   20.5430 O.3   163  NAP163     -0.3327
     31  C3D       20.6080   11.3330   19.3630 C.3   163  NAP163      0.2158
     32  O3D       21.1250   10.4350   20.3480 O.3   163  NAP163     -0.2175
     33  C2D       19.1120   11.5330   19.5850 C.3   163  NAP163      0.2309
     34  O2D       18.4890   10.3010   19.9580 O.3   163  NAP163     -0.2158
     35  C1D       19.1750   12.4440   20.8120 C.3   163  NAP163      0.2263
     36  N1N       17.9040   13.1540   21.0760 N.pl3 163  NAP163     -0.2787
     37  C2N       17.2680   13.0160   22.3170 C.3   163  NAP163      0.1244
     38  C3N       16.1270   13.7590   22.5930 C.2   163  NAP163      0.0544
     39  C7N       15.4410   13.6380   23.9570 C.2   163  NAP163      0.2818
     40  O7N       14.5910   14.4530   24.3090 O.2   163  NAP163     -0.2670
     41  N7N       15.8500   12.6210   24.7110 N.am  163  NAP163     -0.0839
     42  C4N       15.6190   14.6320   21.6380 C.2   163  NAP163      0.0033
     43  C5N       16.2380   14.7660   20.4000 C.2   163  NAP163      0.0157
     44  C6N       17.3800   14.0270   20.1150 C.2   163  NAP163      0.0633
     45  P2B       24.6340   18.1390    8.5820 P.3   163  NAP163      0.5328
     46  O1X       23.8660   17.3570    7.5860 O.2   163  NAP163     -0.2224
     47  O2X       24.7190   19.7020    8.2090 O.3   163  NAP163     -0.1145
     48  O3X       26.1460   17.6140    8.7570 O.3   163  NAP163     -0.1145
@<TRIPOS>BOND
     1    46    45    2
     2    47    45    1
     3    45    48    1
     4    45    11    1
     5    20    21    1
     6    20    19    1
     7    21    22    2
     8    11    10    1
     9    19    17    2
    10    10    12    1
    11    10     8    1
    12    22    13    1
    13    22    16    1
    14    12    13    1
    15    12     7    1
    16    17    16    1
    17    17    18    1
    18    13    14    1
    19    16    15    2
    20     9     8    1
    21     7     6    1
    22     8     6    1
    23     6     5    1
    24    14    15    1
    25     5     4    1
    26     4     1    1
    27     3     1    2
    28     1    23    1
    29     1     2    1
    30    23    24    1
    31    25    24    2
    32    24    26    1
    33    24    27    1
    34    28    27    1
    35    28    29    1
    36    31    29    1
    37    31    33    1
    38    31    32    1
    39    29    30    1
    40    33    34    1
    41    33    35    1
    42    44    43    2
    43    44    36    1
    44    43    42    1
    45    30    35    1
    46    35    36    1
    47    36    37    1
    48    42    38    2
    49    37    38    1
    50    38    39    1
    51    39    40    2
    52    39    41   am
