@<TRIPOS>MOLECULE
2zza_FOL_A_1.pdb
 32 34 0 0 0
SMALL
GASTEIGER

@<TRIPOS>ATOM
      1  N1        11.0270   14.8530   23.8740 N.2   164  FOL164     -0.2672
      2  C2        10.4390   14.1080   24.8210 C.1   164  FOL164      0.2609
      3  NA2        9.7110   14.6970   25.7660 N.pl3 164  FOL164     -0.0220
      4  N3        10.5580   12.7130   24.7940 N.2   164  FOL164     -0.2466
      5  C4        11.2890   12.1100   23.7640 C.1   164  FOL164      0.2569
      6  O4        11.3940   10.8860   23.7010 O.2   164  FOL164     -0.2052
      7  C4A       11.8760   12.9160   22.7960 C.2   164  FOL164      0.2988
      8  N5        12.5140   12.3670   21.7530 N.2   164  FOL164     -0.3839
      9  C6        12.9970   13.1530   20.7820 C.2   164  FOL164      0.1356
     10  C7        12.8440   14.5330   20.8720 C.3   164  FOL164      0.1931
     11  N8        12.2240   15.0730   21.9050 N.2   164  FOL164     -0.1992
     12  C8A       11.7270   14.2960   22.8770 C.1   164  FOL164      0.1401
     13  C9        13.6910   12.5550   19.5560 C.3   164  FOL164      0.1683
     14  N10       13.4320   11.1140   19.4080 N.pl3 164  FOL164     -0.2303
     15  C11        9.7650    9.5490   18.3530 C.ar  164  FOL164      0.0551
     16  C12       10.8580    8.7130   18.5580 C.ar  164  FOL164      0.0059
     17  C13       12.0890    9.2510   18.9140 C.ar  164  FOL164      0.0162
     18  C14       12.2420   10.6260   19.0640 C.ar  164  FOL164      0.0658
     19  C15       11.1470   11.4600   18.8630 C.ar  164  FOL164      0.0162
     20  C16        9.9130   10.9230   18.5120 C.ar  164  FOL164      0.0059
     21  C          8.4130    8.9550   17.9470 C.2   164  FOL164      0.2652
     22  O          8.3430    7.8640   17.3830 O.2   164  FOL164     -0.2684
     23  N          7.3540    9.7060   18.2370 N.am  164  FOL164     -0.1918
     24  CA         5.9780    9.3050   17.9040 C.3   164  FOL164      0.1986
     25  CB         5.2960    8.6460   19.1050 C.3   164  FOL164      0.0451
     26  CG         5.8760    7.2650   19.4190 C.3   164  FOL164      0.1164
     27  CD         5.5460    6.2530   18.3190 C.2   164  FOL164      0.3649
     28  OE1        4.7230    6.6060   17.4470 O.co2 164  FOL164     -0.2457
     29  OE2        6.1130    5.1400   18.3830 O.co2 164  FOL164     -0.2457
     30  CT         5.1930   10.5590   17.5150 C.2   164  FOL164      0.3842
     31  O1         5.6040   11.6440   17.9820 O.co2 164  FOL164     -0.2437
     32  O2         4.2030   10.4040   16.7670 O.co2 164  FOL164     -0.2437
@<TRIPOS>BOND
     1    32    30   ar
     2    22    21    2
     3    28    27   ar
     4    30    24    1
     5    30    31   ar
     6    24    23    1
     7    24    25    1
     8    21    23   am
     9    21    15    1
    10    27    29   ar
    11    27    26    1
    12    15    20   ar
    13    15    16   ar
    14    20    19   ar
    15    16    17   ar
    16    19    18   ar
    17    17    18   ar
    18    18    14    1
    19    25    26    1
    20    14    13    1
    21    13     9    1
    22     9    10    1
    23     9     8    2
    24    10    11    1
    25     8     7    2
    26    11    12    2
    27     7    12    1
    28     7     5    1
    29    12     1    2
    30     6     5    2
    31     5     4    2
    32     1     2    2
    33     4     2    2
    34     2     3    1
