@<TRIPOS>MOLECULE
2zzb_TPT_B_1.pdb
 19 23 0 0 0
SMALL
GASTEIGER

@<TRIPOS>ATOM
      1 PT1       -22.8630   -0.0020    0.0000 Pt    501  TPT501      0.0000
      2  N1       -22.4420    1.6670   -1.1290 N.pl3 501  TPT501      0.0000
      3  N2       -20.8820    0.0070   -0.0900 N.pl3 501  TPT501      0.0000
      4  N3       -22.4140   -1.6580    1.0770 N.pl3 501  TPT501      0.0000
      5  C1       -23.3570    2.5080   -1.6330 C.3   501  TPT501      0.0000
      6  C2       -23.0140    3.6370   -2.3410 C.2   501  TPT501      0.0000
      7  C3       -21.6560    3.9220   -2.5310 C.2   501  TPT501      0.0000
      8  C4       -20.7240    3.0960   -2.0040 C.2   501  TPT501      0.0000
      9  C5       -21.0980    1.9200   -1.3360 C.2   501  TPT501      0.0000
     10  C6       -20.1720    0.9500   -0.7240 C.3   501  TPT501      0.0000
     11  C7       -18.7950    1.0380   -0.6850 C.2   501  TPT501      0.0000
     12  C8       -18.1100    0.0330   -0.0470 C.2   501  TPT501      0.0000
     13  C9       -18.7870   -0.9500    0.6250 C.2   501  TPT501      0.0000
     14  C10      -20.1750   -0.9370    0.6170 C.2   501  TPT501      0.0000
     15  C11      -21.0820   -1.9140    1.2440 C.3   501  TPT501      0.0000
     16  C12      -20.6690   -2.9840    2.0330 C.2   501  TPT501      0.0000
     17  C13      -21.6080   -3.8300    2.5870 C.2   501  TPT501      0.0000
     18  C14      -23.0020   -3.5850    2.4250 C.2   501  TPT501      0.0000
     19  C15      -23.3260   -2.4670    1.6610 C.2   501  TPT501      0.0000
@<TRIPOS>BOND
     1     7     6    2
     2     7     8    1
     3     6     5    1
     4     8     9    2
     5     5     2    1
     6     9     2    1
     7     9    10    1
     8     2     1    1
     9    10    11    1
    10    10     3    1
    11    11    12    2
    12     3     1    1
    13     3    14    1
    14    12    13    1
    15     1     4    1
    16    14    13    2
    17    14    15    1
    18     4    15    1
    19     4    19    1
    20    15    16    1
    21    19    18    2
    22    16    17    2
    23    18    17    1
