@<TRIPOS>MOLECULE
2zzc_NAP_A_1.pdb
 48 52 0 0 0
SMALL
GASTEIGER

@<TRIPOS>ATOM
      1  PA       -57.1220   18.6500  -28.7530 P.3   901  NAP901      0.2189
      2  O1A      -58.4430   18.7320  -29.4330 O.2   901  NAP901     -0.5170
      3  O2A      -56.1990   17.5560  -29.0830 O.3   901  NAP901     -0.4371
      4  O5B      -57.4700   18.7790  -27.2070 O.3   901  NAP901     -0.3112
      5  C5B      -58.2010   19.9240  -26.6900 C.3   901  NAP901      0.1813
      6  C4B      -57.8780   20.2040  -25.2280 C.3   901  NAP901      0.1820
      7  O4B      -58.4350   21.4880  -24.8610 O.3   901  NAP901     -0.3136
      8  C3B      -58.4830   19.1870  -24.2820 C.3   901  NAP901      0.2157
      9  O3B      -57.5910   19.0640  -23.1440 O.3   901  NAP901     -0.2175
     10  C2B      -59.8270   19.8240  -23.9200 C.3   901  NAP901      0.2314
     11  O2B      -60.4490   19.3110  -22.7450 O.3   901  NAP901     -0.2630
     12  C1B      -59.4460   21.2670  -23.8110 C.3   901  NAP901      0.3158
     13  N9A      -60.5650   22.2070  -24.0360 N.pl3 901  NAP901     -0.1439
     14  C8A      -61.4720   22.2020  -25.0760 C.3   901  NAP901      0.3377
     15  N7A      -62.3500   23.1720  -24.9870 N.2   901  NAP901     -0.2095
     16  C5A      -62.0110   23.8280  -23.8660 C.2   901  NAP901      0.2526
     17  C6A      -62.5800   24.9670  -23.2430 C.2   901  NAP901      0.4393
     18  N6A      -63.6250   25.6190  -23.7140 N.pl3 901  NAP901      0.2180
     19  N1A      -61.9880   25.3810  -22.1160 N.2   901  NAP901      0.0021
     20  C2A      -60.9210   24.7670  -21.5890 C.3   901  NAP901      0.5254
     21  N3A      -60.3150   23.6690  -22.1210 N.2   901  NAP901     -0.0055
     22  C4A      -60.9120   23.2450  -23.2700 C.2   901  NAP901      0.3518
     23  O3       -56.3400   20.0500  -29.0080 O.3   901  NAP901     -0.2703
     24  PN       -54.8450   20.6190  -29.1890 P.3   901  NAP901      0.2189
     25  O1N      -54.8690   22.1020  -29.3700 O.2   901  NAP901     -0.5170
     26  O2N      -54.0740   20.0640  -27.9950 O.3   901  NAP901     -0.4371
     27  O5D      -54.1700   19.9170  -30.4780 O.3   901  NAP901     -0.3112
     28  C5D      -54.8300   19.6950  -31.7520 C.3   901  NAP901      0.1813
     29  C4D      -54.0830   18.6840  -32.6270 C.3   901  NAP901      0.1799
     30  O4D      -52.7390   19.1430  -32.9190 O.3   901  NAP901     -0.3327
     31  C3D      -53.8370   17.2800  -32.0430 C.3   901  NAP901      0.2158
     32  O3D      -54.9660   16.4430  -31.8850 O.3   901  NAP901     -0.2175
     33  C2D      -52.7760   16.7840  -32.9770 C.3   901  NAP901      0.2309
     34  O2D      -53.3860   16.3080  -34.1590 O.3   901  NAP901     -0.2158
     35  C1D      -51.9190   18.0180  -33.1940 C.3   901  NAP901      0.2263
     36  N1N      -50.6940   18.0440  -32.3000 N.pl3 901  NAP901     -0.2787
     37  C2N      -49.7750   16.9900  -32.3560 C.3   901  NAP901      0.1244
     38  C3N      -48.6220   16.9720  -31.5580 C.2   901  NAP901      0.0544
     39  C7N      -47.5950   15.8340  -31.6070 C.2   901  NAP901      0.2818
     40  O7N      -47.6570   15.0250  -32.5060 O.2   901  NAP901     -0.2670
     41  N7N      -46.6540   15.8130  -30.6500 N.am  901  NAP901     -0.0839
     42  C4N      -48.3900   18.0880  -30.6490 C.2   901  NAP901      0.0033
     43  C5N      -49.3200   19.1470  -30.5930 C.2   901  NAP901      0.0157
     44  C6N      -50.4500   19.1400  -31.3950 C.2   901  NAP901      0.0633
     45  P2B      -61.6470   18.1990  -22.7380 P.3   901  NAP901      0.5328
     46  O1X      -62.6030   18.6480  -21.6770 O.3   901  NAP901     -0.1145
     47  O2X      -62.1570   18.2780  -24.1550 O.2   901  NAP901     -0.2224
     48  O3X      -61.0920   16.8380  -22.4260 O.3   901  NAP901     -0.1145
@<TRIPOS>BOND
     1    34    33    1
     2    35    33    1
     3    35    30    1
     4    35    36    1
     5    33    31    1
     6    30    29    1
     7    29    31    1
     8    29    28    1
     9    40    39    2
    10    37    36    1
    11    37    38    1
    12    36    44    1
    13    31    32    1
    14    28    27    1
    15    39    38    1
    16    39    41   am
    17    38    42    2
    18    44    43    2
    19    42    43    1
    20    27    24    1
    21     2     1    2
    22    25    24    2
    23    24    23    1
    24    24    26    1
    25     3     1    1
    26    23     1    1
    27     1     4    1
    28     4     5    1
    29     5     6    1
    30     6     7    1
    31     6     8    1
    32    14    15    1
    33    14    13    1
    34    15    16    2
    35     7    12    1
    36     8    10    1
    37     8     9    1
    38    47    45    2
    39    13    12    1
    40    13    22    1
    41    10    12    1
    42    10    11    1
    43    16    22    1
    44    16    17    1
    45    18    17    1
    46    22    21    2
    47    17    19    2
    48    11    45    1
    49    45    48    1
    50    45    46    1
    51    21    20    1
    52    19    20    1
