@<TRIPOS>MOLECULE
2zzd_FRU_B_1.pdb
 12 12 0 0 0
SMALL
GASTEIGER

@<TRIPOS>ATOM
      1  C1       -30.9570   -7.4560  -32.0710 C.3   6002  FRU6002     0.2434
      2  C2       -30.7590   -6.5980  -33.4020 C.3   6002  FRU6002     0.2807
      3  C3       -29.3750   -6.4790  -33.9270 C.3   6002  FRU6002     0.2409
      4  C4       -29.4140   -5.3140  -34.8700 C.3   6002  FRU6002     0.2168
      5  C5       -30.4430   -4.4170  -34.1650 C.3   6002  FRU6002     0.1836
      6  C6       -31.6330   -3.9930  -35.1130 C.3   6002  FRU6002     0.2142
      7  O1       -30.0530   -7.1020  -31.0220 O.3   6002  FRU6002    -0.2148
      8  O2       -31.6960   -7.1170  -34.2800 O.3   6002  FRU6002    -0.1896
      9  O3       -28.5520   -7.4890  -34.5000 O.3   6002  FRU6002    -0.2149
     10  O4       -28.0980   -4.7710  -34.9850 O.3   6002  FRU6002    -0.2175
     11  O5       -30.9090   -5.2260  -33.0130 O.3   6002  FRU6002    -0.3253
     12  O6       -31.2620   -4.1870  -36.4230 O.3   6002  FRU6002    -0.2176
@<TRIPOS>BOND
     1    12     6    1
     2     6     5    1
     3    10     4    1
     4     4     5    1
     5     4     3    1
     6     9     3    1
     7     8     2    1
     8     5    11    1
     9     3     2    1
    10     2    11    1
    11     2     1    1
    12     1     7    1
