@<TRIPOS>MOLECULE
2zzg_A5A_A_1.pdb
 28 30 0 0 0
SMALL
GASTEIGER

@<TRIPOS>ATOM
      1  N        -21.2340   23.7790  -34.0000 N.3   999  A5A999     -0.1230
      2  CA       -21.9560   22.6190  -34.4580 C.3   999  A5A999      0.1710
      3  CB       -23.0590   23.0150  -35.4170 C.3   999  A5A999      0.0305
      4  C        -21.0440   21.7690  -35.2500 C.2   999  A5A999      0.2798
      5  O        -20.1400   22.2540  -35.8980 O.2   999  A5A999     -0.2701
      6  N3S      -21.3250   20.4760  -35.1890 N.am  999  A5A999     -0.0577
      7  S        -20.5180   19.4390  -35.9330 S.3   999  A5A999      0.0852
      8  O1S      -19.2170   19.2660  -35.2560 O.3   999  A5A999     -0.0508
      9  O2S      -21.2330   18.1620  -35.8630 O.3   999  A5A999     -0.0508
     10  O5'      -20.4790   19.9080  -37.4980 O.3   999  A5A999     -0.2230
     11  C5'      -21.7110   20.0080  -38.2110 C.3   999  A5A999      0.2064
     12  C4'      -21.6880   19.2170  -39.5200 C.3   999  A5A999      0.1842
     13  O4'      -20.4770   19.5000  -40.2380 O.3   999  A5A999     -0.3135
     14  C3'      -21.7130   17.6930  -39.3680 C.3   999  A5A999      0.2185
     15  O3'      -23.0070   17.1090  -39.2900 O.3   999  A5A999     -0.2174
     16  C2'      -21.0590   17.2090  -40.6330 C.3   999  A5A999      0.2570
     17  O2'      -22.0150   17.0640  -41.6770 O.3   999  A5A999     -0.2130
     18  C1'      -20.0810   18.3300  -40.9700 C.3   999  A5A999      0.3186
     19  N9       -18.7340   17.8290  -40.5880 N.pl3 999  A5A999     -0.1439
     20  C8       -18.2400   17.6960  -39.3480 C.3   999  A5A999      0.3377
     21  N7       -17.0040   17.1710  -39.4430 N.2   999  A5A999     -0.2095
     22  C5       -16.7360   16.9690  -40.7520 C.2   999  A5A999      0.2526
     23  C6       -15.6400   16.4670  -41.4490 C.2   999  A5A999      0.4393
     24  N6       -14.5300   16.0570  -40.7800 N.pl3 999  A5A999      0.2180
     25  N1       -15.6970   16.3950  -42.8060 N.2   999  A5A999      0.0021
     26  C2       -16.7900   16.8020  -43.4690 C.3   999  A5A999      0.5254
     27  N3       -17.8580   17.2890  -42.8220 N.2   999  A5A999     -0.0055
     28  C4       -17.8420   17.3790  -41.4700 C.2   999  A5A999      0.3518
@<TRIPOS>BOND
     1    26    27    1
     2    26    25    1
     3    27    28    2
     4    25    23    2
     5    17    16    1
     6    28    22    1
     7    28    19    1
     8    23    24    1
     9    23    22    1
    10    18    16    1
    11    18    19    1
    12    18    13    1
    13    22    21    2
    14    16    14    1
    15    19    20    1
    16    13    12    1
    17    12    14    1
    18    12    11    1
    19    21    20    1
    20    14    15    1
    21    11    10    1
    22    10     7    1
    23     7     9    1
    24     7     8    1
    25     7     6    1
    26     5     4    2
    27     3     2    1
    28     4     6   am
    29     4     2    1
    30     2     1    1
