@<TRIPOS>MOLECULE
2zzl_RET_A_1.pdb
 20 20 0 0 0
SMALL
GASTEIGER

@<TRIPOS>ATOM
      1  C1        39.0220   15.9920   21.5140 C.3   250  RET250      0.0183
      2  C2        39.5820   15.2130   20.2790 C.3   250  RET250      0.0044
      3  C3        40.2840   13.9770   20.4890 C.3   250  RET250      0.0047
      4  C4        39.8720   13.1570   21.6830 C.3   250  RET250      0.0217
      5  C5        39.3640   13.8700   22.9270 C.2   250  RET250     -0.0479
      6  C6        38.9380   15.1940   22.8810 C.2   250  RET250     -0.0307
      7  C7        38.3920   15.8140   24.1670 C.2   250  RET250     -0.0052
      8  C8        37.8980   17.0500   24.4060 C.2   250  RET250     -0.0046
      9  C9        37.3100   17.4550   25.6810 C.2   250  RET250     -0.0219
     10  C10       36.8160   18.7350   25.6920 C.2   250  RET250     -0.0043
     11  C11       36.1200   19.3670   26.8000 C.2   250  RET250     -0.0007
     12  C12       35.6970   20.6410   26.7750 C.2   250  RET250     -0.0046
     13  C13       35.0140   21.2890   27.9190 C.2   250  RET250     -0.0261
     14  C14       34.6520   22.5870   27.9640 C.2   250  RET250     -0.0300
     15  C15       34.7400   23.5880   26.9170 C.3   250  RET250      0.0304
     16  C16       39.9400   17.2190   21.5550 C.3   250  RET250      0.0043
     17  C17       37.6700   16.4320   20.9380 C.3   250  RET250      0.0043
     18  C18       39.3940   12.9930   24.1780 C.3   250  RET250      0.0260
     19  C19       37.2250   16.4790   26.8330 C.3   250  RET250      0.0310
     20  C20       34.7250   20.5810   29.2030 C.3   250  RET250      0.0307
@<TRIPOS>BOND
     1     2     3    1
     2     2     1    1
     3     3     4    1
     4    17     1    1
     5     1    16    1
     6     1     6    1
     7     4     5    1
     8     6     5    2
     9     6     7    1
    10     5    18    1
    11     7     8    2
    12     8     9    1
    13     9    10    2
    14     9    19    1
    15    10    11    1
    16    12    11    2
    17    12    13    1
    18    15    14    1
    19    13    14    2
    20    13    20    1
