@<TRIPOS>MOLECULE
2zzl_GLC_A_1.pdb
 11 11 0 0 0
SMALL
GASTEIGER

@<TRIPOS>ATOM
      1  C1        49.1950   23.7000   11.1140 C.3   400  GLC400      0.1777
      2  C2        49.8990   23.5150    9.6650 C.3   400  GLC400      0.2141
      3  C3        49.8300   24.8690    8.8590 C.3   400  GLC400      0.2173
      4  C4        48.3240   25.2020    8.6400 C.3   400  GLC400      0.2142
      5  C5        47.5980   25.3760   10.0280 C.3   400  GLC400      0.1810
      6  C6        46.0910   25.6450    9.9470 C.3   400  GLC400      0.2141
      7  O2        51.2870   23.1680    9.8380 O.3   400  GLC400     -0.2176
      8  O3        50.4360   24.7200    7.5730 O.3   400  GLC400     -0.2175
      9  O4        48.1300   26.4110    7.9290 O.3   400  GLC400     -0.2176
     10  O5        47.7570   24.1110   10.8840 O.3   400  GLC400     -0.3481
     11  O6        45.2830   24.5650    9.5230 O.3   400  GLC400     -0.2176
@<TRIPOS>BOND
     1     8     3    1
     2     9     4    1
     3     4     3    1
     4     4     5    1
     5     3     2    1
     6    11     6    1
     7     2     7    1
     8     2     1    1
     9     6     5    1
    10     5    10    1
    11    10     1    1
