@<TRIPOS>MOLECULE
2zzm_SAM_A_1.pdb
 27 29 0 0 0
SMALL
GASTEIGER

@<TRIPOS>ATOM
      1  N         13.6540  -10.3180   -7.2800 N.3   401  SAM401     -0.1208
      2  CA        12.5220  -10.3330   -8.2020 C.3   401  SAM401      0.1952
      3  C         12.8320  -11.3680   -9.3240 C.2   401  SAM401      0.3819
      4  O         13.7040  -11.1680  -10.1530 O.co2 401  SAM401     -0.2441
      5  OXT       12.2360  -12.4130   -9.3860 O.co2 401  SAM401     -0.2441
      6  CB        12.3010   -8.9090   -8.8210 C.3   401  SAM401      0.0414
      7  CG        12.0140   -7.6950   -7.8360 C.3   401  SAM401      0.0503
      8  SD        11.8050   -6.2300   -8.9390 S.3   401  SAM401     -0.1761
      9  CE        13.5070   -6.0320   -9.5610 C.3   401  SAM401      0.0590
     10  C5'       11.5810   -4.6630   -8.0470 C.3   401  SAM401      0.0806
     11  C4'       10.3770   -4.5550   -7.1460 C.3   401  SAM401      0.1622
     12  O4'       10.6790   -3.4740   -6.2630 O.3   401  SAM401     -0.3153
     13  C3'        9.1140   -4.1490   -7.9270 C.3   401  SAM401      0.2168
     14  O3'        8.0520   -5.0890   -7.7290 O.3   401  SAM401     -0.2175
     15  C2'        8.7580   -2.7440   -7.3930 C.3   401  SAM401      0.2569
     16  O2'        7.3460   -2.5360   -7.2980 O.3   401  SAM401     -0.2130
     17  C1'        9.4630   -2.7320   -6.0400 C.3   401  SAM401      0.3185
     18  N9         9.7780   -1.3940   -5.5380 N.pl3 401  SAM401     -0.1439
     19  C8        10.4250   -0.3920   -6.2040 C.3   401  SAM401      0.3377
     20  N7        10.5390    0.6470   -5.4480 N.2   401  SAM401     -0.2095
     21  C5         9.9780    0.3810   -4.2510 C.2   401  SAM401      0.2526
     22  C6         9.8000    1.1030   -3.0440 C.2   401  SAM401      0.4393
     23  N6        10.2670    2.3900   -2.9350 N.pl3 401  SAM401      0.2180
     24  N1         9.1710    0.5030   -2.0100 N.2   401  SAM401      0.0021
     25  C2         8.7160   -0.7580   -2.1040 C.3   401  SAM401      0.5254
     26  N3         8.8650   -1.4700   -3.2240 N.2   401  SAM401     -0.0055
     27  C4         9.4810   -0.9410   -4.3020 C.2   401  SAM401      0.3518
@<TRIPOS>BOND
     1     4     3   ar
     2     9     8    1
     3     5     3   ar
     4     3     2    1
     5     8    10    1
     6     8     7    1
     7     6     2    1
     8     6     7    1
     9     2     1    1
    10    10    11    1
    11    13    14    1
    12    13    15    1
    13    13    11    1
    14    15    16    1
    15    15    17    1
    16    11    12    1
    17    12    17    1
    18    19    18    1
    19    19    20    1
    20    17    18    1
    21    18    27    1
    22    20    21    2
    23    27    21    1
    24    27    26    2
    25    21    22    1
    26    26    25    1
    27    22    23    1
    28    22    24    2
    29    25    24    1
