@<TRIPOS>MOLECULE
2zzn_SAM_A_1.pdb
 27 29 0 0 0
SMALL
GASTEIGER

@<TRIPOS>ATOM
      1  N          6.9760  -15.6750  -35.4350 N.3   401  SAM401     -0.1208
      2  CA         5.8830  -15.9550  -34.4820 C.3   401  SAM401      0.1952
      3  C          6.2980  -17.1230  -33.5660 C.2   401  SAM401      0.3819
      4  O          6.8010  -18.1480  -34.0250 O.co2 401  SAM401     -0.2441
      5  OXT        6.1200  -17.0490  -32.3770 O.co2 401  SAM401     -0.2441
      6  CB         4.5710  -16.3930  -35.1920 C.3   401  SAM401      0.0414
      7  CG         3.9510  -15.4070  -36.2300 C.3   401  SAM401      0.0503
      8  SD         2.4190  -16.2220  -36.8240 S.3   401  SAM401     -0.1761
      9  CE         3.1620  -17.6160  -37.7530 C.3   401  SAM401      0.0590
     10  C5'        1.6820  -15.2590  -38.1340 C.3   401  SAM401      0.0806
     11  C4'        1.3260  -13.8740  -37.7350 C.3   401  SAM401      0.1622
     12  O4'        1.1420  -13.1660  -38.9550 O.3   401  SAM401     -0.3153
     13  C3'        0.0200  -13.8360  -36.9810 C.3   401  SAM401      0.2168
     14  O3'        0.2130  -13.2100  -35.7170 O.3   401  SAM401     -0.2175
     15  C2'       -0.9270  -13.0380  -37.8910 C.3   401  SAM401      0.2569
     16  O2'       -1.7060  -12.1380  -37.1250 O.3   401  SAM401     -0.2130
     17  C1'        0.0180  -12.3030  -38.8210 C.3   401  SAM401      0.3185
     18  N9        -0.5350  -12.0020  -40.1430 N.pl3 401  SAM401     -0.1439
     19  C8        -1.3790  -12.7720  -40.9140 C.3   401  SAM401      0.3377
     20  N7        -1.6390  -12.1620  -42.0400 N.2   401  SAM401     -0.2095
     21  C5        -0.9840  -10.9780  -42.0600 C.2   401  SAM401      0.2526
     22  C6        -0.8700   -9.9140  -42.9780 C.2   401  SAM401      0.4393
     23  N6        -1.5330   -9.9610  -44.1800 N.pl3 401  SAM401      0.2180
     24  N1        -0.0990   -8.8550  -42.6570 N.2   401  SAM401      0.0021
     25  C2         0.5600   -8.7870  -41.4870 C.3   401  SAM401      0.5254
     26  N3         0.4810   -9.7640  -40.5950 N.2   401  SAM401     -0.0055
     27  C4        -0.2690  -10.8620  -40.8390 C.2   401  SAM401      0.3518
@<TRIPOS>BOND
     1    23    22    1
     2    22    24    2
     3    22    21    1
     4    24    25    1
     5    21    20    2
     6    21    27    1
     7    20    19    1
     8    25    26    1
     9    19    18    1
    10    27    26    2
    11    27    18    1
    12    18    17    1
    13    12    17    1
    14    12    11    1
    15    17    15    1
    16    10    11    1
    17    10     8    1
    18    15    16    1
    19    15    13    1
    20     9     8    1
    21    11    13    1
    22    13    14    1
    23     8     7    1
    24     7     6    1
    25     1     2    1
    26     6     2    1
    27     2     3    1
    28     4     3   ar
    29     3     5   ar
