@<TRIPOS>MOLECULE
2zzs_HEC_1_1.pdb
 43 50 0 0 0
SMALL
GASTEIGER

@<TRIPOS>ATOM
      1 FE         11.7930  -29.6680  -60.0780 Fe    220  HEC220      0.0000
      2  CHA       15.1620  -30.1250  -60.2960 C.2   220  HEC220      0.0000
      3  CHB       12.3180  -27.2620  -57.7320 C.2   220  HEC220      0.0000
      4  CHC        8.4600  -29.0880  -60.0800 C.2   220  HEC220      0.0000
      5  CHD       11.2670  -32.3670  -62.2290 C.2   220  HEC220      0.0000
      6  NA        13.4520  -28.8100  -59.1840 N.2   220  HEC220      0.0000
      7  C1A       14.7450  -29.1890  -59.4090 C.2   220  HEC220      0.0000
      8  C2A       15.6050  -28.3490  -58.5730 C.2   220  HEC220      0.0000
      9  C3A       14.8170  -27.5770  -57.8300 C.2   220  HEC220      0.0000
     10  C4A       13.4310  -27.8740  -58.2090 C.2   220  HEC220      0.0000
     11  CMA       15.2760  -26.5650  -56.7470 C.3   220  HEC220      0.0000
     12  CAA       17.1700  -28.4290  -58.4910 C.3   220  HEC220      0.0000
     13  CBA       17.4650  -29.6360  -57.5870 C.3   220  HEC220      0.0000
     14  CGA       18.9580  -29.7910  -57.2710 C.2   220  HEC220      0.0000
     15  O1A       19.2840  -30.6110  -56.3750 O.co2 220  HEC220      0.0000
     16  O2A       19.7750  -29.0890  -57.9040 O.co2 220  HEC220      0.0000
     17  NB        10.6690  -28.4510  -59.2020 N.ar  220  HEC220      0.0000
     18  C1B       11.0480  -27.4910  -58.2180 C.ar  220  HEC220      0.0000
     19  C2B        9.8820  -26.7890  -57.7370 C.ar  220  HEC220      0.0000
     20  C3B        8.8070  -27.2720  -58.3900 C.ar  220  HEC220      0.0000
     21  C4B        9.2720  -28.3060  -59.2880 C.ar  220  HEC220      0.0000
     22  CMB        9.8280  -25.7050  -56.6740 C.3   220  HEC220      0.0000
     23  CAB        7.3600  -26.8200  -58.1510 C.3   220  HEC220      0.0000
     24  CBB        7.1680  -25.4170  -58.7480 C.3   220  HEC220      0.0000
     25  NC        10.2010  -30.6060  -60.9610 N.2   220  HEC220      0.0000
     26  C1C        8.9130  -30.1370  -60.8180 C.2   220  HEC220      0.0000
     27  C2C        8.0200  -31.0340  -61.5640 C.2   220  HEC220      0.0000
     28  C3C        8.7770  -31.8590  -62.2780 C.2   220  HEC220      0.0000
     29  C4C       10.1640  -31.6380  -61.8600 C.2   220  HEC220      0.0000
     30  CMC        6.5030  -30.7300  -61.7310 C.3   220  HEC220      0.0000
     31  CAC        8.3120  -32.9830  -63.2670 C.3   220  HEC220      0.0000
     32  CBC        7.4190  -32.4350  -64.4100 C.3   220  HEC220      0.0000
     33  ND        12.9730  -30.9970  -61.0550 N.ar  220  HEC220      0.0000
     34  C1D       12.5570  -32.0300  -61.8880 C.ar  220  HEC220      0.0000
     35  C2D       13.6820  -32.7530  -62.4120 C.ar  220  HEC220      0.0000
     36  C3D       14.8970  -32.0560  -61.8120 C.ar  220  HEC220      0.0000
     37  C4D       14.3760  -30.9840  -60.9970 C.ar  220  HEC220      0.0000
     38  CMD       13.5610  -33.9670  -63.3500 C.3   220  HEC220      0.0000
     39  CAD       16.3610  -32.4340  -62.0720 C.3   220  HEC220      0.0000
     40  CBD       16.6500  -31.8990  -63.4780 C.3   220  HEC220      0.0000
     41  CGD       18.1370  -32.0000  -63.7140 C.2   220  HEC220      0.0000
     42  O1D       18.5320  -33.1400  -63.8570 O.co2 220  HEC220      0.0000
     43  O2D       18.8950  -30.9920  -63.6860 O.co2 220  HEC220      0.0000
@<TRIPOS>BOND
     1    32    31    1
     2    42    41   ar
     3    41    43   ar
     4    41    40    1
     5    40    39    1
     6    38    35    1
     7    31    28    1
     8    35    34   ar
     9    35    36   ar
    10    28    29    1
    11    28    27    2
    12     5    34    2
    13     5    29    1
    14    39    36    1
    15    34    33   ar
    16    29    25    2
    17    36    37   ar
    18    30    27    1
    19    27    26    1
    20    33    37   ar
    21    33     1    1
    22    37     2    2
    23    25    26    1
    24    25     1    1
    25    26     4    2
    26     2     7    1
    27     4    21    1
    28     1    17    1
    29     1     6    1
    30     7     6    2
    31     7     8    1
    32    21    17   ar
    33    21    20   ar
    34    17    18   ar
    35     6    10    1
    36    24    23    1
    37     8    12    1
    38     8     9    2
    39    12    13    1
    40    20    23    1
    41    20    19   ar
    42    18    19   ar
    43    18     3    1
    44    10     9    1
    45    10     3    2
    46    16    14   ar
    47     9    11    1
    48    19    22    1
    49    13    14    1
    50    14    15   ar
