@<TRIPOS>MOLECULE
2zzu_359_H_1.pdb
 50 53 0 0 0
SMALL
GASTEIGER

@<TRIPOS>ATOM
      1  C14       35.6070    6.9670   10.2740 C.2     1  3591        0.2598
      2  O1        34.6730    7.2320   11.0260 O.2     1  3591       -0.2718
      3  N5        35.6660    7.3770    8.9700 N.am    1  3591       -0.1965
      4  C15       34.5450    8.1630    8.4640 C.3     1  3591        0.1733
      5  C18       34.6340    8.5000    6.9820 C.3     1  3591        0.0408
      6  C19       35.9580    9.2630    6.6040 C.3     1  3591        0.0908
      7  C20       33.2690    7.4270    8.7640 C.2     1  3591        0.2615
      8  O5        33.1880    6.2170    8.5900 O.2     1  3591       -0.2715
      9  N6        32.3000    8.2480    9.2370 N.am    1  3591       -0.1991
     10  C21       31.0230    7.6640    9.5170 C.3     1  3591        0.1415
     11  C16       31.6110    6.4550   11.6610 C.ar    1  3591       -0.0023
     12  C17       31.3500    6.1970   13.0110 C.ar    1  3591        0.0077
     13  C22       30.2870    6.8330   13.6850 C.ar    1  3591        0.0975
     14  C23       29.4510    7.6940   12.9690 C.ar    1  3591        0.0077
     15  C24       29.6960    7.9470   11.6170 C.ar    1  3591       -0.0023
     16  C25       30.7790    7.3410   10.9600 C.ar    1  3591       -0.0006
     17  C26       30.0800    6.6260   15.1230 C.2     1  3591        0.4766
     18  N1        30.7350    5.6690   15.7560 N.pl3   1  3591        0.2047
     19  C2        35.9300    9.7200    5.1650 C.2     1  3591        0.2608
     20  O2        35.7300    8.9300    4.2700 O.2     1  3591       -0.2717
     21  N3        36.0600   11.0330    4.9540 N.am    1  3591       -0.0878
     22  C1        37.7500    6.9510   11.6390 C.3     1  3591        0.0567
     23  N4        36.3240    5.0420   11.6560 N.3     1  3591       -0.0738
     24  C5        36.8040    6.1100   10.7990 C.3     1  3591        0.1791
     25  S1        36.2080    3.4640   11.0080 S.O2    1  3591        0.0577
     26  O4        35.7290    3.6980    9.6870 O.2     1  3591       -0.1561
     27  O3        35.4220    2.7870   11.9800 O.2     1  3591       -0.1561
     28  C9        37.8360    2.8160   10.9480 C.3     1  3591        0.1706
     29  C8        38.2570    2.3730   12.3580 C.3     1  3591        0.0289
     30  N2        29.2460    7.3820   15.8280 N.pl3   1  3591        0.2047
     31  C13       42.7420    5.3820   10.3270 C.2     1  3591        0.0089
     32  C12       42.3470    4.9620   11.6550 C.2     1  3591        0.0172
     33  C3        41.0740    5.2210   12.1740 C.2     1  3591        0.0806
     34  C4        40.1140    5.8920   11.3490 C.2     1  3591        0.0136
     35  C27       40.4700    6.2840   10.0630 C.2     1  3591        0.0086
     36  C6        41.7830    6.0790    9.5190 C.3     1  3591        0.1598
     37  N7        40.4840    5.1150   13.4220 N.2     1  3591       -0.2442
     38  C29       39.2260    5.6910   13.4000 C.2     1  3591        0.0946
     39  C28       38.9540    6.1810   12.1190 C.2     1  3591        0.0001
     40  O6        41.9960    6.7080    8.2810 O.3     1  3591       -0.3427
     41  C7        43.2180    7.4380    8.0820 C.3     1  3591        0.1694
     42  C11       44.1600   11.0980   10.2420 C.ar    1  3591        0.0066
     43  C10       45.0120    9.9930   10.3140 C.ar    1  3591       -0.0000
     44  C31       44.6740    8.8090    9.6350 C.ar    1  3591       -0.0018
     45  C32       43.5050    8.7070    8.8600 C.ar    1  3591        0.0075
     46  C30       42.6790    9.8370    8.7750 C.ar    1  3591        0.0047
     47  C33       42.9870   11.0200    9.4760 C.ar    1  3591        0.0795
     48  C34       42.0410   12.1240    9.4580 C.2     1  3591        0.3877
     49  O8        42.4610   13.2920    9.6010 O.co2   1  3591       -0.2406
     50  O7        40.8300   11.8470    9.3260 O.co2   1  3591       -0.2406
@<TRIPOS>BOND
     1    20    19    2
     2    21    19   am
     3    19     6    1
     4     6     5    1
     5     5     4    1
     6    41    40    1
     7    41    45    1
     8    40    36    1
     9     4     7    1
    10     4     3    1
    11     8     7    2
    12     7     9   am
    13    46    45   ar
    14    46    47   ar
    15    45    44   ar
    16     3     1   am
    17     9    10    1
    18    50    48   ar
    19    48    47    1
    20    48    49   ar
    21    47    42   ar
    22    10    16    1
    23    36    35    1
    24    36    31    1
    25    44    43   ar
    26    26    25    2
    27    35    34    2
    28    42    43   ar
    29     1    24    1
    30     1     2    2
    31    31    32    2
    32    24    22    1
    33    24    23    1
    34    28    25    1
    35    28    29    1
    36    16    15   ar
    37    16    11   ar
    38    25    23    1
    39    25    27    2
    40    34    39    1
    41    34    33    1
    42    15    14   ar
    43    22    39    1
    44    32    33    1
    45    11    12   ar
    46    39    38    2
    47    33    37    2
    48    14    13   ar
    49    12    13   ar
    50    38    37    1
    51    13    17    1
    52    17    18    2
    53    17    30    1
