@<TRIPOS>MOLECULE
2zzu_BGC_L_1.pdb
 11 11 0 0 0
SMALL
GASTEIGER

@<TRIPOS>ATOM
      1  C2        38.0230   35.6190   61.4900 C.3   1052  BGC1052     0.2141
      2  C3        38.1870   34.5060   60.4540 C.3   1052  BGC1052     0.2173
      3  C4        39.0890   33.4120   61.0270 C.3   1052  BGC1052     0.2142
      4  C5        38.4770   32.8810   62.3430 C.3   1052  BGC1052     0.1810
      5  C6        39.4180   31.8380   62.9670 C.3   1052  BGC1052     0.2141
      6  C1        37.4530   35.0280   62.8110 C.3   1052  BGC1052     0.1777
      7  O2        37.1210   36.5990   60.9640 O.3   1052  BGC1052    -0.2176
      8  O3        38.7820   35.0460   59.2650 O.3   1052  BGC1052    -0.2175
      9  O4        39.1960   32.3410   60.0790 O.3   1052  BGC1052    -0.2176
     10  O5        38.2760   33.9490   63.2860 O.3   1052  BGC1052    -0.3481
     11  O6        39.7320   30.7920   62.0620 O.3   1052  BGC1052    -0.2176
@<TRIPOS>BOND
     1     8     2    1
     2     9     3    1
     3     2     3    1
     4     2     1    1
     5     7     1    1
     6     3     4    1
     7     1     6    1
     8    11     5    1
     9     4     5    1
    10     4    10    1
    11     6    10    1
