@<TRIPOS>MOLECULE
2zzu_FUC_L_1.pdb
 10 10 0 0 0
SMALL
GASTEIGER

@<TRIPOS>ATOM
      1  C1        21.3390   32.2400   62.3430 C.3   1060  FUC1060     0.1776
      2  C2        20.2410   33.2450   62.7360 C.3   1060  FUC1060     0.2141
      3  C3        20.1900   34.3660   61.7010 C.3   1060  FUC1060     0.2172
      4  C4        19.9440   33.7510   60.3230 C.3   1060  FUC1060     0.2116
      5  C5        21.0480   32.7250   60.0200 C.3   1060  FUC1060     0.1483
      6  C6        20.8060   32.0860   58.6540 C.3   1060  FUC1060     0.0349
      7  O2        20.5490   33.8070   64.0170 O.3   1060  FUC1060    -0.2176
      8  O3        19.1230   35.2660   62.0230 O.3   1060  FUC1060    -0.2175
      9  O4        18.6740   33.0910   60.3290 O.3   1060  FUC1060    -0.2177
     10  O5        21.0870   31.7080   61.0330 O.3   1060  FUC1060    -0.3508
@<TRIPOS>BOND
     1     6     5    1
     2     5     4    1
     3     5    10    1
     4     4     9    1
     5     4     3    1
     6    10     1    1
     7     3     8    1
     8     3     2    1
     9     1     2    1
    10     2     7    1
