@<TRIPOS>MOLECULE
351c_HEM_A_1.pdb
 43 50 0 0 0
SMALL
GASTEIGER

@<TRIPOS>ATOM
      1 FE          9.4050  -12.9740   18.2190 Fe      0  HEM0        0.0000
      2  CHA       11.7050  -15.2470   17.1350 C.2     0  HEM0        0.0000
      3  CHB        7.6090  -13.4570   15.3360 C.2     0  HEM0        0.0000
      4  CHC        6.8860  -11.0030   19.4300 C.2     0  HEM0        0.0000
      5  CHD       11.2620  -12.3160   20.9550 C.2     0  HEM0        0.0000
      6  NA         9.6280  -14.1400   16.5240 N.ar    0  HEM0        0.0000
      7  C1A       10.6470  -14.9930   16.2850 C.ar    0  HEM0        0.0000
      8  C2A       10.4620  -15.5510   15.0350 C.ar    0  HEM0        0.0000
      9  C3A        9.3220  -14.9790   14.4960 C.ar    0  HEM0        0.0000
     10  C4A        8.7920  -14.1540   15.4590 C.ar    0  HEM0        0.0000
     11  CMA        8.7220  -15.2210   13.1280 C.3     0  HEM0        0.0000
     12  CAA       11.3270  -16.6000   14.3940 C.3     0  HEM0        0.0000
     13  CBA       10.9130  -17.9510   14.9310 C.3     0  HEM0        0.0000
     14  CGA       11.7570  -19.0490   14.3100 C.2     0  HEM0        0.0000
     15  O1A       12.6060  -18.7420   13.4800 O.co2   0  HEM0        0.0000
     16  O2A       11.1540  -20.1730   14.1200 O.co2   0  HEM0        0.0000
     17  NB         7.5960  -12.3020   17.4860 N.2     0  HEM0        0.0000
     18  C1B        7.0600  -12.6050   16.2720 C.2     0  HEM0        0.0000
     19  C2B        5.8130  -11.9870   16.1640 C.2     0  HEM0        0.0000
     20  C3B        5.5540  -11.3630   17.3820 C.2     0  HEM0        0.0000
     21  C4B        6.7000  -11.5180   18.1620 C.2     0  HEM0        0.0000
     22  CMB        4.8770  -12.0760   14.9780 C.3     0  HEM0        0.0000
     23  CAB        4.2820  -10.6470   17.8070 C.3     0  HEM0        0.0000
     24  CBB        3.0580  -11.5500   17.9130 C.3     0  HEM0        0.0000
     25  NC         9.1240  -11.8810   19.8980 N.ar    0  HEM0        0.0000
     26  C1C        8.0140  -11.1670   20.2150 C.ar    0  HEM0        0.0000
     27  C2C        8.2330  -10.5480   21.4390 C.ar    0  HEM0        0.0000
     28  C3C        9.5380  -10.8040   21.7860 C.ar    0  HEM0        0.0000
     29  C4C       10.0290  -11.7170   20.8830 C.ar    0  HEM0        0.0000
     30  CMC        7.2960   -9.6240   22.1780 C.3     0  HEM0        0.0000
     31  CAC       10.3140  -10.1420   22.9000 C.3     0  HEM0        0.0000
     32  CBC        9.8560  -10.4810   24.3030 C.3     0  HEM0        0.0000
     33  ND        11.1200  -13.6720   18.9250 N.2     0  HEM0        0.0000
     34  C1D       11.7510  -13.2460   20.0660 C.2     0  HEM0        0.0000
     35  C2D       12.9570  -13.9200   20.2100 C.2     0  HEM0        0.0000
     36  C3D       13.0350  -14.8300   19.1600 C.2     0  HEM0        0.0000
     37  C4D       11.9250  -14.6220   18.3480 C.2     0  HEM0        0.0000
     38  CMD       13.9730  -13.7090   21.3210 C.3     0  HEM0        0.0000
     39  CAD       14.1310  -15.8410   18.9050 C.3     0  HEM0        0.0000
     40  CBD       13.7370  -17.2340   19.3740 C.3     0  HEM0        0.0000
     41  CGD       14.8310  -18.2440   19.0190 C.2     0  HEM0        0.0000
     42  O1D       14.5010  -19.4130   18.8040 O.co2   0  HEM0        0.0000
     43  O2D       16.1130  -17.9590   19.1830 O.co2   0  HEM0        0.0000
@<TRIPOS>BOND
     1    11     9    1
     2    15    14   ar
     3    16    14   ar
     4    14    13    1
     5    12    13    1
     6    12     8    1
     7     9     8   ar
     8     9    10   ar
     9    22    19    1
    10     8     7   ar
    11     3    10    2
    12     3    18    1
    13    10     6   ar
    14    19    18    1
    15    19    20    2
    16    18    17    2
    17     7     6   ar
    18     7     2    2
    19     6     1    1
    20     2    37    1
    21    20    23    1
    22    20    21    1
    23    17    21    1
    24    17     1    1
    25    23    24    1
    26    21     4    2
    27     1    33    1
    28     1    25    1
    29    37    33    2
    30    37    36    1
    31    42    41   ar
    32    39    36    1
    33    39    40    1
    34    33    34    1
    35    41    43   ar
    36    41    40    1
    37    36    35    2
    38     4    26    1
    39    25    26   ar
    40    25    29   ar
    41    34    35    1
    42    34     5    2
    43    35    38    1
    44    26    27   ar
    45    29     5    1
    46    29    28   ar
    47    27    28   ar
    48    27    30    1
    49    28    31    1
    50    31    32    1
