@<TRIPOS>MOLECULE
35c8_NOX_L_1.pdb
 24 25 0 0 0
SMALL
GASTEIGER

@<TRIPOS>ATOM
      1  N1        30.0520  -13.3670   -1.7370 N.4   212  NOX212      0.4305
      2  C2        31.2370  -12.7010   -1.0080 C.3   212  NOX212     -0.0276
      3  C3        30.7760  -11.4130   -0.3500 C.3   212  NOX212     -0.0173
      4  C4        29.6630  -11.6740    0.6540 C.3   212  NOX212     -0.0039
      5  C5        28.4930  -12.4630    0.0260 C.3   212  NOX212     -0.0173
      6  C6        28.9500  -13.7190   -0.7330 C.3   212  NOX212     -0.0276
      7  O7        29.5300  -12.4940   -2.7140 O.3   212  NOX212     -0.2896
      8  C8        30.5440  -14.6370   -2.4680 C.3   212  NOX212     -0.0228
      9  C9        31.0510  -15.7280   -1.5230 C.3   212  NOX212      0.0091
     10  C10       31.5160  -16.8710   -2.3950 C.ar  212  NOX212     -0.0240
     11  C11       32.8730  -17.0870   -2.6270 C.ar  212  NOX212     -0.0030
     12  C12       33.3130  -18.1270   -3.4830 C.ar  212  NOX212      0.0163
     13  C13       32.3860  -18.9790   -4.1200 C.ar  212  NOX212      0.0733
     14  C14       31.0080  -18.7560   -3.8650 C.ar  212  NOX212      0.0163
     15  C15       30.5910  -17.7150   -3.0200 C.ar  212  NOX212     -0.0030
     16  N16       32.7610  -19.9210   -5.1950 N.am  212  NOX212     -0.1792
     17  C17       34.0210  -20.0550   -5.7340 C.2   212  NOX212      0.2456
     18  O18       34.9160  -19.2870   -5.4010 O.2   212  NOX212     -0.2730
     19  C19       34.2880  -21.0840   -6.8440 C.3   212  NOX212      0.0878
     20  C20       35.3990  -20.6280   -7.8140 C.3   212  NOX212      0.0214
     21  C21       36.3180  -21.7610   -8.3140 C.3   212  NOX212      0.1146
     22  C22       37.8090  -21.3660   -8.3360 C.2   212  NOX212      0.3649
     23  O23       38.2050  -20.4400   -7.5910 O.co2 212  NOX212     -0.2457
     24  O24       38.5910  -21.9800   -9.0940 O.co2 212  NOX212     -0.2457
@<TRIPOS>BOND
     1    24    22   ar
     2    22    21    1
     3    22    23   ar
     4    21    20    1
     5    20    19    1
     6    19    17    1
     7    17    18    2
     8    17    16   am
     9    16    13    1
    10    13    14   ar
    11    13    12   ar
    12    14    15   ar
    13    12    11   ar
    14    15    10   ar
    15     7     1    1
    16    11    10   ar
    17     8     1    1
    18     8     9    1
    19    10     9    1
    20     1     2    1
    21     1     6    1
    22     2     3    1
    23     6     5    1
    24     3     4    1
    25     5     4    1
