@<TRIPOS>MOLECULE
3a05_TRP_A_1.pdb
 14 15 0 0 0
SMALL
GASTEIGER

@<TRIPOS>ATOM
      1  N        -38.0800  -14.4160  -14.6850 N.3   377  TRP377     -0.1241
      2  CA       -36.8770  -14.9600  -14.0290 C.3   377  TRP377      0.1605
      3  C        -35.6110  -14.2130  -14.5150 C.2   377  TRP377      0.2264
      4  O        -34.5580  -14.3310  -13.9240 O.2   377  TRP377     -0.2867
      5  CB       -36.7900  -16.4690  -14.2660 C.3   377  TRP377      0.0550
      6  CG       -38.0480  -17.1970  -13.8110 C.2   377  TRP377     -0.0000
      7  CD1      -39.0100  -17.7840  -14.6320 C.2   377  TRP377      0.0946
      8  CD2      -38.5350  -17.3640  -12.4370 C.2   377  TRP377      0.0113
      9  NE1      -39.9980  -18.3610  -13.8430 N.2   377  TRP377     -0.2442
     10  CE2      -39.7450  -18.1060  -12.5110 C.2   377  TRP377      0.0804
     11  CE3      -38.0340  -16.9990  -11.1640 C.2   377  TRP377     -0.0202
     12  CZ2      -40.4850  -18.4720  -11.3620 C.2   377  TRP377      0.0148
     13  CZ3      -38.7650  -17.3870  -10.0040 C.3   377  TRP377      0.0521
     14  CH2      -39.9830  -18.1110  -10.1260 C.2   377  TRP377     -0.0199
@<TRIPOS>BOND
     1     1     2    1
     2     7     9    1
     3     7     6    2
     4     3     2    1
     5     3     4    2
     6     5     2    1
     7     5     6    1
     8     9    10    2
     9     6     8    1
    10    10     8    1
    11    10    12    1
    12     8    11    2
    13    12    14    2
    14    11    13    1
    15    14    13    1
