@<TRIPOS>MOLECULE
3a06_NDP_A_1.pdb
 48 52 0 0 0
SMALL
GASTEIGER

@<TRIPOS>ATOM
      1  PA         5.2810   25.6410   24.1450 P.3   3001  NDP3001     0.2189
      2  O1A        3.8840   25.2170   24.3960 O.3   3001  NDP3001    -0.4371
      3  O2A        6.4180   24.5460   24.3530 O.2   3001  NDP3001    -0.5170
      4  O5B        5.5780   26.9180   25.0720 O.3   3001  NDP3001    -0.3112
      5  C5B        4.9350   28.1640   24.8290 C.3   3001  NDP3001     0.1813
      6  C4B        5.2830   29.2340   25.8930 C.3   3001  NDP3001     0.1820
      7  O4B        4.1780   30.1860   25.8790 O.3   3001  NDP3001    -0.3136
      8  C3B        5.3610   28.7460   27.3460 C.3   3001  NDP3001     0.2157
      9  O3B        6.1420   29.6900   28.0770 O.3   3001  NDP3001    -0.2175
     10  C2B        3.9350   28.9100   27.8620 C.3   3001  NDP3001     0.2314
     11  O2B        3.9350   29.1390   29.2900 O.3   3001  NDP3001    -0.2630
     12  C1B        3.5670   30.2340   27.1960 C.3   3001  NDP3001     0.3158
     13  N9A        2.0960   30.4460   27.0250 N.pl3 3001  NDP3001    -0.1439
     14  C8A        1.1550   29.5080   26.8560 C.3   3001  NDP3001     0.3377
     15  N7A       -0.0370   30.0910   26.7250 N.2   3001  NDP3001    -0.2095
     16  C5A        0.1640   31.4120   26.8140 C.2   3001  NDP3001     0.2526
     17  C6A       -0.6870   32.5100   26.7620 C.2   3001  NDP3001     0.4393
     18  N6A       -2.0030   32.3060   26.5760 N.pl3 3001  NDP3001     0.2180
     19  N1A       -0.1610   33.7480   26.8730 N.2   3001  NDP3001     0.0021
     20  C2A        1.1470   33.9470   27.0450 C.3   3001  NDP3001     0.5254
     21  N3A        1.9850   32.9130   27.1220 N.2   3001  NDP3001    -0.0055
     22  C4A        1.5150   31.6440   26.9940 C.2   3001  NDP3001     0.3518
     23  O3         5.3830   26.1750   22.6160 O.3   3001  NDP3001    -0.2703
     24  PN         6.7170   26.0740   21.7130 P.3   3001  NDP3001     0.2189
     25  O1N        6.9320   24.7100   21.1590 O.2   3001  NDP3001    -0.5170
     26  O2N        7.9850   26.7310   22.4620 O.3   3001  NDP3001    -0.4371
     27  O5D        6.3640   27.1130   20.5380 O.3   3001  NDP3001    -0.3112
     28  C5D        6.0910   28.5070   20.7810 C.3   3001  NDP3001     0.1813
     29  C4D        5.7720   29.1890   19.4400 C.3   3001  NDP3001     0.1799
     30  O4D        6.9540   28.9460   18.5790 O.3   3001  NDP3001    -0.3327
     31  C3D        4.5770   28.5270   18.7330 C.3   3001  NDP3001     0.2158
     32  O3D        3.8160   29.5000   18.0010 O.3   3001  NDP3001    -0.2175
     33  C2D        5.2410   27.5370   17.7660 C.3   3001  NDP3001     0.2309
     34  O2D        4.4410   27.3100   16.5970 O.3   3001  NDP3001    -0.2158
     35  C1D        6.5100   28.2880   17.3770 C.3   3001  NDP3001     0.2263
     36  N1N        7.5230   27.3380   16.8670 N.pl3 3001  NDP3001    -0.2787
     37  C2N        7.9680   26.2720   17.6550 C.3   3001  NDP3001     0.1244
     38  C3N        8.9180   25.3900   17.1480 C.2   3001  NDP3001     0.0544
     39  C7N        9.3810   24.2310   18.0090 C.2   3001  NDP3001     0.2818
     40  O7N       10.2190   23.4510   17.5740 O.2   3001  NDP3001    -0.2670
     41  N7N        8.8280   24.1320   19.2200 N.am  3001  NDP3001    -0.0839
     42  C4N        9.5070   25.5610   15.7240 C.2   3001  NDP3001     0.0033
     43  C5N        9.0120   26.6740   15.0320 C.2   3001  NDP3001     0.0157
     44  C6N        8.0450   27.5320   15.5700 C.2   3001  NDP3001     0.0633
     45  P2B        3.8000   27.8660   30.3130 P.3   3001  NDP3001     0.5328
     46  O1X        4.7350   26.7720   29.9930 O.2   3001  NDP3001    -0.2224
     47  O2X        4.0720   28.4830   31.7420 O.3   3001  NDP3001    -0.1145
     48  O3X        2.3050   27.4310   30.1780 O.3   3001  NDP3001    -0.1145
@<TRIPOS>BOND
     1    43    44    2
     2    43    42    1
     3    44    36    1
     4    42    38    2
     5    34    33    1
     6    36    35    1
     7    36    37    1
     8    38    37    1
     9    38    39    1
    10    35    33    1
    11    35    30    1
    12    40    39    2
    13    33    31    1
    14    32    31    1
    15    39    41   am
    16    30    29    1
    17    31    29    1
    18    29    28    1
    19    27    28    1
    20    27    24    1
    21    25    24    2
    22    24    26    1
    23    24    23    1
    24    23     1    1
    25     1     3    2
    26     1     2    1
    27     1     4    1
    28     5     4    1
    29     5     6    1
    30     7     6    1
    31     7    12    1
    32     6     8    1
    33    18    17    1
    34    15    16    2
    35    15    14    1
    36    17    16    1
    37    17    19    2
    38    16    22    1
    39    14    13    1
    40    19    20    1
    41    22    13    1
    42    22    21    2
    43    13    12    1
    44    20    21    1
    45    12    10    1
    46     8    10    1
    47     8     9    1
    48    10    11    1
    49    11    45    1
    50    46    45    2
    51    48    45    1
    52    45    47    1
