@<TRIPOS>MOLECULE
3a09_MAV_A_1.pdb
 13 13 0 0 0
SMALL
GASTEIGER

@<TRIPOS>ATOM
      1  C1       -20.8320    5.0170   18.6230 C.3   503  MAV503      0.3028
      2  O1       -22.0700    4.4320   18.5300 O.3   503  MAV503     -0.1869
      3  C2       -19.6840    4.0200   18.4530 C.3   503  MAV503      0.2435
      4  O2       -18.4410    4.7230   18.4260 O.3   503  MAV503     -0.2148
      5  C3       -19.6370    3.0940   19.6640 C.3   503  MAV503      0.2204
      6  O3       -18.4800    2.2800   19.5000 O.3   503  MAV503     -0.2174
      7  C4       -19.4380    3.9710   20.9350 C.3   503  MAV503      0.2229
      8  O4       -19.5810    3.0580   22.0600 O.3   503  MAV503     -0.2171
      9  C5       -20.6800    4.9000   21.0630 C.3   503  MAV503      0.2530
     10  O5       -20.7260    5.6980   19.8750 O.3   503  MAV503     -0.3149
     11  C6       -20.4850    5.8760   22.2250 C.2   503  MAV503      0.3941
     12  O6A      -19.3480    6.0400   22.7080 O.co2 503  MAV503     -0.2429
     13  O6B      -21.3460    6.7830   22.3470 O.co2 503  MAV503     -0.2429
@<TRIPOS>BOND
     1     4     3    1
     2     3     1    1
     3     3     5    1
     4     2     1    1
     5     1    10    1
     6     6     5    1
     7     5     7    1
     8    10     9    1
     9     7     9    1
    10     7     8    1
    11     9    11    1
    12    11    13   ar
    13    11    12   ar
