@<TRIPOS>MOLECULE
3a09_BEM_A_1.pdb
 12 12 0 0 0
SMALL
GASTEIGER

@<TRIPOS>ATOM
      1  C1       -18.4450    2.9750   22.7640 C.3   502  BEM502      0.1783
      2  C2       -18.7170    2.4130   24.1600 C.3   502  BEM502      0.2141
      3  O2       -19.4070    1.1790   24.0360 O.3   502  BEM502     -0.2176
      4  C3       -17.3690    2.2530   24.8690 C.3   502  BEM502      0.2178
      5  O3       -17.5660    1.6700   26.1320 O.3   502  BEM502     -0.2175
      6  C4       -16.4130    1.4100   24.0420 C.3   502  BEM502      0.2227
      7  O4       -15.0830    1.5100   24.5670 O.3   502  BEM502     -0.2171
      8  C5       -16.3140    2.0250   22.6170 C.3   502  BEM502      0.2512
      9  O5       -17.6290    2.0600   22.0340 O.3   502  BEM502     -0.3403
     10  C6       -15.3460    1.1800   21.8040 C.2   502  BEM502      0.3940
     11  O6A      -14.1190    1.5120   21.8630 O.co2 502  BEM502     -0.2429
     12  O6B      -15.8740    0.3890   20.9580 O.co2 502  BEM502     -0.2429
@<TRIPOS>BOND
     1    12    10   ar
     2    10    11   ar
     3    10     8    1
     4     9     8    1
     5     9     1    1
     6     8     6    1
     7     1     2    1
     8     3     2    1
     9     6     7    1
    10     6     4    1
    11     2     4    1
    12     4     5    1
