@<TRIPOS>MOLECULE
3a09_MAW_A_1.pdb
 11 11 0 0 0
SMALL
GASTEIGER

@<TRIPOS>ATOM
      1  C1       -14.5730    0.3410   25.1550 C.3   501  MAW501      0.2413
      2  C2       -13.0630    0.5080   25.1110 C.3   501  MAW501      0.2297
      3  O2       -12.6770    1.7780   25.6720 O.3   501  MAW501     -0.2160
      4  C3       -12.4510   -0.5580   26.0050 C.3   501  MAW501      0.2111
      5  O3       -11.0410   -0.2830   26.1310 O.3   501  MAW501     -0.2153
      6  C4       -13.1070   -0.6600   27.3580 C.2   501  MAW501      0.0526
      7  C5       -14.4120   -0.1510   27.5530 C.2   501  MAW501      0.2164
      8  O5       -15.1050    0.4970   26.5220 O.2   501  MAW501     -0.4664
      9  C6       -15.0760   -0.0250   28.8150 C.2   501  MAW501      0.4208
     10  O6A      -15.9810    0.8300   28.8660 O.co2 501  MAW501     -0.2371
     11  O6B      -14.7480   -0.7560   29.7710 O.co2 501  MAW501     -0.2371
@<TRIPOS>BOND
     1     2     1    1
     2     2     3    1
     3     2     4    1
     4     1     8    1
     5     4     5    1
     6     4     6    1
     7     8     7    1
     8     6     7    2
     9     7     9    1
    10     9    10   ar
    11     9    11   ar
