@<TRIPOS>MOLECULE
3a0b_HEM_e_1.pdb
 43 50 0 0 0
SMALL
GASTEIGER

@<TRIPOS>ATOM
      1 FE         39.7840  -28.3930  -20.2890 Fe    6040  HEM6040     0.0000
      2  CHA       42.6190  -30.3040  -19.9610 C.2   6040  HEM6040     0.0000
      3  CHB       38.0950  -30.5680  -18.1980 C.2   6040  HEM6040     0.0000
      4  CHC       36.9020  -26.5050  -20.5850 C.2   6040  HEM6040     0.0000
      5  CHD       41.4140  -26.2020  -22.3700 C.2   6040  HEM6040     0.0000
      6  NA        40.2630  -30.1110  -19.2700 N.2   6040  HEM6040     0.0000
      7  C1A       41.4990  -30.7290  -19.2770 C.2   6040  HEM6040     0.0000
      8  C2A       41.4120  -31.9050  -18.4340 C.2   6040  HEM6040     0.0000
      9  C3A       40.1700  -31.9780  -17.9500 C.2   6040  HEM6040     0.0000
     10  C4A       39.4180  -30.8520  -18.4640 C.2   6040  HEM6040     0.0000
     11  CMA       39.6300  -33.0740  -17.0050 C.3   6040  HEM6040     0.0000
     12  CAA       42.5560  -32.9010  -18.1460 C.3   6040  HEM6040     0.0000
     13  CBA       43.2710  -32.4970  -16.8620 C.3   6040  HEM6040     0.0000
     14  CGA       42.2670  -32.3660  -15.7470 C.2   6040  HEM6040     0.0000
     15  O1A       41.4270  -33.2890  -15.5860 O.co2 6040  HEM6040     0.0000
     16  O2A       42.3060  -31.3410  -15.0200 O.co2 6040  HEM6040     0.0000
     17  NB        37.8610  -28.5130  -19.5340 N.ar  6040  HEM6040     0.0000
     18  C1B       37.3790  -29.4960  -18.6870 C.ar  6040  HEM6040     0.0000
     19  C2B       35.9890  -29.1990  -18.4060 C.ar  6040  HEM6040     0.0000
     20  C3B       35.6620  -28.0840  -19.0620 C.ar  6040  HEM6040     0.0000
     21  C4B       36.8300  -27.6260  -19.7860 C.ar  6040  HEM6040     0.0000
     22  CMB       35.0490  -30.0300  -17.5060 C.3   6040  HEM6040     0.0000
     23  CAB       34.2770  -27.4000  -19.0510 C.2   6040  HEM6040     0.0000
     24  CBB       33.1660  -28.1390  -18.9620 C.2   6040  HEM6040     0.0000
     25  NC        39.2550  -26.6780  -21.2880 N.2   6040  HEM6040     0.0000
     26  C1C       38.0130  -26.0680  -21.2740 C.2   6040  HEM6040     0.0000
     27  C2C       38.0880  -24.8900  -22.1140 C.2   6040  HEM6040     0.0000
     28  C3C       39.3280  -24.8070  -22.6040 C.2   6040  HEM6040     0.0000
     29  C4C       40.0910  -25.9300  -22.0950 C.2   6040  HEM6040     0.0000
     30  CMC       36.9360  -23.9010  -22.3940 C.3   6040  HEM6040     0.0000
     31  CAC       39.8580  -23.7070  -23.5480 C.2   6040  HEM6040     0.0000
     32  CBC       39.5400  -22.4260  -23.3270 C.2   6040  HEM6040     0.0000
     33  ND        41.7170  -28.2710  -21.0480 N.ar  6040  HEM6040     0.0000
     34  C1D       42.1610  -27.2620  -21.8990 C.ar  6040  HEM6040     0.0000
     35  C2D       43.5510  -27.5030  -22.2190 C.ar  6040  HEM6040     0.0000
     36  C3D       43.9270  -28.7850  -21.4660 C.ar  6040  HEM6040     0.0000
     37  C4D       42.7270  -29.1900  -20.7680 C.ar  6040  HEM6040     0.0000
     38  CMD       44.4630  -26.6500  -23.1260 C.3   6040  HEM6040     0.0000
     39  CAD       45.2990  -29.4940  -21.4540 C.3   6040  HEM6040     0.0000
     40  CBD       46.0990  -29.0380  -20.2390 C.3   6040  HEM6040     0.0000
     41  CGD       46.1260  -30.1400  -19.2120 C.2   6040  HEM6040     0.0000
     42  O1D       45.1120  -30.8760  -19.0960 O.co2 6040  HEM6040     0.0000
     43  O2D       47.1600  -30.2820  -18.5120 O.co2 6040  HEM6040     0.0000
@<TRIPOS>BOND
     1    31    32    2
     2    31    28    1
     3    38    35    1
     4    28    27    2
     5    28    29    1
     6    30    27    1
     7     5    29    1
     8     5    34    2
     9    35    34   ar
    10    35    36   ar
    11    27    26    1
    12    29    25    2
    13    34    33   ar
    14    36    39    1
    15    36    37   ar
    16    39    40    1
    17    25    26    1
    18    25     1    1
    19    26     4    2
    20    33    37   ar
    21    33     1    1
    22    37     2    2
    23     4    21    1
    24     1    17    1
    25     1     6    1
    26    40    41    1
    27     2     7    1
    28    21    17   ar
    29    21    20   ar
    30    17    18   ar
    31     7     6    2
    32     7     8    1
    33     6    10    1
    34    41    42   ar
    35    41    43   ar
    36    20    23    1
    37    20    19   ar
    38    23    24    2
    39    18    19   ar
    40    18     3    1
    41    10     3    2
    42    10     9    1
    43     8    12    1
    44     8     9    2
    45    19    22    1
    46    12    13    1
    47     9    11    1
    48    13    14    1
    49    14    15   ar
    50    14    16   ar
