@<TRIPOS>MOLECULE
3a0d_MMA_A_1.pdb
 13 13 0 0 0
SMALL
GASTEIGER

@<TRIPOS>ATOM
      1  C1       -19.1200   36.4010   33.2790 C.3   111  MMA111      0.2695
      2  C2       -18.1350   35.7380   32.2760 C.3   111  MMA111      0.2406
      3  C3       -18.2730   36.4410   30.9100 C.3   111  MMA111      0.2198
      4  C4       -19.7230   36.2790   30.4270 C.3   111  MMA111      0.2144
      5  C5       -20.6660   36.9140   31.4680 C.3   111  MMA111      0.1835
      6  C6       -22.1190   36.7280   31.0040 C.3   111  MMA111      0.2142
      7  C7       -19.6820   38.3940   34.4120 C.3   111  MMA111      0.1769
      8  O1       -18.7770   37.7990   33.4570 O.3   111  MMA111     -0.3259
      9  O2       -18.4740   34.3480   32.1220 O.3   111  MMA111     -0.2149
     10  O3       -17.3800   35.8360   29.9660 O.3   111  MMA111     -0.2174
     11  O4       -19.8810   36.9350   29.1680 O.3   111  MMA111     -0.2176
     12  O5       -20.4950   36.2630   32.7650 O.3   111  MMA111     -0.3256
     13  O6       -23.0140   37.3000   31.9570 O.3   111  MMA111     -0.2176
@<TRIPOS>BOND
     1    11     4    1
     2    10     3    1
     3     4     3    1
     4     4     5    1
     5     3     2    1
     6     6     5    1
     7     6    13    1
     8     5    12    1
     9     9     2    1
    10     2     1    1
    11    12     1    1
    12     1     8    1
    13     8     7    1
