@<TRIPOS>MOLECULE
3a0e_M3M_A_1.pdb
 23 24 0 0 0
SMALL
GASTEIGER

@<TRIPOS>ATOM
      1  C1        19.2170  -36.2150    2.5260 C.3   111  M3M111      0.2695
      2  C2        18.2270  -35.5640    1.5230 C.3   111  M3M111      0.2406
      3  C3        18.3420  -36.3310    0.1800 C.3   111  M3M111      0.2198
      4  C4        19.7930  -36.2410   -0.3190 C.3   111  M3M111      0.2144
      5  C5        20.7270  -36.8540    0.7480 C.3   111  M3M111      0.1835
      6  C6        22.1790  -36.7400    0.2640 C.3   111  M3M111      0.2142
      7  O2        18.5800  -34.1860    1.3340 O.3   111  M3M111     -0.2149
      8  O3        17.4550  -35.7550   -0.7910 O.3   111  M3M111     -0.2174
      9  O4        19.9180  -36.9650   -1.5500 O.3   111  M3M111     -0.2176
     10  O5        20.5860  -36.1310    2.0100 O.3   111  M3M111     -0.3256
     11  O6        23.0610  -37.2960    1.2390 O.3   111  M3M111     -0.2176
     12  C1'       21.1350  -39.2630    5.2340 C.3   111  M3M111      0.3022
     13  C2'       20.7040  -38.7260    3.8460 C.3   111  M3M111      0.2403
     14  C3'       19.3040  -38.0770    3.9830 C.3   111  M3M111      0.1859
     15  C4'       18.3250  -39.1480    4.4980 C.3   111  M3M111      0.2113
     16  C5'       18.8330  -39.6650    5.8640 C.3   111  M3M111      0.1835
     17  C6'       17.8680  -40.7420    6.3750 C.3   111  M3M111      0.2142
     18  O1'       21.2230  -38.1860    6.1770 O.3   111  M3M111     -0.1869
     19  O2'       20.6360  -39.8070    2.9100 O.3   111  M3M111     -0.2149
     20  O3'       18.8440  -37.5960    2.7050 O.3   111  M3M111     -0.3255
     21  O4'       17.0270  -38.5630    4.6420 O.3   111  M3M111     -0.2177
     22  O5'       20.1640  -40.2530    5.7110 O.3   111  M3M111     -0.3236
     23  O6'       18.3240  -41.2290    7.6410 O.3   111  M3M111     -0.2176
@<TRIPOS>BOND
     1     9     4    1
     2     8     3    1
     3     4     3    1
     4     4     5    1
     5     3     2    1
     6     6     5    1
     7     6    11    1
     8     5    10    1
     9     7     2    1
    10     2     1    1
    11    10     1    1
    12     1    20    1
    13    20    14    1
    14    19    13    1
    15    13    14    1
    16    13    12    1
    17    14    15    1
    18    15    21    1
    19    15    16    1
    20    12    22    1
    21    12    18    1
    22    22    16    1
    23    16    17    1
    24    17    23    1
