@<TRIPOS>MOLECULE
3a0g_HEM_A_1.pdb
 43 50 0 0 0
SMALL
GASTEIGER

@<TRIPOS>ATOM
      1  CHA        5.9910   14.8770  -14.4220 C.2   201  HEM201      0.0000
      2  CHB        3.7610   14.8440   -9.9390 C.2   201  HEM201      0.0000
      3  CHC        7.8600   12.4650   -8.0300 C.2   201  HEM201      0.0000
      4  CHD       10.2400   13.0430  -12.4980 C.2   201  HEM201      0.0000
      5  C1A        5.0650   15.0710  -13.3510 C.2   201  HEM201      0.0000
      6  C2A        3.7690   15.7440  -13.3920 C.2   201  HEM201      0.0000
      7  C3A        3.2370   15.7180  -12.1460 C.2   201  HEM201      0.0000
      8  C4A        4.1480   15.0550  -11.3210 C.2   201  HEM201      0.0000
      9  CMA        1.8580   16.2190  -11.4990 C.3   201  HEM201      0.0000
     10  CAA        3.0120   16.4220  -14.6010 C.3   201  HEM201      0.0000
     11  CBA        2.1740   15.2420  -15.1220 C.3   201  HEM201      0.0000
     12  CGA        1.4630   15.7880  -16.3450 C.2   201  HEM201      0.0000
     13  O1A        0.6040   15.0730  -16.9180 O.co2 201  HEM201      0.0000
     14  O2A        1.7820   16.9670  -16.6990 O.co2 201  HEM201      0.0000
     15  C1B        4.7210   14.1580   -9.0980 C.ar  201  HEM201      0.0000
     16  C2B        4.6390   13.8250   -7.6690 C.ar  201  HEM201      0.0000
     17  C3B        5.8050   13.2090   -7.3260 C.ar  201  HEM201      0.0000
     18  C4B        6.6360   13.1610   -8.3780 C.ar  201  HEM201      0.0000
     19  CMB        3.3870   14.0270   -6.5910 C.3   201  HEM201      0.0000
     20  CAB        6.4680   12.5010   -6.0670 C.3   201  HEM201      0.0000
     21  CBB        6.1780   12.9930   -4.6820 C.3   201  HEM201      0.0000
     22  C1C        8.8250   12.4000   -9.1540 C.2   201  HEM201      0.0000
     23  C2C       10.2470   11.9670   -9.1420 C.2   201  HEM201      0.0000
     24  C3C       10.7580   12.2530  -10.3800 C.2   201  HEM201      0.0000
     25  C4C        9.8260   12.7400  -11.1890 C.2   201  HEM201      0.0000
     26  CMC       11.0780   11.3300   -7.7480 C.3   201  HEM201      0.0000
     27  CAC       12.0930   12.1120  -11.1620 C.3   201  HEM201      0.0000
     28  CBC       13.5080   12.1590  -10.6120 C.3   201  HEM201      0.0000
     29  C1D        9.3660   13.6330  -13.4580 C.ar  201  HEM201      0.0000
     30  C2D        9.5610   13.9830  -14.8740 C.ar  201  HEM201      0.0000
     31  C3D        8.2110   14.5470  -15.4050 C.ar  201  HEM201      0.0000
     32  C4D        7.3220   14.4570  -14.3210 C.ar  201  HEM201      0.0000
     33  CMD       10.7930   13.9680  -15.8630 C.3   201  HEM201      0.0000
     34  CAD        7.7430   15.1170  -16.8190 C.3   201  HEM201      0.0000
     35  CBD        7.8540   16.6500  -16.7200 C.3   201  HEM201      0.0000
     36  CGD        7.6620   17.4230  -18.0270 C.2   201  HEM201      0.0000
     37  O1D        7.2050   16.8660  -19.0780 O.co2 201  HEM201      0.0000
     38  O2D        7.9960   18.6400  -18.0470 O.co2 201  HEM201      0.0000
     39  NA         5.2560   14.6380  -12.0110 N.2   201  HEM201      0.0000
     40  NB         5.9960   13.6760   -9.5010 N.ar  201  HEM201      0.0000
     41  NC         8.6820   12.8960  -10.4110 N.2   201  HEM201      0.0000
     42  ND         7.9480   13.9800  -13.2460 N.ar  201  HEM201      0.0000
     43 FE          7.0360   13.7830  -11.3590 Fe    201  HEM201      0.0000
@<TRIPOS>BOND
     1    37    36   ar
     2    38    36   ar
     3    36    35    1
     4    13    12   ar
     5    34    35    1
     6    34    31    1
     7    14    12   ar
     8    12    11    1
     9    33    30    1
    10    31    30   ar
    11    31    32   ar
    12    11    10    1
    13    30    29   ar
    14    10     6    1
    15     1    32    2
    16     1     5    1
    17    32    42   ar
    18    29    42   ar
    19    29     4    2
    20     6     5    1
    21     6     7    2
    22     5    39    2
    23    42    43    1
    24     4    25    1
    25     7     9    1
    26     7     8    1
    27    39    43    1
    28    39     8    1
    29    43    41    1
    30    43    40    1
    31     8     2    2
    32    25    41    2
    33    25    24    1
    34    27    28    1
    35    27    24    1
    36    41    22    1
    37    24    23    2
    38     2    15    1
    39    40    15   ar
    40    40    18   ar
    41    22    23    1
    42    22     3    2
    43    23    26    1
    44    15    16   ar
    45    18     3    1
    46    18    17   ar
    47    16    17   ar
    48    16    19    1
    49    17    20    1
    50    20    21    1
