@<TRIPOS>MOLECULE
3a0h_HEM_f_1.pdb
 43 50 0 0 0
SMALL
GASTEIGER

@<TRIPOS>ATOM
      1 FE         40.0220  -29.6490  -20.7980 Fe    6040  HEM6040     0.0000
      2  CHA       42.7970  -31.6470  -20.4780 C.2   6040  HEM6040     0.0000
      3  CHB       38.2220  -31.8680  -18.8510 C.2   6040  HEM6040     0.0000
      4  CHC       37.1980  -27.6740  -21.0870 C.2   6040  HEM6040     0.0000
      5  CHD       41.7650  -27.4130  -22.7360 C.2   6040  HEM6040     0.0000
      6  NA        40.4290  -31.4210  -19.8450 N.2   6040  HEM6040     0.0000
      7  C1A       41.6490  -32.0710  -19.8440 C.2   6040  HEM6040     0.0000
      8  C2A       41.5080  -33.2800  -19.0570 C.2   6040  HEM6040     0.0000
      9  C3A       40.2520  -33.3420  -18.6100 C.2   6040  HEM6040     0.0000
     10  C4A       39.5430  -32.1750  -19.0940 C.2   6040  HEM6040     0.0000
     11  CMA       39.6580  -34.4630  -17.7290 C.3   6040  HEM6040     0.0000
     12  CAA       42.6190  -34.3170  -18.7840 C.3   6040  HEM6040     0.0000
     13  CBA       42.0770  -35.4180  -17.8790 C.3   6040  HEM6040     0.0000
     14  CGA       42.8500  -35.4350  -16.5870 C.2   6040  HEM6040     0.0000
     15  O1A       42.5770  -36.3200  -15.7350 O.co2 6040  HEM6040     0.0000
     16  O2A       43.7400  -34.5630  -16.4090 O.co2 6040  HEM6040     0.0000
     17  NB        38.0760  -29.7520  -20.1010 N.ar  6040  HEM6040     0.0000
     18  C1B       37.5460  -30.7570  -19.3110 C.ar  6040  HEM6040     0.0000
     19  C2B       36.1560  -30.4370  -19.0560 C.ar  6040  HEM6040     0.0000
     20  C3B       35.8760  -29.2850  -19.6700 C.ar  6040  HEM6040     0.0000
     21  C4B       37.0760  -28.8280  -20.3410 C.ar  6040  HEM6040     0.0000
     22  CMB       35.1720  -31.2800  -18.2180 C.3   6040  HEM6040     0.0000
     23  CAB       34.5090  -28.5650  -19.6650 C.2   6040  HEM6040     0.0000
     24  CBB       33.3800  -29.2770  -19.5800 C.2   6040  HEM6040     0.0000
     25  NC        39.5650  -27.8790  -21.7330 N.2   6040  HEM6040     0.0000
     26  C1C       38.3390  -27.2380  -21.7270 C.2   6040  HEM6040     0.0000
     27  C2C       38.4670  -26.0260  -22.5110 C.2   6040  HEM6040     0.0000
     28  C3C       39.7220  -25.9550  -22.9630 C.2   6040  HEM6040     0.0000
     29  C4C       40.4410  -27.1190  -22.4850 C.2   6040  HEM6040     0.0000
     30  CMC       37.3490  -24.9970  -22.7770 C.3   6040  HEM6040     0.0000
     31  CAC       40.3040  -24.8290  -23.8430 C.2   6040  HEM6040     0.0000
     32  CBC       40.0010  -24.7720  -25.1440 C.2   6040  HEM6040     0.0000
     33  ND        41.9780  -29.5450  -21.4990 N.ar  6040  HEM6040     0.0000
     34  C1D       42.4710  -28.5120  -22.2930 C.ar  6040  HEM6040     0.0000
     35  C2D       43.8630  -28.7760  -22.5840 C.ar  6040  HEM6040     0.0000
     36  C3D       44.1860  -30.0980  -21.8790 C.ar  6040  HEM6040     0.0000
     37  C4D       42.9560  -30.5010  -21.2310 C.ar  6040  HEM6040     0.0000
     38  CMD       44.8220  -27.9080  -23.4280 C.3   6040  HEM6040     0.0000
     39  CAD       45.5370  -30.8440  -21.8620 C.3   6040  HEM6040     0.0000
     40  CBD       46.3060  -30.4770  -20.5980 C.3   6040  HEM6040     0.0000
     41  CGD       46.8760  -31.7250  -19.9750 C.2   6040  HEM6040     0.0000
     42  O1D       46.1410  -32.7420  -19.8890 O.co2 6040  HEM6040     0.0000
     43  O2D       48.0650  -31.7020  -19.5660 O.co2 6040  HEM6040     0.0000
@<TRIPOS>BOND
     1    32    31    2
     2    31    28    1
     3    38    35    1
     4    28    27    2
     5    28    29    1
     6    30    27    1
     7     5    29    1
     8     5    34    2
     9    35    34   ar
    10    35    36   ar
    11    27    26    1
    12    29    25    2
    13    34    33   ar
    14    36    39    1
    15    36    37   ar
    16    39    40    1
    17    25    26    1
    18    25     1    1
    19    26     4    2
    20    33    37   ar
    21    33     1    1
    22    37     2    2
    23     4    21    1
    24     1    17    1
    25     1     6    1
    26    40    41    1
    27     2     7    1
    28    21    17   ar
    29    21    20   ar
    30    17    18   ar
    31    41    42   ar
    32    41    43   ar
    33     6     7    2
    34     6    10    1
    35     7     8    1
    36    20    23    1
    37    20    19   ar
    38    23    24    2
    39    18    19   ar
    40    18     3    1
    41    10     3    2
    42    10     9    1
    43     8    12    1
    44     8     9    2
    45    19    22    1
    46    12    13    1
    47     9    11    1
    48    13    14    1
    49    14    16   ar
    50    14    15   ar
