@<TRIPOS>MOLECULE
3a0i_AJI_X_1.pdb
 30 33 0 0 0
SMALL
GASTEIGER

@<TRIPOS>ATOM
      1  C1        36.3870   19.2000   57.3020 C.3   501  AJI501      0.0625
      2  C2        41.2480   10.6060   63.4200 C.3   501  AJI501      0.1341
      3  C3        41.8780   16.8010   68.5170 C.ar  501  AJI501      0.0301
      4  C4        43.2390   17.8550   66.8320 C.ar  501  AJI501      0.0301
      5  C5        40.7820   16.8550   67.6620 C.ar  501  AJI501      0.0088
      6  C6        42.1430   17.9170   65.9990 C.ar  501  AJI501      0.0088
      7  C7        41.0980   15.2630   64.4470 C.2   501  AJI501     -0.0089
      8  C8        41.4610   14.2600   63.5430 C.3   501  AJI501      0.0925
      9  C9        35.8440   19.3940   59.7760 C.3   501  AJI501      0.1202
     10  C10       43.4980   10.3620   62.4850 C.ar  501  AJI501      0.2031
     11  C11       36.5830   18.8990   58.7370 C.2   501  AJI501      0.1007
     12  C12       43.0950   17.3150   68.0910 C.ar  501  AJI501      0.1402
     13  C13       40.9340   17.4120   66.4070 C.ar  501  AJI501      0.0297
     14  C14       40.1000   16.1840   64.1850 C.2   501  AJI501      0.0598
     15  C15       40.7960   14.1920   62.3440 C.2   501  AJI501      0.1457
     16  C16       39.5330   16.0240   62.9540 C.2   501  AJI501      0.1923
     17  C17       37.6390   17.8520   60.3780 C.2   501  AJI501      0.2328
     18  C18       42.2760   11.9130   61.5240 C.ar  501  AJI501      0.1994
     19  C19       38.5330   16.9610   62.4820 C.2   501  AJI501      0.3017
     20  N20       44.2310   10.9050   61.5260 N.ar  501  AJI501     -0.1250
     21  N21       37.5840   18.0360   59.0890 N.2   501  AJI501     -0.3867
     22  N22       39.8550   15.0840   62.0510 N.2   501  AJI501     -0.3941
     23  N23       43.4340   11.8660   60.9330 N.ar  501  AJI501     -0.1216
     24  N24       38.5270   17.0300   61.0860 N.am  501  AJI501     -0.1377
     25  N25       42.2850   10.9300   62.5140 N.ar  501  AJI501     -0.2857
     26  O26       37.9700   17.6820   63.2850 O.2   501  AJI501     -0.2651
     27  F27       44.2250   17.2680   68.9050 F     501  AJI501     -0.2042
     28  S28       36.4830   18.7630   61.2270 S.3   501  AJI501     -0.0580
     29  S29       39.5870   17.4820   65.3200 S.3   501  AJI501     -0.0845
     30  S30       40.9900   13.0160   61.0190 S.3   501  AJI501     -0.0210
@<TRIPOS>BOND
     1     1    11    1
     2    11    21    2
     3    11     9    1
     4    21    17    2
     5     9    28    1
     6    17    24    1
     7    17    28    1
     8    23    18   ar
     9    23    20   ar
    10    30    18    1
    11    30    15    1
    12    24    19   am
    13    18    25   ar
    14    20    10   ar
    15    22    15    2
    16    22    16    2
    17    15     8    1
    18    19    16    1
    19    19    26    2
    20    10    25   ar
    21    25     2    1
    22    16    14    1
    23     8     7    1
    24    14     7    2
    25    14    29    1
    26    29    13    1
    27     6    13   ar
    28     6     4   ar
    29    13     5   ar
    30     4    12   ar
    31     5     3   ar
    32    12     3   ar
    33    12    27    1
