@<TRIPOS>MOLECULE
3a0i_GLC_X_1.pdb
 12 12 0 0 0
SMALL
GASTEIGER

@<TRIPOS>ATOM
      1  C1        23.2780    2.0460   65.5570 C.3   500  GLC500      0.3024
      2  C2        23.3200    3.2820   64.6320 C.3   500  GLC500      0.2434
      3  C3        24.6780    3.9050   64.4450 C.3   500  GLC500      0.2199
      4  C4        25.3550    4.0670   65.8230 C.3   500  GLC500      0.2144
      5  C5        25.3070    2.7710   66.6440 C.3   500  GLC500      0.1836
      6  C6        25.9200    2.8880   68.0200 C.3   500  GLC500      0.2142
      7  O1        23.9230    1.0740   64.8410 O.3   500  GLC500     -0.1869
      8  O2        22.6280    2.9340   63.4300 O.3   500  GLC500     -0.2148
      9  O3        24.6140    5.1960   63.6990 O.3   500  GLC500     -0.2174
     10  O4        26.7540    4.3630   65.6630 O.3   500  GLC500     -0.2176
     11  O5        23.9970    2.2420   66.7850 O.3   500  GLC500     -0.3236
     12  O6        25.2550    3.8870   68.8260 O.3   500  GLC500     -0.2176
@<TRIPOS>BOND
     1     8     2    1
     2     9     3    1
     3     3     2    1
     4     3     4    1
     5     2     1    1
     6     7     1    1
     7     1    11    1
     8    10     4    1
     9     4     5    1
    10     5    11    1
    11     5     6    1
    12     6    12    1
