@<TRIPOS>MOLECULE
3a0n_BDP_A_1.pdb
 13 13 0 0 0
SMALL
GASTEIGER

@<TRIPOS>ATOM
      1  C1        -8.1340   -8.4920  -12.0880 C.3   301  BDP301      0.3028
      2  C2        -9.0320   -8.0530  -13.2400 C.3   301  BDP301      0.2435
      3  C3        -8.6670   -6.6130  -13.6520 C.3   301  BDP301      0.2204
      4  C4        -8.7090   -5.6960  -12.4330 C.3   301  BDP301      0.2229
      5  C5        -7.8070   -6.2510  -11.3230 C.3   301  BDP301      0.2530
      6  C6        -8.0410   -5.4380  -10.0310 C.2   301  BDP301      0.3941
      7  O2        -8.7930   -8.9260  -14.3680 O.3   301  BDP301     -0.2148
      8  O3        -9.6230   -6.2060  -14.6340 O.3   301  BDP301     -0.2174
      9  O4        -8.3410   -4.3470  -12.7670 O.3   301  BDP301     -0.2171
     10  O5        -8.2460   -7.5850  -10.9920 O.3   301  BDP301     -0.3149
     11  O6A       -7.1810   -4.6090   -9.6530 O.co2 301  BDP301     -0.2429
     12  O1        -8.5650   -9.7960  -11.6480 O.3   301  BDP301     -0.1869
     13  O6B       -9.1110   -5.6830   -9.4050 O.co2 301  BDP301     -0.2429
@<TRIPOS>BOND
     1     8     3    1
     2     7     2    1
     3     3     2    1
     4     3     4    1
     5     2     1    1
     6     9     4    1
     7     4     5    1
     8     1    12    1
     9     1    10    1
    10     5    10    1
    11     5     6    1
    12     6    11   ar
    13     6    13   ar
