@<TRIPOS>MOLECULE
3a0t_ADP_A_1.pdb
 27 29 0 0 0
SMALL
GASTEIGER

@<TRIPOS>ATOM
      1  PB       -34.4140   12.5850   41.2140 P.3   801  ADP801      0.5373
      2  O1B      -33.7370   12.7010   39.8720 O.2   801  ADP801     -0.2221
      3  O2B      -34.2190   11.2470   41.8800 O.3   801  ADP801     -0.1143
      4  O3B      -34.1410   13.7860   42.0930 O.3   801  ADP801     -0.1143
      5  PA       -36.7950   12.4370   39.5790 P.3   801  ADP801      0.2231
      6  O1A      -38.2680   12.5740   39.8650 O.3   801  ADP801     -0.4370
      7  O2A      -36.1230   13.2430   38.4930 O.2   801  ADP801     -0.5169
      8  O3A      -36.0130   12.6310   40.9770 O.3   801  ADP801     -0.2261
      9  O5'      -36.5550   10.8700   39.2830 O.3   801  ADP801     -0.3111
     10  C5'      -37.0730    9.9270   40.2240 C.3   801  ADP801      0.1813
     11  C4'      -36.4090    8.5540   40.0640 C.3   801  ADP801      0.1821
     12  O4'      -36.7540    8.0040   38.7960 O.3   801  ADP801     -0.3135
     13  C3'      -34.8860    8.5600   40.0480 C.3   801  ADP801      0.2184
     14  O3'      -34.3020    8.6700   41.3580 O.3   801  ADP801     -0.2174
     15  C2'      -34.5830    7.2190   39.3930 C.3   801  ADP801      0.2570
     16  O2'      -34.8260    6.1760   40.3540 O.3   801  ADP801     -0.2130
     17  C1'      -35.7170    7.1080   38.3800 C.3   801  ADP801      0.3186
     18  N9       -35.2680    7.5600   37.0510 N.pl3 801  ADP801     -0.1439
     19  C8       -35.4950    8.7770   36.5060 C.3   801  ADP801      0.3377
     20  N7       -34.9950    8.8420   35.2460 N.2   801  ADP801     -0.2095
     21  C5       -34.4260    7.6330   34.9980 C.2   801  ADP801      0.2526
     22  C6       -33.6470    7.0570   33.8850 C.2   801  ADP801      0.4393
     23  N6       -33.4330    7.7860   32.7570 N.pl3 801  ADP801      0.2180
     24  N1       -33.2220    5.7750   34.0160 N.2   801  ADP801      0.0021
     25  C2       -33.4410    5.0460   35.1440 C.3   801  ADP801      0.5254
     26  N3       -34.0960    5.5180   36.2280 N.2   801  ADP801     -0.0055
     27  C4       -34.6070    6.7940   36.1920 C.2   801  ADP801      0.3518
@<TRIPOS>BOND
     1    23    22    1
     2    22    24    2
     3    22    21    1
     4    24    25    1
     5    21    20    2
     6    21    27    1
     7    25    26    1
     8    20    19    1
     9    27    26    2
    10    27    18    1
    11    19    18    1
    12    18    17    1
    13    17    12    1
    14    17    15    1
    15     7     5    2
    16    12    11    1
    17     9     5    1
    18     9    10    1
    19    15    13    1
    20    15    16    1
    21     5     6    1
    22     5     8    1
    23     2     1    2
    24    13    11    1
    25    13    14    1
    26    11    10    1
    27     8     1    1
    28     1     3    1
    29     1     4    1
