@<TRIPOS>MOLECULE
3a0w_EMT_A_1.pdb
 13 13 0 0 0
SMALL
GASTEIGER

@<TRIPOS>ATOM
      1  SD        55.5740   31.5220    9.0400 S.3   803  EMT803      0.0000
      2 HG         55.1860   32.3580    6.6040 Hg    803  EMT803      0.0000
      3  C1        56.2950   32.8230    4.5650 C.3   803  EMT803      0.0000
      4  C2        56.7840   31.5310    3.9390 C.3   803  EMT803      0.0000
      5  CE1       56.7630   32.4350    9.8370 C.ar  803  EMT803      0.0000
      6  CD1       56.3630   33.1580   10.9590 C.ar  803  EMT803      0.0000
      7  CG1       57.2800   33.9280   11.6700 C.ar  803  EMT803      0.0000
      8  CD2       58.6090   33.9720   11.2610 C.ar  803  EMT803      0.0000
      9  CE2       59.0140   33.2510   10.1410 C.ar  803  EMT803      0.0000
     10  CZ        58.0990   32.4780    9.4250 C.ar  803  EMT803      0.0000
     11  CG        58.6120   31.7230    8.2280 C.2   803  EMT803      0.0000
     12  OD2       57.9290   31.7220    7.1550 O.co2 803  EMT803      0.0000
     13  OD1       59.7320   31.1100    8.3300 O.co2 803  EMT803      0.0000
@<TRIPOS>BOND
     1     4     3    1
     2     3     2    1
     3     2     1    1
     4    12    11   ar
     5    11    13   ar
     6    11    10    1
     7     1     5    1
     8    10     5   ar
     9    10     9   ar
    10     5     6   ar
    11     9     8   ar
    12     6     7   ar
    13     8     7   ar
