@<TRIPOS>MOLECULE
3a14_NDP_A_1.pdb
 27 29 0 0 0
SMALL
GASTEIGER

@<TRIPOS>ATOM
      1  PA        26.4030   25.8950   69.0010 P.3   3003  NDP3003     0.5327
      2  O1A       25.5090   25.2140   69.9710 O.3   3003  NDP3003    -0.1145
      3  O2A       25.6240   26.9910   68.0960 O.2   3003  NDP3003    -0.2224
      4  O5B       27.1470   24.8700   67.9650 O.3   3003  NDP3003    -0.2675
      5  C5B       27.1860   25.1560   66.5610 C.3   3003  NDP3003     0.1860
      6  C4B       27.7290   23.9850   65.6810 C.3   3003  NDP3003     0.1822
      7  O4B       29.0700   23.4210   66.0380 O.3   3003  NDP3003    -0.3136
      8  C3B       26.7640   22.8060   65.7360 C.3   3003  NDP3003     0.2157
      9  O3B       26.3570   22.4810   64.3990 O.3   3003  NDP3003    -0.2175
     10  C2B       27.6610   21.7130   66.2920 C.3   3003  NDP3003     0.2314
     11  O2B       27.2170   20.4530   65.8410 O.3   3003  NDP3003    -0.2630
     12  C1B       28.9930   22.0370   65.6400 C.3   3003  NDP3003     0.3158
     13  N9A       30.0150   21.0690   66.1780 N.pl3 3003  NDP3003    -0.1439
     14  C8A       30.5020   21.0520   67.4220 C.3   3003  NDP3003     0.3377
     15  N7A       31.3800   20.0530   67.5470 N.2   3003  NDP3003    -0.2095
     16  C5A       31.4630   19.4230   66.3780 C.2   3003  NDP3003     0.2526
     17  C6A       32.1970   18.3240   65.9230 C.2   3003  NDP3003     0.4393
     18  N6A       33.0460   17.6770   66.7310 N.pl3 3003  NDP3003     0.2180
     19  N1A       32.0360   17.9190   64.6530 N.2   3003  NDP3003     0.0021
     20  C2A       31.1980   18.5520   63.8330 C.3   3003  NDP3003     0.5254
     21  N3A       30.4850   19.6010   64.2380 N.2   3003  NDP3003    -0.0055
     22  C4A       30.5900   20.0620   65.5040 C.2   3003  NDP3003     0.3518
     23  O3        27.5480   26.7460   69.7660 O.3   3003  NDP3003    -0.1145
     24  P2B       26.6080   19.4650   66.9440 P.3   3003  NDP3003     0.5328
     25  O1X       25.8130   20.1870   67.9630 O.3   3003  NDP3003    -0.1145
     26  O2X       25.7880   18.4530   66.0500 O.2   3003  NDP3003    -0.2224
     27  O3X       27.8560   18.6760   67.5710 O.3   3003  NDP3003    -0.1145
@<TRIPOS>BOND
     1    20    21    1
     2    20    19    1
     3    21    22    2
     4     9     8    1
     5    19    17    2
     6    22    13    1
     7    22    16    1
     8    12     7    1
     9    12    13    1
    10    12    10    1
    11     6     8    1
    12     6     7    1
    13     6     5    1
    14     8    10    1
    15    11    10    1
    16    11    24    1
    17    17    16    1
    18    17    18    1
    19    26    24    2
    20    13    14    1
    21    16    15    2
    22     5     4    1
    23    24    27    1
    24    24    25    1
    25    14    15    1
    26     4     1    1
    27     3     1    2
    28     1    23    1
    29     1     2    1
