@<TRIPOS>MOLECULE
3a15_HEM_A_1.pdb
 43 50 0 0 0
SMALL
GASTEIGER

@<TRIPOS>ATOM
      1  CHA      -16.5190   15.3590   62.4460 C.2   354  HEM354      0.0000
      2  CHB      -15.2030   11.2640   60.1600 C.2   354  HEM354      0.0000
      3  CHC      -10.7680   13.1620   59.6700 C.2   354  HEM354      0.0000
      4  CHD      -12.5060   17.5660   60.7090 C.2   354  HEM354      0.0000
      5  C1A      -16.5210   14.0820   61.9360 C.ar  354  HEM354      0.0000
      6  C2A      -17.5700   13.1040   62.1450 C.ar  354  HEM354      0.0000
      7  C3A      -17.2070   11.9730   61.4940 C.ar  354  HEM354      0.0000
      8  C4A      -15.9330   12.2150   60.8390 C.ar  354  HEM354      0.0000
      9  CMA      -17.9720   10.6390   61.4040 C.3   354  HEM354      0.0000
     10  CAA      -18.8390   13.3830   62.9960 C.3   354  HEM354      0.0000
     11  CBA      -18.4720   12.9130   64.4110 C.3   354  HEM354      0.0000
     12  CGA      -19.6550   12.9650   65.3470 C.2   354  HEM354      0.0000
     13  O1A      -20.1050   11.8790   65.7940 O.co2 354  HEM354      0.0000
     14  O2A      -20.1410   14.0830   65.6580 O.co2 354  HEM354      0.0000
     15  C1B      -13.8550   11.3860   59.8790 C.2   354  HEM354      0.0000
     16  C2B      -12.9330   10.2980   59.5660 C.2   354  HEM354      0.0000
     17  C3B      -11.7000   10.8300   59.4550 C.2   354  HEM354      0.0000
     18  C4B      -11.8050   12.2610   59.7080 C.2   354  HEM354      0.0000
     19  CMB      -13.3310    8.8210   59.3670 C.3   354  HEM354      0.0000
     20  CAB      -10.3610   10.1540   59.1040 C.2   354  HEM354      0.0000
     21  CBB      -10.2840    8.9470   58.5380 C.2   354  HEM354      0.0000
     22  C1C      -10.8830   14.5120   59.8670 C.ar  354  HEM354      0.0000
     23  C2C       -9.7780   15.4440   59.7490 C.ar  354  HEM354      0.0000
     24  C3C      -10.2550   16.6770   59.9840 C.ar  354  HEM354      0.0000
     25  C4C      -11.6820   16.5500   60.2930 C.ar  354  HEM354      0.0000
     26  CMC       -8.3390   15.0460   59.3500 C.3   354  HEM354      0.0000
     27  CAC       -9.4080   17.9760   59.9650 C.2   354  HEM354      0.0000
     28  CBC       -9.8810   19.1710   59.5910 C.2   354  HEM354      0.0000
     29  C1D      -13.7060   17.3440   61.3260 C.2   354  HEM354      0.0000
     30  C2D      -14.4250   18.3590   62.0570 C.2   354  HEM354      0.0000
     31  C3D      -15.6520   17.6710   62.6190 C.2   354  HEM354      0.0000
     32  C4D      -15.5690   16.3110   62.1760 C.2   354  HEM354      0.0000
     33  CMD      -14.0220   19.8210   62.2420 C.3   354  HEM354      0.0000
     34  CAD      -16.7510   18.3070   63.4820 C.3   354  HEM354      0.0000
     35  CBD      -17.9920   18.6160   62.6500 C.3   354  HEM354      0.0000
     36  CGD      -19.0320   19.1850   63.6000 C.2   354  HEM354      0.0000
     37  O1D      -19.4360   18.4830   64.5730 O.co2 354  HEM354      0.0000
     38  O2D      -19.4830   20.3340   63.3650 O.co2 354  HEM354      0.0000
     39  NA       -15.5320   13.4950   61.1680 N.ar  354  HEM354      0.0000
     40  NB       -13.1030   12.5390   60.0080 N.2   354  HEM354      0.0000
     41  NC       -12.0250   15.2230   60.2260 N.ar  354  HEM354      0.0000
     42  ND       -14.4050   16.1520   61.4240 N.2   354  HEM354      0.0000
     43 FE        -13.7930   14.3680   60.5880 Fe    354  HEM354      0.0000
@<TRIPOS>BOND
     1    21    20    2
     2    20    17    1
     3    26    23    1
     4    19    16    1
     5    17    16    2
     6    17    18    1
     7    16    15    1
     8    28    27    2
     9     3    18    2
    10     3    22    1
    11    18    40    1
    12    23    22   ar
    13    23    24   ar
    14    22    41   ar
    15    15    40    2
    16    15     2    1
    17    27    24    1
    18    24    25   ar
    19    40    43    1
    20     2     8    2
    21    41    25   ar
    22    41    43    1
    23    25     4    1
    24    43    39    1
    25    43    42    1
    26     4    29    2
    27     8    39   ar
    28     8     7   ar
    29    39     5   ar
    30    29    42    1
    31    29    30    1
    32     9     7    1
    33    42    32    2
    34     7     6   ar
    35     5     6   ar
    36     5     1    2
    37    30    33    1
    38    30    31    2
    39     6    10    1
    40    32     1    1
    41    32    31    1
    42    31    34    1
    43    35    34    1
    44    35    36    1
    45    10    11    1
    46    38    36   ar
    47    36    37   ar
    48    11    12    1
    49    12    14   ar
    50    12    13   ar
