@<TRIPOS>MOLECULE
3a16_HEM_A_1.pdb
 43 50 0 0 0
SMALL
GASTEIGER

@<TRIPOS>ATOM
      1  CHA      -14.8730    9.1240    5.3170 C.2   354  HEM354      0.0000
      2  CHB      -16.1890    7.1560    1.0570 C.2   354  HEM354      0.0000
      3  CHC      -11.7940    5.1650    0.7520 C.2   354  HEM354      0.0000
      4  CHD      -10.1960    8.0760    4.2630 C.2   354  HEM354      0.0000
      5  C1A      -15.6290    8.6910    4.2450 C.ar  354  HEM354      0.0000
      6  C2A      -17.0800    8.7670    4.1130 C.ar  354  HEM354      0.0000
      7  C3A      -17.4170    8.2250    2.9370 C.ar  354  HEM354      0.0000
      8  C4A      -16.2130    7.8250    2.2570 C.ar  354  HEM354      0.0000
      9  CMA      -18.8420    8.0840    2.3520 C.3   354  HEM354      0.0000
     10  CAA      -18.0680    9.3480    5.1550 C.3   354  HEM354      0.0000
     11  CBA      -18.3360    8.2430    6.1860 C.3   354  HEM354      0.0000
     12  CGA      -19.3060    8.7150    7.2290 C.2   354  HEM354      0.0000
     13  O1A      -20.5070    8.3930    7.0960 O.co2 354  HEM354      0.0000
     14  O2A      -18.8650    9.4020    8.1810 O.co2 354  HEM354      0.0000
     15  C1B      -15.1280    6.3980    0.6300 C.2   354  HEM354      0.0000
     16  C2B      -15.1580    5.3600   -0.3880 C.2   354  HEM354      0.0000
     17  C3B      -13.9380    4.8090   -0.4640 C.2   354  HEM354      0.0000
     18  C4B      -13.1110    5.4480    0.5310 C.2   354  HEM354      0.0000
     19  CMB      -16.3850    5.0110   -1.2600 C.3   354  HEM354      0.0000
     20  CAB      -13.3970    3.6910   -1.3830 C.2   354  HEM354      0.0000
     21  CBB      -13.8850    3.4270   -2.5960 C.2   354  HEM354      0.0000
     22  C1C      -10.9680    5.8010    1.6370 C.ar  354  HEM354      0.0000
     23  C2C       -9.5590    5.5520    1.7870 C.ar  354  HEM354      0.0000
     24  C3C       -9.0970    6.3630    2.7480 C.ar  354  HEM354      0.0000
     25  C4C      -10.2050    7.1700    3.2300 C.ar  354  HEM354      0.0000
     26  CMC       -8.7880    4.5160    0.9500 C.3   354  HEM354      0.0000
     27  CAC       -7.6370    6.4270    3.2360 C.2   354  HEM354      0.0000
     28  CBC       -7.0750    7.5590    3.6820 C.2   354  HEM354      0.0000
     29  C1D      -11.3040    8.5810    4.9030 C.2   354  HEM354      0.0000
     30  C2D      -11.2720    9.1960    6.2160 C.2   354  HEM354      0.0000
     31  C3D      -12.7230    9.5290    6.5400 C.2   354  HEM354      0.0000
     32  C4D      -13.5010    9.0340    5.4320 C.2   354  HEM354      0.0000
     33  CMD      -10.0220    9.4930    7.0710 C.3   354  HEM354      0.0000
     34  CAD      -13.2760   10.2000    7.8110 C.3   354  HEM354      0.0000
     35  CBD      -13.6310   11.6580    7.5810 C.3   354  HEM354      0.0000
     36  CGD      -14.0650   12.2720    8.8890 C.2   354  HEM354      0.0000
     37  O1D      -15.0220   11.7480    9.5150 O.co2 354  HEM354      0.0000
     38  O2D      -13.4190   13.2650    9.3020 O.co2 354  HEM354      0.0000
     39  NA       -15.1390    8.0750    3.0920 N.ar  354  HEM354      0.0000
     40  NB       -13.8720    6.3900    1.1990 N.2   354  HEM354      0.0000
     41  NC       -11.3300    6.7780    2.5380 N.ar  354  HEM354      0.0000
     42  ND       -12.6290    8.4540    4.4990 N.2   354  HEM354      0.0000
     43 FE        -13.1580    7.5860    2.7270 Fe    354  HEM354      0.0000
@<TRIPOS>BOND
     1    21    20    2
     2    20    17    1
     3    19    16    1
     4    17    16    2
     5    17    18    1
     6    16    15    1
     7    18     3    2
     8    18    40    1
     9    15     2    1
    10    15    40    2
    11     3    22    1
    12    26    23    1
    13     2     8    2
    14    40    43    1
    15    22    23   ar
    16    22    41   ar
    17    23    24   ar
    18     8     7   ar
    19     8    39   ar
    20     9     7    1
    21    41    43    1
    22    41    25   ar
    23    43    39    1
    24    43    42    1
    25    24    25   ar
    26    24    27    1
    27     7     6   ar
    28    39     5   ar
    29    25     4    1
    30    27    28    2
    31     6     5   ar
    32     6    10    1
    33     5     1    2
    34     4    29    2
    35    42    29    1
    36    42    32    2
    37    29    30    1
    38    10    11    1
    39     1    32    1
    40    32    31    1
    41    11    12    1
    42    30    31    2
    43    30    33    1
    44    31    34    1
    45    13    12   ar
    46    12    14   ar
    47    35    34    1
    48    35    36    1
    49    36    38   ar
    50    36    37   ar
