@<TRIPOS>MOLECULE
3a17_HEM_A_1.pdb
 43 50 0 0 0
SMALL
GASTEIGER

@<TRIPOS>ATOM
      1  CHA        4.0340   13.3380   -0.4820 C.2   354  HEM354      0.0000
      2  CHB        7.8210   13.1010    2.5660 C.2   354  HEM354      0.0000
      3  CHC        5.9040    8.9510    4.1850 C.2   354  HEM354      0.0000
      4  CHD        1.6090   10.2520    2.4100 C.2   354  HEM354      0.0000
      5  C1A        5.2450   13.5890    0.1230 C.2   354  HEM354      0.0000
      6  C2A        6.2320   14.5600   -0.3050 C.2   354  HEM354      0.0000
      7  C3A        7.2810   14.4970    0.5230 C.2   354  HEM354      0.0000
      8  C4A        6.9810   13.5130    1.5500 C.2   354  HEM354      0.0000
      9  CMA        8.5570   15.3660    0.4200 C.3   354  HEM354      0.0000
     10  CAA        6.1070   15.4690   -1.5420 C.3   354  HEM354      0.0000
     11  CBA        6.5160   14.5430   -2.6880 C.3   354  HEM354      0.0000
     12  CGA        6.6420   15.3310   -3.9570 C.2   354  HEM354      0.0000
     13  O1A        7.7940   15.7060   -4.3110 O.co2 354  HEM354      0.0000
     14  O2A        5.5870   15.5760   -4.5940 O.co2 354  HEM354      0.0000
     15  C1B        7.6530   11.9080    3.2340 C.ar  354  HEM354      0.0000
     16  C2B        8.7120   11.1360    3.8740 C.ar  354  HEM354      0.0000
     17  C3B        8.1730    9.9820    4.3120 C.ar  354  HEM354      0.0000
     18  C4B        6.7900    9.9630    3.9120 C.ar  354  HEM354      0.0000
     19  CMB       10.1830   11.5890    4.0730 C.3   354  HEM354      0.0000
     20  CAB        8.8650    8.8260    5.0720 C.2   354  HEM354      0.0000
     21  CBB        9.1840    8.9120    6.3560 C.2   354  HEM354      0.0000
     22  C1C        4.5590    8.9680    3.9150 C.2   354  HEM354      0.0000
     23  C2C        3.5860    8.0090    4.3860 C.2   354  HEM354      0.0000
     24  C3C        2.3960    8.3760    3.8950 C.2   354  HEM354      0.0000
     25  C4C        2.5720    9.5930    3.1240 C.2   354  HEM354      0.0000
     26  CMC        3.8990    6.7860    5.2730 C.3   354  HEM354      0.0000
     27  CAC        1.0570    7.6540    4.1170 C.2   354  HEM354      0.0000
     28  CBC        0.0580    8.3470    4.6690 C.2   354  HEM354      0.0000
     29  C1D        1.8520   11.1710    1.4300 C.ar  354  HEM354      0.0000
     30  C2D        0.8930   11.5750    0.4220 C.ar  354  HEM354      0.0000
     31  C3D        1.6470   12.5250   -0.4970 C.ar  354  HEM354      0.0000
     32  C4D        3.0000   12.5860    0.0330 C.ar  354  HEM354      0.0000
     33  CMD       -0.5910   11.1820    0.3040 C.3   354  HEM354      0.0000
     34  CAD        1.0550   13.2720   -1.7040 C.3   354  HEM354      0.0000
     35  CBD        0.9020   14.7600   -1.3790 C.3   354  HEM354      0.0000
     36  CGD        0.3870   15.4410   -2.6130 C.2   354  HEM354      0.0000
     37  O1D        1.1360   15.4490   -3.6190 O.co2 354  HEM354      0.0000
     38  O2D       -0.7640   15.9560   -2.5880 O.co2 354  HEM354      0.0000
     39  NA         5.7460   12.9520    1.2440 N.2   354  HEM354      0.0000
     40  NB         6.5150   11.1160    3.2160 N.ar  354  HEM354      0.0000
     41  NC         3.9120    9.9000    3.1300 N.2   354  HEM354      0.0000
     42  ND         3.0830   11.7520    1.1420 N.ar  354  HEM354      0.0000
     43 FE          4.7810   11.4730    2.2420 Fe    354  HEM354      0.0000
@<TRIPOS>BOND
     1    14    12   ar
     2    13    12   ar
     3    12    11    1
     4    37    36   ar
     5    11    10    1
     6    36    38   ar
     7    36    35    1
     8    34    35    1
     9    34    31    1
    10    10     6    1
    11    31    32   ar
    12    31    30   ar
    13     1    32    2
    14     1     5    1
    15     6     5    1
    16     6     7    2
    17    32    42   ar
    18     5    39    2
    19    33    30    1
    20     9     7    1
    21    30    29   ar
    22     7     8    1
    23    42    29   ar
    24    42    43    1
    25    39     8    1
    26    39    43    1
    27    29     4    2
    28     8     2    2
    29    43    41    1
    30    43    40    1
    31     4    25    1
    32     2    15    1
    33    25    41    2
    34    25    24    1
    35    41    22    1
    36    40    15   ar
    37    40    18   ar
    38    15    16   ar
    39    16    19    1
    40    16    17   ar
    41    24    27    1
    42    24    23    2
    43    18     3    1
    44    18    17   ar
    45    22     3    2
    46    22    23    1
    47    27    28    2
    48    17    20    1
    49    23    26    1
    50    20    21    2
