@<TRIPOS>MOLECULE
3a18_HEM_A_1.pdb
 43 50 0 0 0
SMALL
GASTEIGER

@<TRIPOS>ATOM
      1  CHA      -14.5910    8.9800    5.6920 C.2   354  HEM354      0.0000
      2  CHB      -15.9560    7.0760    1.4360 C.2   354  HEM354      0.0000
      3  CHC      -11.5630    5.0510    1.1360 C.2   354  HEM354      0.0000
      4  CHD       -9.9220    8.0410    4.5920 C.2   354  HEM354      0.0000
      5  C1A      -15.3700    8.5680    4.6300 C.ar  354  HEM354      0.0000
      6  C2A      -16.8140    8.6830    4.5180 C.ar  354  HEM354      0.0000
      7  C3A      -17.1850    8.1630    3.3400 C.ar  354  HEM354      0.0000
      8  C4A      -15.9880    7.7410    2.6390 C.ar  354  HEM354      0.0000
      9  CMA      -18.6210    8.0610    2.7840 C.3   354  HEM354      0.0000
     10  CAA      -17.7470    9.2870    5.5900 C.3   354  HEM354      0.0000
     11  CBA      -18.0420    8.1700    6.5930 C.3   354  HEM354      0.0000
     12  CGA      -19.1150    8.6100    7.5570 C.2   354  HEM354      0.0000
     13  O1A      -20.3190    8.3690    7.2700 O.co2 354  HEM354      0.0000
     14  O2A      -18.7660    9.1920    8.6140 O.co2 354  HEM354      0.0000
     15  C1B      -14.8990    6.3100    0.9960 C.2   354  HEM354      0.0000
     16  C2B      -14.9510    5.2980   -0.0500 C.2   354  HEM354      0.0000
     17  C3B      -13.7310    4.7240   -0.1230 C.2   354  HEM354      0.0000
     18  C4B      -12.8870    5.3400    0.8820 C.2   354  HEM354      0.0000
     19  CMB      -16.2020    4.9820   -0.9200 C.3   354  HEM354      0.0000
     20  CAB      -13.2620    3.6120   -1.0970 C.2   354  HEM354      0.0000
     21  CBB      -13.2210    3.8380   -2.4170 C.2   354  HEM354      0.0000
     22  C1C      -10.7270    5.7230    2.0040 C.ar  354  HEM354      0.0000
     23  C2C       -9.2950    5.5430    2.1170 C.ar  354  HEM354      0.0000
     24  C3C       -8.8350    6.3800    3.0520 C.ar  354  HEM354      0.0000
     25  C4C       -9.9590    7.1240    3.5690 C.ar  354  HEM354      0.0000
     26  CMC       -8.4700    4.5570    1.2730 C.3   354  HEM354      0.0000
     27  CAC       -7.3730    6.5320    3.5210 C.2   354  HEM354      0.0000
     28  CBC       -6.8510    7.7460    3.7730 C.2   354  HEM354      0.0000
     29  C1D      -11.0180    8.5330    5.2470 C.2   354  HEM354      0.0000
     30  C2D      -10.9770    9.1800    6.5370 C.2   354  HEM354      0.0000
     31  C3D      -12.4340    9.4740    6.8780 C.2   354  HEM354      0.0000
     32  C4D      -13.2180    8.9330    5.7970 C.2   354  HEM354      0.0000
     33  CMD       -9.7270    9.5400    7.3650 C.3   354  HEM354      0.0000
     34  CAD      -12.9410   10.1690    8.1450 C.3   354  HEM354      0.0000
     35  CBD      -13.5630   11.5070    7.7910 C.3   354  HEM354      0.0000
     36  CGD      -13.9520   12.1300    9.1030 C.2   354  HEM354      0.0000
     37  O1D      -14.8970   11.6050    9.7410 O.co2 354  HEM354      0.0000
     38  O2D      -13.2990   13.1270    9.5030 O.co2 354  HEM354      0.0000
     39  NA       -14.9130    7.9590    3.4780 N.ar  354  HEM354      0.0000
     40  NB       -13.6370    6.2760    1.5650 N.2   354  HEM354      0.0000
     41  NC       -11.0910    6.6900    2.9170 N.ar  354  HEM354      0.0000
     42  ND       -12.3440    8.3690    4.8790 N.2   354  HEM354      0.0000
     43 FE        -12.9990    7.3730    3.1770 Fe    354  HEM354      0.0000
@<TRIPOS>BOND
     1    21    20    2
     2    20    17    1
     3    19    16    1
     4    17    16    2
     5    17    18    1
     6    16    15    1
     7    18     3    2
     8    18    40    1
     9    15     2    1
    10    15    40    2
    11     3    22    1
    12    26    23    1
    13     2     8    2
    14    40    43    1
    15    22    23   ar
    16    22    41   ar
    17    23    24   ar
    18     8     7   ar
    19     8    39   ar
    20     9     7    1
    21    41    43    1
    22    41    25   ar
    23    24    27    1
    24    24    25   ar
    25    43    39    1
    26    43    42    1
    27     7     6   ar
    28    39     5   ar
    29    27    28    2
    30    25     4    1
    31     6     5   ar
    32     6    10    1
    33     4    29    2
    34     5     1    2
    35    42    29    1
    36    42    32    2
    37    29    30    1
    38    10    11    1
    39     1    32    1
    40    32    31    1
    41    30    31    2
    42    30    33    1
    43    11    12    1
    44    31    34    1
    45    13    12   ar
    46    12    14   ar
    47    35    34    1
    48    35    36    1
    49    36    38   ar
    50    36    37   ar
