@<TRIPOS>MOLECULE
3a1l_HEM_A_1.pdb
 43 50 0 0 0
SMALL
GASTEIGER

@<TRIPOS>ATOM
      1 FE        -11.5540   -2.2470  -16.2630 Fe    500  HEM500      0.0000
      2  CHA      -13.7640   -1.9100  -18.8580 C.2   500  HEM500      0.0000
      3  CHB      -11.1810    1.2260  -16.2450 C.2   500  HEM500      0.0000
      4  CHC       -8.9360   -2.5080  -14.0260 C.2   500  HEM500      0.0000
      5  CHD      -11.4540   -5.6920  -16.6470 C.2   500  HEM500      0.0000
      6  NA       -12.3050   -0.6130  -17.3740 N.2   500  HEM500      0.0000
      7  C1A      -13.2820   -0.6920  -18.3350 C.2   500  HEM500      0.0000
      8  C2A      -13.7310    0.6510  -18.7370 C.2   500  HEM500      0.0000
      9  C3A      -12.9850    1.5130  -17.9920 C.2   500  HEM500      0.0000
     10  C4A      -12.1090    0.7170  -17.1540 C.2   500  HEM500      0.0000
     11  CMA      -13.0430    3.0440  -18.0240 C.3   500  HEM500      0.0000
     12  CAA      -14.8000    1.0220  -19.7770 C.3   500  HEM500      0.0000
     13  CBA      -14.3600    0.9330  -21.2660 C.3   500  HEM500      0.0000
     14  CGA      -15.4870    1.3520  -22.2520 C.2   500  HEM500      0.0000
     15  O1A      -16.6240    1.6840  -21.8180 O.co2 500  HEM500      0.0000
     16  O2A      -15.2180    1.3690  -23.4640 O.co2 500  HEM500      0.0000
     17  NB       -10.2960   -0.9130  -15.3740 N.ar  500  HEM500      0.0000
     18  C1B      -10.3300    0.4670  -15.4200 C.ar  500  HEM500      0.0000
     19  C2B       -9.3690    1.0400  -14.5010 C.ar  500  HEM500      0.0000
     20  C3B       -8.7130   -0.0230  -13.8570 C.ar  500  HEM500      0.0000
     21  C4B       -9.3050   -1.2160  -14.4060 C.ar  500  HEM500      0.0000
     22  CMB       -9.1410    2.5680  -14.3030 C.3   500  HEM500      0.0000
     23  CAB       -7.6660    0.0530  -12.8630 C.3   500  HEM500      0.0000
     24  CBB       -7.5330    0.9710  -11.7970 C.3   500  HEM500      0.0000
     25  NC       -10.3620   -3.8280  -15.4960 N.2   500  HEM500      0.0000
     26  C1C       -9.4280   -3.7120  -14.5190 C.2   500  HEM500      0.0000
     27  C2C       -8.9900   -5.0100  -14.0490 C.2   500  HEM500      0.0000
     28  C3C       -9.6830   -5.9500  -14.7760 C.2   500  HEM500      0.0000
     29  C4C      -10.5480   -5.1740  -15.6900 C.2   500  HEM500      0.0000
     30  CMC       -7.9410   -5.2600  -12.9470 C.3   500  HEM500      0.0000
     31  CAC       -9.5680   -7.3420  -14.6510 C.2   500  HEM500      0.0000
     32  CBC      -10.3980   -8.1140  -13.8800 C.2   500  HEM500      0.0000
     33  ND       -12.3770   -3.5340  -17.5220 N.ar  500  HEM500      0.0000
     34  C1D      -12.3020   -4.9220  -17.5070 C.ar  500  HEM500      0.0000
     35  C2D      -13.2130   -5.4790  -18.4760 C.ar  500  HEM500      0.0000
     36  C3D      -13.8690   -4.4400  -19.0930 C.ar  500  HEM500      0.0000
     37  C4D      -13.3450   -3.2240  -18.4950 C.ar  500  HEM500      0.0000
     38  CMD      -13.4130   -6.9680  -18.7600 C.3   500  HEM500      0.0000
     39  CAD      -14.9450   -4.5390  -20.1890 C.3   500  HEM500      0.0000
     40  CBD      -16.3510   -4.8200  -19.6430 C.3   500  HEM500      0.0000
     41  CGD      -17.4980   -4.7260  -20.6810 C.2   500  HEM500      0.0000
     42  O1D      -18.6390   -4.9500  -20.2850 O.co2 500  HEM500      0.0000
     43  O2D      -17.2530   -4.4350  -21.8750 O.co2 500  HEM500      0.0000
@<TRIPOS>BOND
     1    16    14   ar
     2    14    15   ar
     3    14    13    1
     4    43    41   ar
     5    13    12    1
     6    41    42   ar
     7    41    40    1
     8    39    40    1
     9    39    36    1
    10    12     8    1
    11    36    37   ar
    12    36    35   ar
    13     2    37    2
    14     2     7    1
    15    38    35    1
    16     8     7    1
    17     8     9    2
    18    37    33   ar
    19    35    34   ar
    20     7     6    2
    21    11     9    1
    22     9    10    1
    23    33    34   ar
    24    33     1    1
    25    34     5    2
    26     6    10    1
    27     6     1    1
    28    10     3    2
    29     5    29    1
    30     1    25    1
    31     1    17    1
    32     3    18    1
    33    29    25    2
    34    29    28    1
    35    25    26    1
    36    18    17   ar
    37    18    19   ar
    38    17    21   ar
    39    28    31    1
    40    28    27    2
    41    31    32    2
    42    26    27    1
    43    26     4    2
    44    19    22    1
    45    19    20   ar
    46    21     4    1
    47    21    20   ar
    48    27    30    1
    49    20    23    1
    50    23    24    1
