@<TRIPOS>MOLECULE
3a1l_2CC_A_1.pdb
 31 35 0 0 0
SMALL
GASTEIGER

@<TRIPOS>ATOM
      1 CL1       -10.3790   -3.3040  -20.5940 Cl    501  2CC501     -0.0810
      2  C16      -10.5150   -1.7860  -21.4110 C.2   501  2CC501      0.0713
      3  C15      -10.7460   -0.6260  -20.6810 C.2   501  2CC501     -0.0085
      4  C14      -10.8700    0.5950  -21.3370 C.3   501  2CC501      0.0530
      5  C13      -10.7630    0.6580  -22.7230 C.2   501  2CC501     -0.0198
      6  C12      -10.5320   -0.5050  -23.4470 C.2   501  2CC501      0.0161
      7  C17      -10.4060   -1.7240  -22.7960 C.2   501  2CC501      0.0912
      8  N2       -10.1700   -2.6520  -23.7230 N.2   501  2CC501     -0.2430
      9  C18      -10.1390   -2.0850  -24.9250 C.2   501  2CC501      0.0989
     10  C11      -10.3560   -0.7770  -24.8000 C.2   501  2CC501      0.0231
     11  C10      -10.4190    0.1930  -25.7940 C.2   501  2CC501      0.0405
     12  C9       -11.3920    1.1640  -25.9790 C.2   501  2CC501      0.2110
     13  C26      -12.7030    1.3060  -25.1930 C.2   501  2CC501      0.4168
     14  O28      -13.4360    2.2770  -25.4760 O.co2 501  2CC501     -0.2377
     15  O27      -12.9790    0.4440  -24.3340 O.co2 501  2CC501     -0.2377
     16  N1       -11.0800    1.9240  -27.0270 N.2   501  2CC501     -0.3884
     17  C8        -9.9410    1.4750  -27.5460 C.2   501  2CC501      0.2110
     18  C29       -9.2440    2.1020  -28.7560 C.2   501  2CC501      0.4168
     19  O32       -8.1670    1.6060  -29.1490 O.co2 501  2CC501     -0.2377
     20  O30       -9.7960    3.0890  -29.2880 O.co2 501  2CC501     -0.2377
     21  C7        -9.4900    0.3830  -26.8100 C.2   501  2CC501      0.0405
     22  C6        -8.3270   -0.3530  -27.0070 C.2   501  2CC501      0.0231
     23  C19       -7.3260   -0.5590  -26.1560 C.2   501  2CC501      0.0989
     24  N3        -6.4220   -1.3510  -26.7310 N.2   501  2CC501     -0.2430
     25  C20       -6.8230   -1.6660  -27.9610 C.2   501  2CC501      0.0912
     26  C5        -8.0420   -1.0410  -28.1800 C.2   501  2CC501      0.0161
     27  C4        -8.7110   -1.2060  -29.3880 C.2   501  2CC501     -0.0198
     28  C3        -8.1500   -2.0020  -30.3820 C.3   501  2CC501      0.0530
     29  C2        -6.9280   -2.6290  -30.1660 C.2   501  2CC501     -0.0085
     30  C1        -6.2650   -2.4620  -28.9550 C.2   501  2CC501      0.0713
     31 CL2        -4.7570   -3.2620  -28.6730 Cl    501  2CC501     -0.0810
@<TRIPOS>BOND
     1    28    29    1
     2    28    27    1
     3    29    30    2
     4    27    26    2
     5    20    18   ar
     6    19    18   ar
     7    30    31    1
     8    30    25    1
     9    18    17    1
    10    26    25    1
    11    26    22    1
    12    25    24    2
    13    17    16    2
    14    17    21    1
    15    16    12    2
    16    22    21    1
    17    22    23    2
    18    21    11    2
    19    24    23    1
    20    12    11    1
    21    12    13    1
    22    11    10    1
    23    14    13   ar
    24    13    15   ar
    25     9    10    2
    26     9     8    1
    27    10     6    1
    28     8     7    2
    29     6     7    1
    30     6     5    2
    31     7     2    1
    32     5     4    1
    33     2     3    2
    34     2     1    1
    35     4     3    1
