@<TRIPOS>MOLECULE
3a1n_NAD_A_1.pdb
 44 48 0 0 0
SMALL
GASTEIGER

@<TRIPOS>ATOM
      1  PA        26.5550  -14.9980  -13.1420 P.3   3001  NAD3001     0.2189
      2  O1A       27.9890  -15.1230  -12.8800 O.2   3001  NAD3001    -0.5170
      3  O2A       25.6230  -14.9220  -11.9200 O.3   3001  NAD3001    -0.4371
      4  O5B       26.3170  -13.7320  -14.1360 O.3   3001  NAD3001    -0.3112
      5  C5B       24.9970  -13.3120  -14.5000 C.3   3001  NAD3001     0.1813
      6  C4B       25.0810  -11.8200  -14.9010 C.3   3001  NAD3001     0.1821
      7  O4B       23.7520  -11.3370  -15.1430 O.3   3001  NAD3001    -0.3135
      8  C3B       25.6670  -10.9470  -13.7770 C.3   3001  NAD3001     0.2184
      9  O3B       26.8700  -10.3060  -14.1900 O.3   3001  NAD3001    -0.2174
     10  C2B       24.5370   -9.9880  -13.4490 C.3   3001  NAD3001     0.2570
     11  O2B       24.9240   -8.7210  -12.9590 O.3   3001  NAD3001    -0.2130
     12  C1B       23.8330   -9.9630  -14.7760 C.3   3001  NAD3001     0.3186
     13  N9A       22.4910   -9.3150  -14.8030 N.pl3 3001  NAD3001    -0.1439
     14  C8A       21.4420   -9.4670  -13.9120 C.3   3001  NAD3001     0.3377
     15  N7A       20.4190   -8.6910  -14.3010 N.2   3001  NAD3001    -0.2095
     16  C5A       20.7800   -8.0320  -15.4290 C.2   3001  NAD3001     0.2526
     17  C6A       20.1430   -7.1060  -16.2660 C.2   3001  NAD3001     0.4393
     18  N6A       18.9050   -6.6960  -16.0120 N.pl3 3001  NAD3001     0.2180
     19  N1A       20.8210   -6.6070  -17.3810 N.2   3001  NAD3001     0.0021
     20  C2A       22.1240   -7.0250  -17.6610 C.3   3001  NAD3001     0.5254
     21  N3A       22.7630   -7.9360  -16.8440 N.2   3001  NAD3001    -0.0055
     22  C4A       22.0960   -8.4250  -15.7510 C.2   3001  NAD3001     0.3518
     23  O3        26.1370  -16.2450  -14.0690 O.3   3001  NAD3001    -0.2703
     24  PN        27.0430  -16.9210  -15.2310 P.3   3001  NAD3001     0.2189
     25  O1N       27.9970  -15.9540  -15.8040 O.2   3001  NAD3001    -0.5170
     26  O2N       27.6300  -18.1680  -14.6730 O.3   3001  NAD3001    -0.4371
     27  O5D       25.9150  -17.3110  -16.2690 O.3   3001  NAD3001    -0.3112
     28  C5D       25.2010  -16.3130  -16.9520 C.3   3001  NAD3001     0.1813
     29  C4D       24.1970  -16.9790  -17.8740 C.3   3001  NAD3001     0.1799
     30  O4D       24.5960  -18.3340  -18.0910 O.3   3001  NAD3001    -0.3327
     31  C3D       22.7880  -17.0210  -17.2970 C.3   3001  NAD3001     0.2158
     32  O3D       21.8390  -16.6540  -18.2780 O.3   3001  NAD3001    -0.2175
     33  C2D       22.6150  -18.4330  -16.8120 C.3   3001  NAD3001     0.2309
     34  O2D       21.2870  -18.8690  -16.8620 O.3   3001  NAD3001    -0.2158
     35  C1D       23.5640  -19.2160  -17.7010 C.3   3001  NAD3001     0.2263
     36  N1N       24.1660  -20.4330  -17.0650 N.pl3 3001  NAD3001    -0.2787
     37  C2N       24.9530  -20.2910  -15.9130 C.3   3001  NAD3001     0.1244
     38  C3N       25.5190  -21.4290  -15.3010 C.2   3001  NAD3001     0.0544
     39  C7N       26.3630  -21.2830  -14.0610 C.2   3001  NAD3001     0.2818
     40  O7N       26.8940  -22.4300  -13.4990 O.2   3001  NAD3001    -0.2670
     41  N7N       26.6210  -20.1260  -13.4850 N.am  3001  NAD3001    -0.0839
     42  C4N       25.2760  -22.6960  -15.8630 C.2   3001  NAD3001     0.0033
     43  C5N       24.4830  -22.8330  -17.0120 C.2   3001  NAD3001     0.0157
     44  C6N       23.9180  -21.6700  -17.6220 C.2   3001  NAD3001     0.0633
@<TRIPOS>BOND
     1    32    31    1
     2    30    29    1
     3    30    35    1
     4    29    31    1
     5    29    28    1
     6    35    36    1
     7    35    33    1
     8    20    19    1
     9    20    21    1
    10    44    36    1
    11    44    43    2
    12    19    17    2
    13    31    33    1
    14    36    37    1
    15    43    42    1
    16    28    27    1
    17    34    33    1
    18    21    22    2
    19    27    24    1
    20    17    18    1
    21    17    16    1
    22    37    38    1
    23    42    38    2
    24    25    24    2
    25    22    16    1
    26    22    13    1
    27    16    15    2
    28    38    39    1
    29    24    26    1
    30    24    23    1
    31     7     6    1
    32     7    12    1
    33     6     5    1
    34     6     8    1
    35    13    12    1
    36    13    14    1
    37    12    10    1
    38     5     4    1
    39    15    14    1
    40     9     8    1
    41     4     1    1
    42    23     1    1
    43    39    40    2
    44    39    41   am
    45     8    10    1
    46    10    11    1
    47     1     2    2
    48     1     3    1
