@<TRIPOS>MOLECULE
3a1s_GDP_A_1.pdb
 28 30 0 0 0
SMALL
GASTEIGER

@<TRIPOS>ATOM
      1  PB        -3.9050   23.1290  -11.0400 P.3     1  GDP1        0.5373
      2  O1B       -4.8640   21.9740  -11.1710 O.3     1  GDP1       -0.1143
      3  O2B       -3.4550   23.6370  -12.3870 O.2     1  GDP1       -0.2221
      4  O3B       -4.5030   24.2130  -10.1630 O.3     1  GDP1       -0.1143
      5  O3A       -2.6680   22.4780  -10.2230 O.3     1  GDP1       -0.2261
      6  PA        -1.1010   22.7480  -10.2780 P.3     1  GDP1        0.2231
      7  O1A       -0.4340   21.9870  -11.3900 O.2     1  GDP1       -0.5169
      8  O2A       -0.7870   24.2380  -10.3070 O.3     1  GDP1       -0.4370
      9  O5'       -0.6220   22.0650   -8.9200 O.3     1  GDP1       -0.3111
     10  C5'       -1.1480   22.4440   -7.6480 C.3     1  GDP1        0.1813
     11  C4'       -0.1630   22.0300   -6.5820 C.3     1  GDP1        0.1799
     12  O4'        0.0950   20.6240   -6.7280 O.3     1  GDP1       -0.3326
     13  C3'        1.1610   22.7310   -6.7630 C.3     1  GDP1        0.2158
     14  O3'        1.7030   22.9330   -5.4570 O.3     1  GDP1       -0.2175
     15  C2'        2.0120   21.7160   -7.4980 C.3     1  GDP1        0.2310
     16  O2'        3.4030   21.8600   -7.2380 O.3     1  GDP1       -0.2158
     17  C1'        1.4860   20.4230   -6.9120 C.3     1  GDP1        0.2293
     18  N9         1.6140   19.3070   -7.8570 N.pl3   1  GDP1       -0.2354
     19  C8         1.0420   19.2010   -9.0650 C.3     1  GDP1        0.2246
     20  N7         1.3670   18.0150   -9.6470 N.2     1  GDP1       -0.2322
     21  C5         2.1470   17.3600   -8.7700 C.2     1  GDP1        0.2182
     22  C6         2.8360   16.0640   -8.7230 C.1     1  GDP1        0.2372
     23  O6         2.7360   15.2950   -9.7010 O.2     1  GDP1       -0.2069
     24  N1         3.5460   15.7770   -7.6210 N.2     1  GDP1       -0.2485
     25  C2         3.6470   16.6050   -6.5640 C.1     1  GDP1        0.2531
     26  N2         4.3700   16.2520   -5.4760 N.pl3   1  GDP1       -0.0226
     27  N3         3.0370   17.8140   -6.5390 N.2     1  GDP1       -0.3074
     28  C4         2.3000   18.2100   -7.5890 C.2     1  GDP1        0.2300
@<TRIPOS>BOND
     1     3     1    2
     2     7     6    2
     3     2     1    1
     4     1     5    1
     5     1     4    1
     6     8     6    1
     7     6     5    1
     8     6     9    1
     9    23    22    2
    10    20    19    1
    11    20    21    2
    12    19    18    1
    13     9    10    1
    14    21    22    1
    15    21    28    1
    16    22    24    2
    17    18    28    1
    18    18    17    1
    19    10    11    1
    20    24    25    2
    21    28    27    2
    22    15    16    1
    23    15    17    1
    24    15    13    1
    25    17    12    1
    26    13    11    1
    27    13    14    1
    28    12    11    1
    29    25    27    2
    30    25    26    1
