@<TRIPOS>MOLECULE
3a1t_GDP_A_1.pdb
 28 30 0 0 0
SMALL
GASTEIGER

@<TRIPOS>ATOM
      1  PB        25.7160   16.3590   24.6280 P.3     1  GDP1        0.5373
      2  O1B       24.5450   16.4820   25.5690 O.3     1  GDP1       -0.1143
      3  O2B       26.6170   15.2300   25.0920 O.3     1  GDP1       -0.1143
      4  O3B       25.2170   16.0310   23.2480 O.2     1  GDP1       -0.2221
      5  O3A       26.6050   17.6940   24.4460 O.3     1  GDP1       -0.2261
      6  PA        26.8560   18.8990   25.5000 P.3     1  GDP1        0.2231
      7  O1A       27.1630   18.4160   26.8970 O.3     1  GDP1       -0.4370
      8  O2A       25.6600   19.8460   25.4870 O.2     1  GDP1       -0.5169
      9  O5'       28.0990   19.5780   24.7850 O.3     1  GDP1       -0.3111
     10  C5'       29.3090   18.8420   24.5970 C.3     1  GDP1        0.1813
     11  C4'       30.4710   19.8120   24.4950 C.3     1  GDP1        0.1799
     12  O4'       30.2960   20.7010   23.3870 O.3     1  GDP1       -0.3326
     13  C3'       30.5430   20.6730   25.7340 C.3     1  GDP1        0.2158
     14  O3'       31.9230   20.8670   26.0100 O.3     1  GDP1       -0.2175
     15  C2'       29.9950   22.0170   25.3110 C.3     1  GDP1        0.2310
     16  O2'       30.6740   23.0570   26.0080 O.3     1  GDP1       -0.2158
     17  C1'       30.3090   22.0690   23.8310 C.3     1  GDP1        0.2293
     18  N9        29.2680   22.7970   23.0580 N.pl3   1  GDP1       -0.2354
     19  C8        27.9370   22.5800   23.1030 C.3     1  GDP1        0.2246
     20  N7        27.2770   23.4040   22.2400 N.2     1  GDP1       -0.2322
     21  C5        28.2150   24.1400   21.6220 C.2     1  GDP1        0.2182
     22  C6        28.2130   25.1990   20.5980 C.1     1  GDP1        0.2372
     23  O6        27.1160   25.5550   20.1150 O.2     1  GDP1       -0.2069
     24  N1        29.3800   25.7220   20.2070 N.2     1  GDP1       -0.2485
     25  C2        30.5610   25.3140   20.7270 C.1     1  GDP1        0.2531
     26  N2        31.7110   25.8810   20.2860 N.pl3   1  GDP1       -0.0226
     27  N3        30.6380   24.3420   21.6760 N.2     1  GDP1       -0.3074
     28  C4        29.5240   23.7320   22.1500 C.2     1  GDP1        0.2300
@<TRIPOS>BOND
     1    23    22    2
     2    24    22    2
     3    24    25    2
     4    26    25    1
     5    22    21    1
     6    25    27    2
     7    21    28    1
     8    21    20    2
     9    27    28    2
    10    28    18    1
    11    20    19    1
    12    18    19    1
    13    18    17    1
    14     4     1    2
    15    12    17    1
    16    12    11    1
    17    17    15    1
    18     5     1    1
    19     5     6    1
    20    11    10    1
    21    11    13    1
    22    10     9    1
    23     1     3    1
    24     1     2    1
    25     9     6    1
    26    15    13    1
    27    15    16    1
    28     8     6    2
    29     6     7    1
    30    13    14    1
