@<TRIPOS>MOLECULE
3a1u_GNP_A_1.pdb
 32 34 0 0 0
SMALL
GASTEIGER

@<TRIPOS>ATOM
      1  PG        -2.0180  -43.9120   -6.6660 P.3     1  GNP1        0.4884
      2  O1G       -2.7510  -42.6270   -6.4280 O.3     1  GNP1       -0.1240
      3  O2G       -2.5920  -44.6850   -7.8210 O.2     1  GNP1       -0.2331
      4  O3G       -0.6350  -43.4150   -6.9320 O.3     1  GNP1       -0.1240
      5  N3B       -2.0250  -44.7960   -5.3190 N.3     1  GNP1       -0.0163
      6  PB        -1.0280  -46.0030   -4.9500 P.3     1  GNP1        0.4669
      7  O1B        0.3890  -45.5960   -4.9820 O.3     1  GNP1       -0.1253
      8  O2B       -1.3820  -47.1590   -5.8110 O.2     1  GNP1       -0.2351
      9  O3A       -1.3380  -46.4880   -3.5180 O.3     1  GNP1       -0.2360
     10  PA        -0.7130  -46.0660   -2.1630 P.3     1  GNP1        0.2220
     11  O1A       -0.7970  -44.5860   -2.0540 O.2     1  GNP1       -0.5170
     12  O2A        0.6130  -46.6760   -1.9370 O.3     1  GNP1       -0.4370
     13  O5'       -1.6390  -46.6910   -1.0500 O.3     1  GNP1       -0.3111
     14  C5'       -3.0640  -46.5420   -1.0670 C.3     1  GNP1        0.1813
     15  C4'       -3.6100  -46.8760    0.3100 C.3     1  GNP1        0.1799
     16  O4'       -3.4640  -48.3020    0.5570 O.3     1  GNP1       -0.3326
     17  C3'       -2.8870  -46.1600    1.4540 C.3     1  GNP1        0.2158
     18  O3'       -3.8060  -45.7530    2.4630 O.3     1  GNP1       -0.2175
     19  C2'       -1.9470  -47.2370    1.9830 C.3     1  GNP1        0.2310
     20  O2'       -1.6530  -47.0840    3.3560 O.3     1  GNP1       -0.2158
     21  C1'       -2.7600  -48.5060    1.7590 C.3     1  GNP1        0.2293
     22  N9        -1.8970  -49.6670    1.5680 N.pl3   1  GNP1       -0.2354
     23  C8        -0.9240  -49.8020    0.6060 C.3     1  GNP1        0.2246
     24  N7        -0.2980  -50.9470    0.6560 N.2     1  GNP1       -0.2322
     25  C5        -0.8950  -51.6070    1.7200 C.2     1  GNP1        0.2182
     26  C6        -0.6290  -52.8830    2.2490 C.1     1  GNP1        0.2372
     27  O6         0.2150  -53.6950    1.8640 O.2     1  GNP1       -0.2069
     28  N1        -1.4570  -53.1900    3.3230 N.2     1  GNP1       -0.2485
     29  C2        -2.4220  -52.3500    3.8270 C.1     1  GNP1        0.2531
     30  N2        -3.1250  -52.8230    4.8670 N.pl3   1  GNP1       -0.0226
     31  N3        -2.6860  -51.1410    3.3440 N.2     1  GNP1       -0.3074
     32  C4        -1.8840  -50.8320    2.2940 C.2     1  GNP1        0.2300
@<TRIPOS>BOND
     1     3     1    2
     2     4     1    1
     3     1     2    1
     4     1     5    1
     5     8     6    2
     6     5     6    1
     7     7     6    1
     8     6     9    1
     9     9    10    1
    10    10    11    2
    11    10    12    1
    12    10    13    1
    13    14    13    1
    14    14    15    1
    15    15    16    1
    16    15    17    1
    17    16    21    1
    18    23    24    1
    19    23    22    1
    20    24    25    2
    21    17    19    1
    22    17    18    1
    23    22    21    1
    24    22    32    1
    25    25    26    1
    26    25    32    1
    27    21    19    1
    28    27    26    2
    29    19    20    1
    30    26    28    2
    31    32    31    2
    32    28    29    2
    33    31    29    2
    34    29    30    1
