@<TRIPOS>MOLECULE
3a20_FMN_A_1.pdb
 31 33 0 0 0
SMALL
GASTEIGER

@<TRIPOS>ATOM
      1  N1        22.8630   26.2110   26.6550 N.2   123  FMN123     -0.2890
      2  C2        23.6840   27.0670   27.3500 C.1   123  FMN123      0.3669
      3  O2        23.5750   27.2250   28.5640 O.2   123  FMN123     -0.1744
      4  N3        24.6780   27.7680   26.6310 N.2   123  FMN123     -0.2300
      5  C4        24.9010   27.6720   25.2760 C.1   123  FMN123      0.2513
      6  O4        25.8110   28.3320   24.7150 O.2   123  FMN123     -0.2057
      7  C4A       24.0230   26.7620   24.5390 C.2   123  FMN123      0.2700
      8  N5        24.1810   26.6060   23.1950 N.2   123  FMN123     -0.3878
      9  C5A       23.3760   25.7030   22.5220 C.2   123  FMN123      0.1320
     10  C6        23.5700   25.4920   21.1240 C.2   123  FMN123      0.0250
     11  C7        22.7880   24.5830   20.3900 C.2   123  FMN123     -0.0238
     12  C7M       23.0410   24.3870   18.9190 C.3   123  FMN123      0.0308
     13  C8        21.7570   23.8550   21.0960 C.2   123  FMN123     -0.0280
     14  C8M       20.8740   22.8510   20.3420 C.3   123  FMN123      0.0304
     15  C9        21.5570   24.0460   22.4510 C.2   123  FMN123     -0.0041
     16  C9A       22.3390   24.9470   23.2160 C.3   123  FMN123      0.1497
     17  N10       22.1940   25.1720   24.6210 N.pl3 123  FMN123     -0.2691
     18  C10       23.0260   26.0600   25.3130 C.2   123  FMN123      0.2416
     19  C1'       21.1790   24.4320   25.4080 C.3   123  FMN123      0.1294
     20  C2'       21.8560   23.2200   26.0990 C.3   123  FMN123      0.2044
     21  O2'       22.2520   22.2490   25.1410 O.3   123  FMN123     -0.2185
     22  C3'       20.9740   22.5700   27.1650 C.3   123  FMN123      0.2164
     23  O3'       19.8090   22.0330   26.4900 O.3   123  FMN123     -0.2175
     24  C4'       20.4980   23.5190   28.2550 C.3   123  FMN123      0.2147
     25  O4'       21.5270   24.4280   28.7180 O.3   123  FMN123     -0.2176
     26  C5'       20.0020   22.7530   29.4680 C.3   123  FMN123      0.1892
     27  O5'       21.1280   22.1070   30.1000 O.3   123  FMN123     -0.2674
     28  P         20.8890   20.8850   31.1140 P.3   123  FMN123      0.5327
     29  O1P       20.1620   19.8050   30.3370 O.2   123  FMN123     -0.2224
     30  O2P       20.0370   21.4010   32.2740 O.3   123  FMN123     -0.1145
     31  O3P       22.2670   20.5040   31.5550 O.3   123  FMN123     -0.1145
@<TRIPOS>BOND
     1    12    11    1
     2    14    13    1
     3    11    13    1
     4    11    10    2
     5    13    15    2
     6    10     9    1
     7    15    16    1
     8     9     8    2
     9     9    16    1
    10     8     7    2
    11    16    17    1
    12     7     5    1
    13     7    18    1
    14    17    18    1
    15    17    19    1
    16     6     5    2
    17    21    20    1
    18     5     4    2
    19    18     1    2
    20    19    20    1
    21    20    22    1
    22    23    22    1
    23     4     2    2
    24     1     2    2
    25    22    24    1
    26     2     3    2
    27    24    25    1
    28    24    26    1
    29    26    27    1
    30    27    28    1
    31    29    28    2
    32    28    31    1
    33    28    30    1
