@<TRIPOS>MOLECULE
3a22_ARA_A_1.pdb
 10 10 0 0 0
SMALL
GASTEIGER

@<TRIPOS>ATOM
      1  C1       -14.5720   59.5790   11.0070 C.3   701  ARA701      0.3024
      2  C2       -13.7920   59.2920   12.2920 C.3   701  ARA701      0.2434
      3  C3       -14.3630   58.0370   12.9630 C.3   701  ARA701      0.2199
      4  C4       -15.8350   58.3140   13.2680 C.3   701  ARA701      0.2143
      5  C5       -16.5650   58.7010   11.9760 C.3   701  ARA701      0.1804
      6  O1       -14.0080   60.7080   10.3450 O.3   701  ARA701     -0.1869
      7  O2       -12.4130   59.1920   12.0110 O.3   701  ARA701     -0.2148
      8  O3       -13.6680   57.7430   14.1570 O.3   701  ARA701     -0.2174
      9  O4       -15.8620   59.3970   14.1680 O.3   701  ARA701     -0.2176
     10  O5       -15.9270   59.8150   11.3450 O.3   701  ARA701     -0.3237
@<TRIPOS>BOND
     1     6     1    1
     2     1    10    1
     3     1     2    1
     4    10     5    1
     5     5     4    1
     6     7     2    1
     7     2     3    1
     8     3     4    1
     9     3     8    1
    10     4     9    1
