@<TRIPOS>MOLECULE
3a23_GAL_A_1.pdb
 12 12 0 0 0
SMALL
GASTEIGER

@<TRIPOS>ATOM
      1  C1       -14.4070   59.4400   10.8490 C.3   801  GAL801      0.3024
      2  C2       -13.6940   59.1790   12.1700 C.3   801  GAL801      0.2434
      3  C3       -14.3670   57.9760   12.8410 C.3   801  GAL801      0.2199
      4  C4       -15.8450   58.3050   13.0930 C.3   801  GAL801      0.2144
      5  C5       -16.5250   58.7310   11.7780 C.3   801  GAL801      0.1836
      6  C6       -17.9370   59.2820   11.9880 C.3   801  GAL801      0.2142
      7  O1       -13.8050   60.5560   10.2240 O.3   801  GAL801     -0.1869
      8  O2       -12.3160   58.9890   11.9300 O.3   801  GAL801     -0.2148
      9  O3       -13.7180   57.6460   14.0500 O.3   801  GAL801     -0.2174
     10  O4       -15.8920   59.3360   14.0530 O.3   801  GAL801     -0.2176
     11  O5       -15.7730   59.7290   11.1070 O.3   801  GAL801     -0.3236
     12  O6       -18.6560   59.5700   10.7880 O.3   801  GAL801     -0.2176
@<TRIPOS>BOND
     1     7     1    1
     2    12     6    1
     3     1    11    1
     4     1     2    1
     5    11     5    1
     6     5     6    1
     7     5     4    1
     8     8     2    1
     9     2     3    1
    10     3     4    1
    11     3     9    1
    12     4    10    1
