@<TRIPOS>MOLECULE
3a25_SAM_A_1.pdb
 27 29 0 0 0
SMALL
GASTEIGER

@<TRIPOS>ATOM
      1  N         -7.4150  -26.9330  -39.8390 N.3   279  SAM279     -0.1208
      2  CA        -8.2010  -27.0600  -38.6120 C.3   279  SAM279      0.1952
      3  C         -9.1350  -25.8360  -38.4500 C.2   279  SAM279      0.3819
      4  O         -9.2710  -25.0560  -39.4010 O.co2 279  SAM279     -0.2441
      5  OXT       -9.7950  -25.6030  -37.4140 O.co2 279  SAM279     -0.2441
      6  CB        -7.3230  -27.4290  -37.3900 C.3   279  SAM279      0.0414
      7  CG        -5.9210  -28.0130  -37.6620 C.3   279  SAM279      0.0503
      8  SD        -4.8870  -28.2430  -36.1710 S.3   279  SAM279     -0.1761
      9  CE        -3.8790  -26.7360  -36.2610 C.3   279  SAM279      0.0590
     10  C5'       -3.6480  -29.5650  -36.4820 C.3   279  SAM279      0.0806
     11  C4'       -2.3580  -29.4060  -35.6290 C.3   279  SAM279      0.1622
     12  O4'       -1.9170  -30.5770  -34.9370 O.3   279  SAM279     -0.3153
     13  C3'       -1.1220  -28.9060  -36.3830 C.3   279  SAM279      0.2168
     14  O3'       -0.7370  -27.6780  -35.8140 O.3   279  SAM279     -0.2175
     15  C2'        0.0020  -29.8780  -36.0670 C.3   279  SAM279      0.2569
     16  O2'        1.2090  -29.2030  -35.7980 O.3   279  SAM279     -0.2130
     17  C1'       -0.4950  -30.5320  -34.7950 C.3   279  SAM279      0.3185
     18  N9         0.0690  -31.8760  -34.5790 N.pl3 279  SAM279     -0.1439
     19  C8         0.1810  -32.8820  -35.5060 C.3   279  SAM279      0.3377
     20  N7         0.7130  -33.9660  -34.8920 N.2   279  SAM279     -0.2095
     21  C5         0.9280  -33.6730  -33.5870 C.2   279  SAM279      0.2526
     22  C6         1.4530  -34.4090  -32.5240 C.2   279  SAM279      0.4393
     23  N6         1.8480  -35.6670  -32.6970 N.pl3 279  SAM279      0.2180
     24  N1         1.5700  -33.8310  -31.2780 N.2   279  SAM279      0.0021
     25  C2         1.1550  -32.5240  -31.0940 C.3   279  SAM279      0.5254
     26  N3         0.6420  -31.7970  -32.1540 N.2   279  SAM279     -0.0055
     27  C4         0.5360  -32.3590  -33.3820 C.2   279  SAM279      0.3518
@<TRIPOS>BOND
     1     1     2    1
     2     4     3   ar
     3     2     3    1
     4     2     6    1
     5     3     5   ar
     6     7     6    1
     7     7     8    1
     8    10     8    1
     9    10    11    1
    10    13    15    1
    11    13    14    1
    12    13    11    1
    13     9     8    1
    14    15    16    1
    15    15    17    1
    16    11    12    1
    17    19    20    1
    18    19    18    1
    19    12    17    1
    20    20    21    2
    21    17    18    1
    22    18    27    1
    23    21    27    1
    24    21    22    1
    25    27    26    2
    26    23    22    1
    27    22    24    2
    28    26    25    1
    29    24    25    1
