@<TRIPOS>MOLECULE
3a26_MTA_A_1.pdb
 20 22 0 0 0
SMALL
GASTEIGER

@<TRIPOS>ATOM
      1  CS        -3.5630  -27.0590  -39.3740 C.3   279  MTA279      0.0693
      2  S5'       -4.5250  -28.6580  -39.3960 S.3   279  MTA279     -0.1367
      3  C5'       -3.4670  -30.1260  -39.1070 C.3   279  MTA279      0.0899
      4  C4'       -2.2560  -29.8050  -38.2080 C.3   279  MTA279      0.1630
      5  O4'       -1.6660  -30.8330  -37.3650 O.3   279  MTA279     -0.3153
      6  C2'        0.1300  -30.0780  -38.7310 C.3   279  MTA279      0.2569
      7  O2'        1.4490  -29.5790  -38.8180 O.3   279  MTA279     -0.2130
      8  C3'       -0.9890  -29.0220  -38.8320 C.3   279  MTA279      0.2168
      9  O3'       -0.6950  -27.7320  -38.3630 O.3   279  MTA279     -0.2175
     10  C1'       -0.2640  -30.7650  -37.4860 C.3   279  MTA279      0.3185
     11  N9         0.2640  -32.1470  -37.3950 N.pl3 279  MTA279     -0.1439
     12  C8         0.3520  -33.0760  -38.3200 C.3   279  MTA279      0.3377
     13  N7         0.9020  -34.2630  -37.6920 N.2   279  MTA279     -0.2095
     14  C5         1.1260  -33.9640  -36.3200 C.2   279  MTA279      0.2526
     15  C6         1.6580  -34.7680  -35.2150 C.2   279  MTA279      0.4393
     16  N6         2.0530  -36.1140  -35.4740 N.pl3 279  MTA279      0.2180
     17  N1         1.7690  -34.2310  -33.9520 N.2   279  MTA279      0.0021
     18  C2         1.3720  -32.8930  -33.7170 C.3   279  MTA279      0.5254
     19  N3         0.8710  -32.1260  -34.7630 N.2   279  MTA279     -0.0055
     20  C4         0.7510  -32.7100  -36.0960 C.2   279  MTA279      0.3518
@<TRIPOS>BOND
     1     2     1    1
     2     2     3    1
     3     3     4    1
     4     8     6    1
     5     8     9    1
     6     8     4    1
     7     7     6    1
     8     6    10    1
     9    12    13    1
    10    12    11    1
    11     4     5    1
    12    13    14    2
    13    10    11    1
    14    10     5    1
    15    11    20    1
    16    14    20    1
    17    14    15    1
    18    20    19    2
    19    16    15    1
    20    15    17    2
    21    19    18    1
    22    17    18    1
