@<TRIPOS>MOLECULE
3a27_SAM_A_1.pdb
 27 29 0 0 0
SMALL
GASTEIGER

@<TRIPOS>ATOM
      1  N         -8.9620  -10.0380  -17.3490 N.3   250  SAM250     -0.1208
      2  CA        -8.4970   -9.3050  -18.5220 C.3   250  SAM250      0.1952
      3  C         -8.8980   -7.8300  -18.4530 C.2   250  SAM250      0.3819
      4  O         -9.6230   -7.4130  -17.5480 O.co2 250  SAM250     -0.2441
      5  OXT       -8.4990   -7.0180  -19.2900 O.co2 250  SAM250     -0.2441
      6  CB        -8.9620   -9.9730  -19.8180 C.3   250  SAM250      0.0414
      7  CG        -9.8820  -11.1890  -19.6760 C.3   250  SAM250      0.0503
      8  SD       -10.8380  -11.4800  -21.1900 S.3   250  SAM250     -0.1761
      9  CE       -12.5100  -11.1240  -20.6000 C.3   250  SAM250      0.0590
     10  C5'      -10.9260  -13.2760  -21.4620 C.3   250  SAM250      0.0806
     11  C4'      -12.2140  -13.6440  -22.2170 C.3   250  SAM250      0.1622
     12  O4'      -12.0010  -14.5510  -23.2810 O.3   250  SAM250     -0.3153
     13  C3'      -13.3010  -14.2650  -21.3470 C.3   250  SAM250      0.2168
     14  O3'      -14.4170  -13.4090  -21.3920 O.3   250  SAM250     -0.2175
     15  C2'      -13.6750  -15.5690  -22.0220 C.3   250  SAM250      0.2569
     16  O2'      -15.0710  -15.7580  -22.0160 O.3   250  SAM250     -0.2130
     17  C1'      -13.1510  -15.3740  -23.4340 C.3   250  SAM250      0.3185
     18  N9       -12.7830  -16.6320  -24.1130 N.pl3 250  SAM250     -0.1439
     19  C8       -12.2250  -17.7420  -23.5380 C.3   250  SAM250      0.3377
     20  N7       -12.0220  -18.6740  -24.5040 N.2   250  SAM250     -0.2095
     21  C5       -12.4380  -18.1640  -25.6870 C.2   250  SAM250      0.2526
     22  C6       -12.4540  -18.6870  -26.9710 C.2   250  SAM250      0.4393
     23  N6       -12.0010  -19.9190  -27.1910 N.pl3 250  SAM250      0.2180
     24  N1       -12.9470  -17.9250  -28.0120 N.2   250  SAM250      0.0021
     25  C2       -13.4270  -16.6440  -27.7750 C.3   250  SAM250      0.5254
     26  N3       -13.4090  -16.1320  -26.4890 N.2   250  SAM250     -0.0055
     27  C4       -12.9240  -16.8820  -25.4600 C.2   250  SAM250      0.3518
@<TRIPOS>BOND
     1    24    25    1
     2    24    22    2
     3    25    26    1
     4    23    22    1
     5    22    21    1
     6    26    27    2
     7    21    27    1
     8    21    20    2
     9    27    18    1
    10    20    19    1
    11    18    19    1
    12    18    17    1
    13    17    12    1
    14    17    15    1
    15    12    11    1
    16    11    10    1
    17    11    13    1
    18    15    16    1
    19    15    13    1
    20    10     8    1
    21    14    13    1
    22     8     9    1
    23     8     7    1
    24     6     7    1
    25     6     2    1
    26     5     3   ar
    27     2     3    1
    28     2     1    1
    29     3     4   ar
