@<TRIPOS>MOLECULE
3a28_NAD_A_1.pdb
 44 48 0 0 0
SMALL
GASTEIGER

@<TRIPOS>ATOM
      1  PA       -13.7440   18.5520   16.6130 P.3   2300  NAD2300     0.2189
      2  O1A      -13.5030   19.8820   16.0220 O.2   2300  NAD2300    -0.5170
      3  O2A      -15.1580   18.1970   16.8380 O.3   2300  NAD2300    -0.4371
      4  O5B      -12.9660   18.3960   18.0030 O.3   2300  NAD2300    -0.3112
      5  C5B      -11.5910   18.7980   18.0770 C.3   2300  NAD2300     0.1813
      6  C4B      -11.2110   19.0260   19.5250 C.3   2300  NAD2300     0.1821
      7  O4B       -9.8300   19.4310   19.4680 O.3   2300  NAD2300    -0.3135
      8  C3B      -11.9740   20.1740   20.1840 C.3   2300  NAD2300     0.2184
      9  O3B      -12.6560   19.6840   21.3530 O.3   2300  NAD2300    -0.2174
     10  C2B      -10.8710   21.2100   20.4140 C.3   2300  NAD2300     0.2570
     11  O2B      -11.0960   22.0230   21.5850 O.3   2300  NAD2300    -0.2130
     12  C1B       -9.6220   20.3570   20.4800 C.3   2300  NAD2300     0.3186
     13  N9A       -8.3910   21.0880   20.1770 N.pl3 2300  NAD2300    -0.1439
     14  C8A       -8.0990   21.7930   19.0460 C.3   2300  NAD2300     0.3377
     15  N7A       -6.8960   22.3640   19.0690 N.2   2300  NAD2300    -0.2095
     16  C5A       -6.3790   22.0020   20.2930 C.2   2300  NAD2300     0.2526
     17  C6A       -5.1450   22.2990   20.9070 C.2   2300  NAD2300     0.4393
     18  N6A       -4.1750   23.0330   20.3990 N.pl3 2300  NAD2300     0.2180
     19  N1A       -4.9160   21.7810   22.1560 N.2   2300  NAD2300     0.0021
     20  C2A       -5.9170   21.0110   22.7120 C.3   2300  NAD2300     0.5254
     21  N3A       -7.0980   20.6750   22.2370 N.2   2300  NAD2300    -0.0055
     22  C4A       -7.2790   21.2100   20.9980 C.2   2300  NAD2300     0.3518
     23  O3       -13.0410   17.4870   15.6970 O.3   2300  NAD2300    -0.2703
     24  PN       -13.2590   15.8640   15.4690 P.3   2300  NAD2300     0.2189
     25  O1N      -13.7380   15.3210   16.7520 O.3   2300  NAD2300    -0.4371
     26  O2N      -14.1880   15.6800   14.3350 O.2   2300  NAD2300    -0.5170
     27  O5D      -11.7470   15.4670   15.1550 O.3   2300  NAD2300    -0.3112
     28  C5D      -10.9890   14.8130   16.1730 C.3   2300  NAD2300     0.1813
     29  C4D       -9.7280   14.2830   15.5480 C.3   2300  NAD2300     0.1799
     30  O4D      -10.1210   13.2860   14.5550 O.3   2300  NAD2300    -0.3327
     31  C3D       -8.8530   15.2890   14.7960 C.3   2300  NAD2300     0.2158
     32  O3D       -7.4730   15.0040   15.0070 O.3   2300  NAD2300    -0.2175
     33  C2D       -9.2600   15.0700   13.3460 C.3   2300  NAD2300     0.2309
     34  O2D       -8.1860   15.4360   12.4590 O.3   2300  NAD2300    -0.2158
     35  C1D       -9.5490   13.5990   13.3150 C.3   2300  NAD2300     0.2263
     36  N1N      -10.4440   13.2310   12.2220 N.pl3 2300  NAD2300    -0.2787
     37  C2N      -11.7580   13.7360   12.0840 C.3   2300  NAD2300     0.1244
     38  C3N      -12.6260   13.3340   10.9230 C.2   2300  NAD2300     0.0544
     39  C7N      -13.9890   13.9010   10.8370 C.2   2300  NAD2300     0.2818
     40  O7N      -14.6800   13.5530    9.8640 O.2   2300  NAD2300    -0.2670
     41  N7N      -14.5030   14.7500   11.7400 N.am  2300  NAD2300    -0.0839
     42  C4N      -12.0760   12.3570    9.9070 C.2   2300  NAD2300     0.0033
     43  C5N      -10.6840   11.9320   10.2090 C.2   2300  NAD2300     0.0157
     44  C6N       -9.9550   12.3220   11.2440 C.2   2300  NAD2300     0.0633
@<TRIPOS>BOND
     1    40    39    2
     2    42    43    1
     3    42    38    2
     4    43    44    2
     5    39    38    1
     6    39    41   am
     7    38    37    1
     8    44    36    1
     9    37    36    1
    10    36    35    1
    11    34    33    1
    12    35    33    1
    13    35    30    1
    14    33    31    1
    15    26    24    2
    16    30    29    1
    17    31    32    1
    18    31    29    1
    19    27    24    1
    20    27    28    1
    21    24    23    1
    22    24    25    1
    23    29    28    1
    24    23     1    1
    25     2     1    2
    26     1     3    1
    27     1     4    1
    28     4     5    1
    29     5     6    1
    30    14    15    1
    31    14    13    1
    32    15    16    2
    33     7     6    1
    34     7    12    1
    35     6     8    1
    36    13    12    1
    37    13    22    1
    38     8    10    1
    39     8     9    1
    40    16    17    1
    41    16    22    1
    42    18    17    1
    43    10    12    1
    44    10    11    1
    45    17    19    2
    46    22    21    2
    47    19    20    1
    48    21    20    1
