@<TRIPOS>MOLECULE
3a29_2T0_A_1.pdb
 19 21 0 0 0
SMALL
GASTEIGER

@<TRIPOS>ATOM
      1  C1        17.7880   60.6800   15.6990 C.ar  401  2T0401      0.1491
      2  C2        18.7150   61.3960   14.9470 C.ar  401  2T0401      0.0371
      3  C3        20.0810   61.1890   15.1760 C.ar  401  2T0401     -0.0007
      4  C4        20.5280   60.2780   16.1470 C.ar  401  2T0401     -0.0151
      5  C52       19.5730   59.5760   16.8880 C.ar  401  2T0401      0.0295
      6  C6        18.2210   59.7790   16.6610 C.ar  401  2T0401      0.0397
      7  P8        15.2470   60.0030   16.1080 P.3   401  2T0401      0.5887
      8  C9        21.3670   58.3110   18.0420 C.2   401  2T0401      0.0588
      9  C10       20.0180   58.6130   17.9010 C.2   401  2T0401      0.1392
     10  S11       21.5380   57.1860   19.2920 S.3   401  2T0401     -0.0348
     11  C12       19.8750   57.1460   19.5950 C.2   401  2T0401      0.2502
     12  N13       19.1840   57.9640   18.7690 N.2   401  2T0401     -0.3770
     13  N14       19.2940   56.3120   20.6400 N.pl3 401  2T0401     -0.0864
     14  O18       16.3970   60.8690   15.4880 O.3   401  2T0401     -0.3998
     15  C20       22.5100   58.8510   17.2270 C.2   401  2T0401     -0.0123
     16  C21       22.0430   60.0770   16.3760 C.3   401  2T0401      0.0530
     17  O26       15.2700   60.0420   17.6430 O.3   401  2T0401     -0.1039
     18  O27       13.8840   60.5320   15.6340 O.2   401  2T0401     -0.2114
     19  O28       15.3560   58.5130   15.7030 O.3   401  2T0401     -0.1039
@<TRIPOS>BOND
     1     2     3   ar
     2     2     1   ar
     3     3     4   ar
     4    14     1    1
     5    14     7    1
     6    18     7    2
     7     1     6   ar
     8    19     7    1
     9     7    17    1
    10     4    16    1
    11     4     5   ar
    12    16    15    1
    13     6     5   ar
    14     5     9    1
    15    15     8    2
    16     9     8    1
    17     9    12    2
    18     8    10    1
    19    12    11    2
    20    10    11    1
    21    11    13    1
