@<TRIPOS>MOLECULE
3a2b_PLP_A_1.pdb
 15 15 0 0 0
SMALL
GASTEIGER

@<TRIPOS>ATOM
      1  N1        37.0960   10.6130   45.6640 N.ar  400  PLP400     -0.2452
      2  C2        36.3370    9.5800   46.1270 C.ar  400  PLP400      0.0978
      3  C2A       35.0810    9.2600   45.3180 C.3   400  PLP400      0.0555
      4  C3        36.7510    8.9280   47.2540 C.ar  400  PLP400      0.2049
      5  O3        35.9470    7.9040   47.6670 O.3   400  PLP400     -0.2857
      6  C4        37.8940    9.2540   47.9450 C.ar  400  PLP400      0.0182
      7  C4A       38.2970    8.4720   49.2240 C.3   400  PLP400      0.0342
      8  C5        38.6830   10.3200   47.4590 C.ar  400  PLP400      0.0261
      9  C6        38.2290   10.9470   46.3310 C.ar  400  PLP400      0.0965
     10  C5A       39.9790   10.8290   48.0590 C.3   400  PLP400      0.1815
     11  O4P       40.5250    9.9520   48.9820 O.3   400  PLP400     -0.2653
     12  P         42.0080    9.7710   49.3250 P.3   400  PLP400      0.5329
     13  O1P       41.8480    8.7220   50.3460 O.3   400  PLP400     -0.1145
     14  O2P       42.4970   11.0640   49.9000 O.3   400  PLP400     -0.1145
     15  O3P       42.7730    9.3120   48.1860 O.2   400  PLP400     -0.2224
@<TRIPOS>BOND
     1     3     2    1
     2     1     2   ar
     3     1     9   ar
     4     2     4   ar
     5     9     8   ar
     6     4     5    1
     7     4     6   ar
     8     8     6   ar
     9     8    10    1
    10     6     7    1
    11    10    11    1
    12    15    12    2
    13    11    12    1
    14    12    14    1
    15    12    13    1
