@<TRIPOS>MOLECULE
3a2c_PDY_A_1.pdb
 27 30 0 0 0
SMALL
GASTEIGER

@<TRIPOS>ATOM
      1  C25       95.5350  107.9660   96.2340 C.3     1  PDY1        0.0246
      2  C26       94.1760  107.2690   96.1970 C.3     1  PDY1        0.0206
      3  C23       93.8840  106.7100   97.5920 C.3     1  PDY1        0.0888
      4  N12       93.8390  107.7970   98.5850 N.3     1  PDY1       -0.2162
      5  C22       95.1190  108.5270   98.6420 C.3     1  PDY1        0.1102
      6  C15       95.5290  109.0870   97.2730 C.3     1  PDY1        0.1121
      7  N10       96.9100  109.6020   97.2730 N.pl3   1  PDY1       -0.2136
      8  C4        97.1620  110.8930   97.4520 C.2     1  PDY1        0.1804
      9  C3        98.4800  111.3080   97.6290 C.3     1  PDY1        0.1088
     10  C14       99.6050  110.2790   97.4730 C.3     1  PDY1        0.0126
     11  N6        96.1320  111.7330   97.6510 N.2     1  PDY1       -0.3734
     12  C5        96.3240  112.9990   98.0390 C.2     1  PDY1        0.2045
     13  C8        95.4570  113.9990   98.1960 C.2     1  PDY1        0.0686
     14  C11       96.2930  115.2500   98.4600 C.2     1  PDY1        0.1081
     15  N7        97.6480  114.6880   98.3640 N.pl3   1  PDY1       -0.1420
     16  N2        97.6340  113.4620   98.2450 N.pl3   1  PDY1       -0.1748
     17  C1        98.7280  112.5970   98.0830 C.3     1  PDY1        0.1954
     18  N9        99.9160  113.2020   98.0940 N.pl3   1  PDY1       -0.2171
     19  C13      101.0390  112.9950   97.4200 C.ar    1  PDY1        0.0674
     20  C17      102.2430  113.2850   98.0500 C.ar    1  PDY1        0.0193
     21  C20      103.4420  112.8970   97.4630 C.ar    1  PDY1        0.0382
     22  C18      101.0280  112.2960   96.2220 C.ar    1  PDY1        0.0193
     23  C19      102.2240  111.9500   95.6090 C.ar    1  PDY1        0.0382
     24  C16      103.4240  112.2440   96.2380 C.ar    1  PDY1        0.1386
     25  O21      104.5670  111.9090   95.5870 O.3     1  PDY1       -0.4755
     26  C24      105.5580  112.9410   95.5380 C.3     1  PDY1        0.2055
     27  C27      106.6030  112.3460   94.5920 C.3     1  PDY1        0.0512
@<TRIPOS>BOND
     1    27    26    1
     2    26    25    1
     3    25    24    1
     4    23    22   ar
     5    23    24   ar
     6     2     1    1
     7     2     3    1
     8    22    19   ar
     9     1     6    1
    10    24    21   ar
    11     7     6    1
    12     7     8    1
    13     6     5    1
    14    19    20   ar
    15    19    18    1
    16     8     9    1
    17     8    11    2
    18    21    20   ar
    19    10     9    1
    20     3     4    1
    21     9    17    1
    22    11    12    2
    23    12    13    1
    24    12    16    1
    25    17    18    1
    26    17    16    1
    27    13    14    2
    28    16    15    1
    29    15    14    1
    30     4     5    1
