@<TRIPOS>MOLECULE
3a2g_HEM_A_1.pdb
 43 50 0 0 0
SMALL
GASTEIGER

@<TRIPOS>ATOM
      1  CHA       17.0660   33.5570    3.7910 C.2   154  HEM154      0.0000
      2  CHB       13.9960   34.5630    0.1950 C.2   154  HEM154      0.0000
      3  CHC       11.1220   30.9350    1.6120 C.2   154  HEM154      0.0000
      4  CHD       14.1080   29.9940    5.2990 C.2   154  HEM154      0.0000
      5  C1A       16.5060   34.1350    2.6710 C.ar  154  HEM154      0.0000
      6  C2A       17.0740   35.2100    1.8850 C.ar  154  HEM154      0.0000
      7  C3A       16.2150   35.4830    0.8870 C.ar  154  HEM154      0.0000
      8  C4A       15.0900   34.5930    1.0220 C.ar  154  HEM154      0.0000
      9  CMA       16.3660   36.5290   -0.2400 C.3   154  HEM154      0.0000
     10  CAA       18.4490   35.8600    2.1620 C.3   154  HEM154      0.0000
     11  CBA       19.5140   35.3200    1.1930 C.3   154  HEM154      0.0000
     12  CGA       19.5830   33.8000    1.1690 C.2   154  HEM154      0.0000
     13  O1A       19.9980   33.2150    2.2050 O.co2 154  HEM154      0.0000
     14  O2A       19.2310   33.1930    0.1120 O.co2 154  HEM154      0.0000
     15  C1B       12.9690   33.6490    0.2440 C.2   154  HEM154      0.0000
     16  C2B       11.8790   33.5380   -0.7120 C.2   154  HEM154      0.0000
     17  C3B       11.0820   32.5420   -0.3090 C.2   154  HEM154      0.0000
     18  C4B       11.6520   31.9850    0.9080 C.2   154  HEM154      0.0000
     19  CMB       11.7110   34.4490   -1.9600 C.3   154  HEM154      0.0000
     20  CAB        9.7920   32.0190   -0.9760 C.2   154  HEM154      0.0000
     21  CBB        8.8410   32.8700   -1.3770 C.2   154  HEM154      0.0000
     22  C1C       11.6440   30.4240    2.7790 C.ar  154  HEM154      0.0000
     23  C2C       10.9640   29.5190    3.6750 C.ar  154  HEM154      0.0000
     24  C3C       11.7890   29.2680    4.7010 C.ar  154  HEM154      0.0000
     25  C4C       13.0090   30.0190    4.4700 C.ar  154  HEM154      0.0000
     26  CMC        9.5400   28.9820    3.4240 C.3   154  HEM154      0.0000
     27  CAC       11.5810   28.3740    5.9520 C.2   154  HEM154      0.0000
     28  CBC       10.4820   27.6310    6.1550 C.2   154  HEM154      0.0000
     29  C1D       15.1530   30.8730    5.2530 C.2   154  HEM154      0.0000
     30  C2D       16.1700   30.9750    6.2620 C.2   154  HEM154      0.0000
     31  C3D       17.0720   32.0930    5.7950 C.2   154  HEM154      0.0000
     32  C4D       16.5200   32.5560    4.5470 C.2   154  HEM154      0.0000
     33  CMD       16.3140   30.1560    7.5640 C.3   154  HEM154      0.0000
     34  CAD       18.3000   32.6620    6.5140 C.3   154  HEM154      0.0000
     35  CBD       17.6950   33.6440    7.5280 C.3   154  HEM154      0.0000
     36  CGD       18.8300   34.2250    8.3270 C.2   154  HEM154      0.0000
     37  O1D       19.2780   33.5380    9.2890 O.co2 154  HEM154      0.0000
     38  O2D       19.2930   35.3420    7.9840 O.co2 154  HEM154      0.0000
     39  NA        15.2940   33.7860    2.1250 N.ar  154  HEM154      0.0000
     40  NB        12.8040   32.6790    1.2080 N.2   154  HEM154      0.0000
     41  NC        12.8990   30.7200    3.2860 N.ar  154  HEM154      0.0000
     42  ND        15.3900   31.8070    4.2490 N.2   154  HEM154      0.0000
     43 FE         14.1470   32.1930    2.6810 Fe    154  HEM154      0.0000
@<TRIPOS>BOND
     1    19    16    1
     2    21    20    2
     3    20    17    1
     4    16    17    2
     5    16    15    1
     6    17    18    1
     7     9     7    1
     8    14    12   ar
     9     2    15    1
    10     2     8    2
    11    15    40    2
    12     7     8   ar
    13     7     6   ar
    14    18    40    1
    15    18     3    2
    16     8    39   ar
    17    12    11    1
    18    12    13   ar
    19    11    10    1
    20    40    43    1
    21     3    22    1
    22     6    10    1
    23     6     5   ar
    24    39     5   ar
    25    39    43    1
    26     5     1    2
    27    43    41    1
    28    43    42    1
    29    22    41   ar
    30    22    23   ar
    31    41    25   ar
    32    26    23    1
    33    23    24   ar
    34     1    32    1
    35    42    32    2
    36    42    29    1
    37    25    24   ar
    38    25     4    1
    39    32    31    1
    40    24    27    1
    41    29     4    2
    42    29    30    1
    43    31    30    2
    44    31    34    1
    45    27    28    2
    46    30    33    1
    47    34    35    1
    48    35    36    1
    49    38    36   ar
    50    36    37   ar
