@<TRIPOS>MOLECULE
3a2h_TEJ_A_1.pdb
 31 34 0 0 0
SMALL
GASTEIGER

@<TRIPOS>ATOM
      1  O21        5.7660   -0.9820   11.5000 O.2     1  TEJ1       -0.2453
      2  C17        5.8400    0.1210   12.0330 C.2     1  TEJ1        0.3372
      3  C18        5.0490    1.1860   11.8160 C.2     1  TEJ1        0.0570
      4  C20        4.0400    1.2800   10.9540 C.2     1  TEJ1        0.0021
      5  C19        5.4620    2.3330   12.7040 C.3     1  TEJ1        0.0765
      6  C15        6.5880    1.7150   13.5470 C.3     1  TEJ1        0.1737
      7  O16        6.8770    0.4040   13.0150 O.3     1  TEJ1       -0.4491
      8  C12        7.7980    2.6280   13.4600 C.3     1  TEJ1        0.0440
      9  C10        8.6230    2.7760   14.7470 C.3     1  TEJ1        0.0036
     10  C11        7.8170    2.9890   16.0270 C.3     1  TEJ1        0.0001
     11  C7         9.7270    3.8570   14.6960 C.3     1  TEJ1        0.0004
     12  C8        11.1060    3.2350   14.4200 C.3     1  TEJ1        0.0003
     13  C9        11.9880    4.3870   13.9440 C.3     1  TEJ1        0.0040
     14  C5        11.0570    5.6010   14.0580 C.3     1  TEJ1        0.0183
     15  C6         9.6470    5.0950   13.7780 C.3     1  TEJ1        0.0034
     16  C22        9.4260    4.7720   12.2830 C.3     1  TEJ1        0.0003
     17  C4        11.3370    6.8030   13.2050 C.2     1  TEJ1       -0.0446
     18  C3        10.4080    7.9850   13.4560 C.3     1  TEJ1        0.0220
     19  C2         8.9290    7.5450   13.4860 C.3     1  TEJ1        0.0044
     20  C1         8.6340    6.1850   14.1660 C.3     1  TEJ1        0.0006
     21  C23       12.3210    6.7940   12.2710 C.2     1  TEJ1       -0.0088
     22  C24       12.6360    7.9360   11.4040 C.2     1  TEJ1       -0.0051
     23  C25       13.1500    7.8550   10.1610 C.2     1  TEJ1       -0.0213
     24  C26       13.4270    9.1270    9.4120 C.3     1  TEJ1        0.0591
     25  C27       14.8390    9.0880    8.8080 C.3     1  TEJ1        0.1592
     26  O34       15.8260    9.1640    9.8360 O.3     1  TEJ1       -0.2227
     27  C73       15.1080    7.8120    8.0150 C.3     1  TEJ1        0.0707
     28  C29       14.8430    6.5300    8.8020 C.3     1  TEJ1        0.1765
     29  O32       14.9020    5.4500    7.8680 O.3     1  TEJ1       -0.2182
     30  C30       13.4930    6.6070    9.4680 C.2     1  TEJ1        0.0039
     31  C31       12.6270    5.5980    9.3820 C.2     1  TEJ1       -0.0024
@<TRIPOS>BOND
     1    29    28    1
     2    27    28    1
     3    27    25    1
     4    28    30    1
     5    25    24    1
     6    25    26    1
     7    31    30    2
     8    24    23    1
     9    30    23    1
    10    23    22    2
    11     4     3    2
    12    22    21    1
    13     1     2    2
    14     3     2    1
    15     3     5    1
    16     2     7    1
    17    21    17    2
    18    16    15    1
    19     5     6    1
    20     7     6    1
    21    17    18    1
    22    17    14    1
    23    18    19    1
    24     8     6    1
    25     8     9    1
    26    19    20    1
    27    15    14    1
    28    15    20    1
    29    15    11    1
    30    13    14    1
    31    13    12    1
    32    12    11    1
    33    11     9    1
    34     9    10    1
