@<TRIPOS>MOLECULE
3a2i_TEJ_A_1.pdb
 31 34 0 0 0
SMALL
GASTEIGER

@<TRIPOS>ATOM
      1  O21        4.5450   -0.8710  -31.1670 O.2     1  TEJ1       -0.2453
      2  C17        5.6290   -0.6490  -31.6920 C.2     1  TEJ1        0.3372
      3  C18        5.9500   -0.9460  -32.9390 C.2     1  TEJ1        0.0570
      4  C20        5.1510   -1.5320  -33.8150 C.2     1  TEJ1        0.0021
      5  C19        7.3590   -0.5220  -33.2420 C.3     1  TEJ1        0.0765
      6  C15        7.8080    0.1170  -31.9250 C.3     1  TEJ1        0.1737
      7  O16        6.7270    0.0000  -30.9920 O.3     1  TEJ1       -0.4491
      8  C12        9.0210   -0.6350  -31.4000 C.3     1  TEJ1        0.0440
      9  C10       10.2020    0.2350  -30.9520 C.3     1  TEJ1        0.0036
     10  C11       10.2620    1.6070  -31.6240 C.3     1  TEJ1        0.0001
     11  C7        11.5850   -0.4470  -31.0440 C.3     1  TEJ1        0.0004
     12  C8        11.9690   -1.1550  -29.7360 C.3     1  TEJ1        0.0003
     13  C9        13.0140   -2.2090  -30.1110 C.3     1  TEJ1        0.0040
     14  C5        13.2600   -1.9570  -31.5970 C.3     1  TEJ1        0.0183
     15  C6        11.9480   -1.4410  -32.1750 C.3     1  TEJ1        0.0034
     16  C22       10.8920   -2.5410  -32.3780 C.3     1  TEJ1        0.0003
     17  C4        13.8360   -3.0550  -32.4450 C.2     1  TEJ1       -0.0446
     18  C3        14.1170   -2.7000  -33.8920 C.3     1  TEJ1        0.0220
     19  C2        13.0210   -1.7990  -34.4850 C.3     1  TEJ1        0.0044
     20  C1        12.3030   -0.8200  -33.5300 C.3     1  TEJ1        0.0006
     21  C23       14.0860   -4.2680  -31.9230 C.2     1  TEJ1       -0.0088
     22  C24       14.6610   -5.3940  -32.6640 C.2     1  TEJ1       -0.0051
     23  C25       14.4350   -6.6910  -32.3580 C.2     1  TEJ1       -0.0213
     24  C26       15.1120   -7.7470  -33.2050 C.3     1  TEJ1        0.0591
     25  C27       15.7130   -8.8180  -32.2880 C.3     1  TEJ1        0.1592
     26  O34       16.7500   -8.2490  -31.4810 O.3     1  TEJ1       -0.2227
     27  C73       14.6510   -9.3890  -31.3540 C.3     1  TEJ1        0.0707
     28  C29       14.0760   -8.3240  -30.4240 C.3     1  TEJ1        0.1765
     29  O32       13.0180   -8.9250  -29.6730 O.3     1  TEJ1       -0.2182
     30  C30       13.5830   -7.1610  -31.2490 C.2     1  TEJ1        0.0039
     31  C31       12.4060   -6.6130  -30.9890 C.2     1  TEJ1       -0.0024
@<TRIPOS>BOND
     1    19    18    1
     2    19    20    1
     3    18    17    1
     4     4     3    2
     5    20    15    1
     6     5     3    1
     7     5     6    1
     8    24    23    1
     9    24    25    1
    10     3     2    1
    11    22    23    2
    12    22    21    1
    13    17    21    2
    14    17    14    1
    15    16    15    1
    16    23    30    1
    17    25    26    1
    18    25    27    1
    19    15    14    1
    20    15    11    1
    21     6     8    1
    22     6     7    1
    23     2     1    2
    24     2     7    1
    25    10     9    1
    26    14    13    1
    27     8     9    1
    28    27    28    1
    29    30    31    2
    30    30    28    1
    31    11     9    1
    32    11    12    1
    33    28    29    1
    34    13    12    1
