@<TRIPOS>MOLECULE
3a2j_TEJ_A_1.pdb
 31 34 0 0 0
SMALL
GASTEIGER

@<TRIPOS>ATOM
      1  O21        4.5650   -2.2370  -31.8770 O.2     1  TEJ1       -0.2453
      2  C17        5.5630   -1.6510  -32.2680 C.2     1  TEJ1        0.3372
      3  C18        5.9680   -1.5750  -33.5240 C.2     1  TEJ1        0.0570
      4  C20        5.2770   -1.9830  -34.5720 C.2     1  TEJ1        0.0021
      5  C19        7.3290   -0.9390  -33.6050 C.3     1  TEJ1        0.0765
      6  C15        7.5740   -0.4980  -32.1570 C.3     1  TEJ1        0.1737
      7  O16        6.4660   -0.9540  -31.3710 O.3     1  TEJ1       -0.4491
      8  C12        8.8470   -1.1520  -31.6410 C.3     1  TEJ1        0.0440
      9  C10        9.9250   -0.2110  -31.0860 C.3     1  TEJ1        0.0036
     10  C11        9.8200    1.2220  -31.6090 C.3     1  TEJ1        0.0001
     11  C7        11.3770   -0.7230  -31.2290 C.3     1  TEJ1        0.0004
     12  C8        11.8880   -1.3340  -29.9150 C.3     1  TEJ1        0.0003
     13  C9        13.0110   -2.3050  -30.2800 C.3     1  TEJ1        0.0040
     14  C5        13.1760   -2.0950  -31.7830 C.3     1  TEJ1        0.0183
     15  C6        11.8040   -1.7170  -32.3330 C.3     1  TEJ1        0.0034
     16  C22       10.8610   -2.9290  -32.4690 C.3     1  TEJ1        0.0003
     17  C4        13.7990   -3.1810  -32.6180 C.2     1  TEJ1       -0.0446
     18  C3        14.0340   -2.8070  -34.0710 C.3     1  TEJ1        0.0220
     19  C2        12.8370   -2.0360  -34.6670 C.3     1  TEJ1        0.0044
     20  C1        12.0490   -1.1040  -33.7180 C.3     1  TEJ1        0.0006
     21  C23       14.1050   -4.3830  -32.0890 C.2     1  TEJ1       -0.0088
     22  C24       14.7220   -5.5010  -32.8140 C.2     1  TEJ1       -0.0051
     23  C25       14.5080   -6.8060  -32.5240 C.2     1  TEJ1       -0.0213
     24  C26       15.2260   -7.8630  -33.3350 C.3     1  TEJ1        0.0591
     25  C27       15.8390   -8.9080  -32.3920 C.3     1  TEJ1        0.1592
     26  O34       16.9160   -8.3200  -31.6490 O.3     1  TEJ1       -0.2227
     27  C73       14.8020   -9.4640  -31.4080 C.3     1  TEJ1        0.0707
     28  C29       14.1650   -8.3700  -30.5500 C.3     1  TEJ1        0.1765
     29  O32       13.1250   -8.9410  -29.7480 O.3     1  TEJ1       -0.2182
     30  C30       13.6240   -7.3020  -31.4590 C.2     1  TEJ1        0.0039
     31  C31       12.3840   -6.8690  -31.3170 C.2     1  TEJ1       -0.0024
@<TRIPOS>BOND
     1    19    18    1
     2    19    20    1
     3     4     3    2
     4    18    17    1
     5    20    15    1
     6     5     3    1
     7     5     6    1
     8     3     2    1
     9    24    23    1
    10    24    25    1
    11    22    23    2
    12    22    21    1
    13    17    21    2
    14    17    14    1
    15    23    30    1
    16    16    15    1
    17    25    26    1
    18    25    27    1
    19    15    14    1
    20    15    11    1
    21     2     1    2
    22     2     7    1
    23     6     8    1
    24     6     7    1
    25    14    13    1
    26     8     9    1
    27    10     9    1
    28    30    31    2
    29    30    28    1
    30    27    28    1
    31    11     9    1
    32    11    12    1
    33    28    29    1
    34    13    12    1
