@<TRIPOS>MOLECULE
3a2s_SUC_X_1.pdb
 23 24 0 0 0
SMALL
GASTEIGER

@<TRIPOS>ATOM
      1  C1        23.7230   16.3130    9.7210 C.3   342  SUC342      0.2713
      2  C2        24.9070   17.2640    9.5350 C.3   342  SUC342      0.2406
      3  C3        25.5670   17.0580    8.1700 C.3   342  SUC342      0.2198
      4  C4        25.8180   15.5730    7.9000 C.3   342  SUC342      0.2144
      5  C5        24.5690   14.7420    8.2010 C.3   342  SUC342      0.1835
      6  C6        24.8780   13.2590    7.9890 C.3   342  SUC342      0.2142
      7  O1        22.7160   16.6060    8.7410 O.3   342  SUC342     -0.3033
      8  O2        24.4570   18.6160    9.6480 O.3   342  SUC342     -0.2149
      9  O3        26.8080   17.7670    8.1270 O.3   342  SUC342     -0.2174
     10  O4        26.1930   15.3920    6.5320 O.3   342  SUC342     -0.2176
     11  O5        24.1660   14.9580    9.5620 O.3   342  SUC342     -0.3256
     12  O6        24.4460   12.8630    6.6840 O.3   342  SUC342     -0.2176
     13  C1'       20.9100   16.3730   10.3520 C.3   342  SUC342      0.2406
     14  C2'       21.5270   15.8700    9.0440 C.3   342  SUC342      0.2516
     15  C3'       20.5340   15.9660    7.8840 C.3   342  SUC342      0.2381
     16  C4'       19.8800   14.5840    7.8490 C.3   342  SUC342      0.2167
     17  C5'       20.5430   13.8350    9.0060 C.3   342  SUC342      0.1835
     18  C6'       20.7440   12.3690    8.6180 C.3   342  SUC342      0.2142
     19  O1'       21.6950   15.9180   11.4570 O.3   342  SUC342     -0.2149
     20  O2'       21.8220   14.4720    9.1470 O.3   342  SUC342     -0.3272
     21  O3'       21.2450   16.1890    6.6640 O.3   342  SUC342     -0.2150
     22  O4'       18.4780   14.7120    8.1040 O.3   342  SUC342     -0.2175
     23  O6'       22.0280   12.2070    8.0110 O.3   342  SUC342     -0.2176
@<TRIPOS>BOND
     1    10     4    1
     2    21    15    1
     3    12     6    1
     4    16    15    1
     5    16    22    1
     6    16    17    1
     7    15    14    1
     8     4     3    1
     9     4     5    1
    10     6     5    1
    11    23    18    1
    12     9     3    1
    13     3     2    1
    14     5    11    1
    15    18    17    1
    16     7    14    1
    17     7     1    1
    18    17    20    1
    19    14    20    1
    20    14    13    1
    21     2     8    1
    22     2     1    1
    23    11     1    1
    24    13    19    1
