@<TRIPOS>MOLECULE
3a2u_ANP_X_1.pdb
 31 33 0 0 0
SMALL
GASTEIGER

@<TRIPOS>ATOM
      1  PG        29.3510   11.9330   10.8250 P.3   342  ANP342      0.4884
      2  O1G       29.8470   11.6220    9.3470 O.2   342  ANP342     -0.2331
      3  O2G       28.2880   11.0170   11.2760 O.3   342  ANP342     -0.1240
      4  O3G       30.6410   11.8810   11.7510 O.3   342  ANP342     -0.1240
      5  PB        27.4620   13.6360   10.0000 P.3   342  ANP342      0.4669
      6  O1B       27.3360   15.0390    9.5080 O.3   342  ANP342     -0.1253
      7  O2B       27.3820   12.5230    9.0160 O.2   342  ANP342     -0.2351
      8  N3B       28.8650   13.5080   10.8190 N.3   342  ANP342     -0.0163
      9  PA        25.2880   14.5360   11.4980 P.3   342  ANP342      0.2220
     10  O1A       26.0140   15.7160   12.0410 O.3   342  ANP342     -0.4370
     11  O2A       24.4000   14.7180   10.3240 O.2   342  ANP342     -0.5170
     12  O3A       26.3790   13.3910   11.1420 O.3   342  ANP342     -0.2360
     13  O5'       24.4590   13.8500   12.6740 O.3   342  ANP342     -0.3111
     14  C5'       25.0950   13.5170   13.9070 C.3   342  ANP342      0.1813
     15  C4'       25.0800   14.6910   14.8890 C.3   342  ANP342      0.1821
     16  O4'       24.8350   14.2150   16.2100 O.3   342  ANP342     -0.3135
     17  C3'       26.4700   15.3240   14.9570 C.3   342  ANP342      0.2184
     18  O3'       26.5110   16.5030   14.1450 O.3   342  ANP342     -0.2174
     19  C2'       26.6120   15.7150   16.4300 C.3   342  ANP342      0.2570
     20  O2'       26.7520   17.1380   16.5350 O.3   342  ANP342     -0.2130
     21  C1'       25.2850   15.2820   17.0530 C.3   342  ANP342      0.3186
     22  N9        25.5140   14.7680   18.4270 N.pl3 342  ANP342     -0.1439
     23  C8        24.6720   14.0640   19.1560 C.3   342  ANP342      0.3377
     24  N7        25.2130   13.7700   20.3250 N.2   342  ANP342     -0.2095
     25  C5        26.4350   14.2870   20.3570 C.2   342  ANP342      0.2526
     26  C6        27.4750   14.3180   21.2860 C.2   342  ANP342      0.4393
     27  N6        27.3180   13.7170   22.4580 N.pl3 342  ANP342      0.2180
     28  N1        28.6090   14.9550   20.9690 N.2   342  ANP342      0.0021
     29  C2        28.7550   15.5470   19.8060 C.3   342  ANP342      0.5254
     30  N3        27.8100   15.5480   18.8980 N.2   342  ANP342     -0.0055
     31  C4        26.6410   14.9390   19.1180 C.2   342  ANP342      0.3518
@<TRIPOS>BOND
     1     7     5    2
     2     2     1    2
     3     6     5    1
     4     5     8    1
     5     5    12    1
     6    11     9    2
     7     8     1    1
     8     1     3    1
     9     1     4    1
    10    12     9    1
    11     9    10    1
    12     9    13    1
    13    13    14    1
    14    14    15    1
    15    18    17    1
    16    15    17    1
    17    15    16    1
    18    17    19    1
    19    16    21    1
    20    19    20    1
    21    19    21    1
    22    21    22    1
    23    22    31    1
    24    22    23    1
    25    30    31    2
    26    30    29    1
    27    31    25    1
    28    23    24    1
    29    29    28    1
    30    24    25    2
    31    25    26    1
    32    28    26    2
    33    26    27    1
