@<TRIPOS>MOLECULE
3a2y_TS5_A_1.pdb
 29 28 0 0 0
SMALL
GASTEIGER

@<TRIPOS>ATOM
      1  N1        40.6050   39.3190  101.9000 N.3   198  TS5198     -0.1208
      2  CA1       40.8430   39.4000  100.4440 C.3   198  TS5198      0.1948
      3  C1        42.1180   40.1600  100.1460 C.2   198  TS5198      0.3819
      4  OE1       42.5080   41.0250  100.8930 O.co2 198  TS5198     -0.2441
      5  OE2       42.8120   39.8760   99.0260 O.co2 198  TS5198     -0.2441
      6  CB1       39.8320   38.7750   99.4790 C.3   198  TS5198      0.0402
      7  CG1       39.3720   39.8810   98.5330 C.3   198  TS5198      0.0889
      8  CD1       38.3920   39.3790   97.5140 C.2   198  TS5198      0.2418
      9  O1        38.7950   38.6840   96.5890 O.2   198  TS5198     -0.2733
     10  N2        37.0780   39.7190   97.6180 N.am  198  TS5198     -0.1968
     11  CA2       36.0860   39.2680   96.6280 C.3   198  TS5198      0.1843
     12  C2        35.8350   40.3910   95.6400 C.2   198  TS5198      0.2626
     13  O2        35.6580   41.5390   96.0450 O.2   198  TS5198     -0.2714
     14  CB2       34.7790   38.8680   97.3210 C.3   198  TS5198      0.0997
     15  SG2       34.8510   37.1060   97.7470 S.3   198  TS5198     -0.0797
     16  N3        35.8150   40.1110   94.3100 N.am  198  TS5198     -0.1940
     17  CA3       35.8340   41.1810   93.3020 C.3   198  TS5198      0.2014
     18  C3        35.8110   40.5940   91.9120 C.2   198  TS5198      0.2635
     19  O3        36.4610   39.5840   91.6690 O.2   198  TS5198     -0.2714
     20  N1'       35.0800   41.2110   90.9460 N.am  198  TS5198     -0.2039
     21  C1'       34.8070   40.5620   89.6610 C.3   198  TS5198      0.1167
     22  C2'       33.3000   40.4380   89.4650 C.3   198  TS5198      0.0422
     23  N2'       31.4750   38.8560   89.1520 N.3   198  TS5198     -0.2180
     24  C3'       32.9220   38.9660   89.3490 C.3   198  TS5198      0.0905
     25  C4'       31.1770   37.4260   89.0450 C.3   198  TS5198      0.0887
     26  C5'       29.6760   37.2310   88.8320 C.3   198  TS5198      0.0203
     27  C6'       29.3720   35.7360   88.7200 C.3   198  TS5198      0.0220
     28  C7'       27.8730   35.5270   88.5050 C.3   198  TS5198      0.1094
     29  N3'       27.5920   34.0890   88.3980 N.3   198  TS5198     -0.1314
@<TRIPOS>BOND
     1    29    28    1
     2    28    27    1
     3    27    26    1
     4    26    25    1
     5    25    23    1
     6    23    24    1
     7    24    22    1
     8    22    21    1
     9    21    20    1
    10    20    18   am
    11    19    18    2
    12    18    17    1
    13    17    16    1
    14    16    12   am
    15    12    13    2
    16    12    11    1
    17     9     8    2
    18    11    14    1
    19    11    10    1
    20    14    15    1
    21     8    10   am
    22     8     7    1
    23     7     6    1
    24     5     3   ar
    25     6     2    1
    26     3     2    1
    27     3     4   ar
    28     2     1    1
