@<TRIPOS>MOLECULE
3a34_ARG_A_1.pdb
 12 11 0 0 0
SMALL
GASTEIGER

@<TRIPOS>ATOM
      1  N        -24.0550  -12.2940    1.9350 N.3   130  ARG130     -0.1208
      2  CA       -25.0580  -11.8840    0.9470 C.3   130  ARG130      0.1944
      3  C        -24.9430  -12.5160   -0.4570 C.2   130  ARG130      0.3819
      4  O        -25.6140  -12.0950   -1.3450 O.co2 130  ARG130     -0.2441
      5  CB       -25.3300  -10.3780    0.9630 C.3   130  ARG130      0.0343
      6  CG       -26.4410   -9.7740    0.0690 C.3   130  ARG130      0.0490
      7  CD       -26.1530   -8.2700   -0.3340 C.3   130  ARG130      0.2205
      8  NE       -26.1410   -7.9580   -1.8270 N.pl3 130  ARG130     -0.0865
      9  CZ       -26.1910   -6.6900   -2.3400 C.cat 130  ARG130      0.5346
     10  NH1      -26.2430   -6.4200   -3.6500 N.pl3 130  ARG130      0.1354
     11  NH2      -26.2550   -5.6840   -1.5190 N.pl3 130  ARG130      0.1354
     12  OXT      -24.1670  -13.4480   -0.6670 O.co2 130  ARG130     -0.2441
@<TRIPOS>BOND
     1    10     9    1
     2     9     8    2
     3     9    11    1
     4     8     7    1
     5     4     3   ar
     6    12     3   ar
     7     3     2    1
     8     7     6    1
     9     6     5    1
    10     2     5    1
    11     2     1    1
