@<TRIPOS>MOLECULE
3a35_RBF_A_1.pdb
 27 29 0 0 0
SMALL
GASTEIGER

@<TRIPOS>ATOM
      1  N1        13.8970    3.8880   20.3290 N.2   191  RBF191     -0.2887
      2  C2        12.7540    4.1560   19.6640 C.1   191  RBF191      0.3669
      3  O2        11.7420    3.3960   19.7720 O.2   191  RBF191     -0.1744
      4  N3        12.5750    5.2930   18.8840 N.2   191  RBF191     -0.2300
      5  C4        13.6120    6.2480   18.7490 C.1   191  RBF191      0.2513
      6  O4        13.3980    7.2430   18.0450 O.2   191  RBF191     -0.2057
      7  C4A       14.8150    5.8950   19.3890 C.2   191  RBF191      0.2703
      8  N5        15.9370    6.7860   19.1820 N.2   191  RBF191     -0.3882
      9  C5A       17.1230    6.4490   19.8330 C.2   191  RBF191      0.1277
     10  C6        18.2330    7.2420   19.5260 C.3   191  RBF191      0.0820
     11  C7        19.4400    6.8570   20.1740 C.2   191  RBF191     -0.0408
     12  C7M       20.6780    7.7140   19.7790 C.3   191  RBF191      0.0265
     13  C8        19.5400    5.8220   21.0530 C.2   191  RBF191     -0.0280
     14  C8M       20.8250    5.5500   21.7140 C.3   191  RBF191      0.0304
     15  C9        18.3810    5.0300   21.3690 C.2   191  RBF191      0.0123
     16  C9A       17.1970    5.3030   20.6770 C.2   191  RBF191      0.0793
     17  N10       16.0430    4.4720   20.8750 N.pl3 191  RBF191     -0.2545
     18  C10       14.9120    4.7700   20.1600 C.2   191  RBF191      0.2449
     19  C1'       16.0840    3.2820   21.6200 C.3   191  RBF191      0.1336
     20  C2'       15.4450    3.3390   22.9930 C.3   191  RBF191      0.2048
     21  O2'       16.0530    4.4320   23.7590 O.3   191  RBF191     -0.2185
     22  C3'       15.6490    2.1170   23.7220 C.3   191  RBF191      0.2166
     23  O3'       15.0270    1.0450   22.8290 O.3   191  RBF191     -0.2175
     24  C4'       14.8170    2.0060   25.0110 C.3   191  RBF191      0.2175
     25  O4'       15.3840    2.8830   26.0100 O.3   191  RBF191     -0.2175
     26  C5'       14.8150    0.5840   25.5870 C.3   191  RBF191      0.2175
     27  O5'       13.9450    0.4520   26.7120 O.3   191  RBF191     -0.2175
@<TRIPOS>BOND
     1     6     5    2
     2     5     4    2
     3     5     7    1
     4     4     2    2
     5     8     7    2
     6     8     9    2
     7     7    18    1
     8    10     9    1
     9    10    11    1
    10     2     3    2
    11     2     1    2
    12    12    11    1
    13     9    16    1
    14    18     1    2
    15    18    17    1
    16    11    13    2
    17    16    17    1
    18    16    15    2
    19    17    19    1
    20    13    15    1
    21    13    14    1
    22    19    20    1
    23    23    22    1
    24    20    22    1
    25    20    21    1
    26    22    24    1
    27    24    26    1
    28    24    25    1
    29    26    27    1
