@<TRIPOS>MOLECULE
3a37_ADP_A_1.pdb
 27 29 0 0 0
SMALL
GASTEIGER

@<TRIPOS>ATOM
      1  PB        -4.3140   43.4590   32.2680 P.3   400  ADP400      0.5373
      2  O1B       -3.8200   43.4480   30.8770 O.2   400  ADP400     -0.2221
      3  O2B       -3.1120   43.4190   33.3120 O.3   400  ADP400     -0.1143
      4  O3B       -5.2430   42.2760   32.5170 O.3   400  ADP400     -0.1143
      5  PA        -5.1490   45.6630   33.8070 P.3   400  ADP400      0.2231
      6  O1A       -5.4610   44.7750   34.9380 O.3   400  ADP400     -0.4370
      7  O2A       -6.2020   46.6550   33.6100 O.2   400  ADP400     -0.5169
      8  O3A       -4.9670   44.8020   32.5510 O.3   400  ADP400     -0.2261
      9  O5'       -3.6930   46.2990   34.0310 O.3   400  ADP400     -0.3111
     10  C5'       -3.3230   47.6430   33.6610 C.3   400  ADP400      0.1813
     11  C4'       -3.2490   48.6440   34.8680 C.3   400  ADP400      0.1821
     12  O4'       -3.4260   49.9200   34.2780 O.3   400  ADP400     -0.3135
     13  C3'       -4.3450   48.4840   35.9040 C.3   400  ADP400      0.2184
     14  O3'       -3.8080   48.2510   37.2160 O.3   400  ADP400     -0.2174
     15  C2'       -5.2040   49.7200   35.8610 C.3   400  ADP400      0.2570
     16  O2'       -5.3980   50.3220   37.1440 O.3   400  ADP400     -0.2130
     17  C1'       -4.5430   50.6350   34.7850 C.3   400  ADP400      0.3186
     18  N9        -5.4080   50.9240   33.5680 N.pl3 400  ADP400     -0.1439
     19  C8        -6.0030   50.0020   32.7940 C.3   400  ADP400      0.3377
     20  N7        -6.6840   50.5620   31.8170 N.2   400  ADP400     -0.2095
     21  C5        -6.5560   51.8310   31.9230 C.2   400  ADP400      0.2526
     22  C6        -7.0510   52.9750   31.1760 C.2   400  ADP400      0.4393
     23  N6        -7.8360   52.8140   30.0960 N.pl3 400  ADP400      0.2180
     24  N1        -6.6970   54.2690   31.5940 N.2   400  ADP400      0.0021
     25  C2        -5.8790   54.4900   32.7150 C.3   400  ADP400      0.5254
     26  N3        -5.4070   53.3760   33.4310 N.2   400  ADP400     -0.0055
     27  C4        -5.7190   52.0860   33.0750 C.2   400  ADP400      0.3518
@<TRIPOS>BOND
     1    23    22    1
     2     2     1    2
     3    22    24    2
     4    22    21    1
     5    24    25    1
     6    20    21    2
     7    20    19    1
     8    21    27    1
     9     1     4    1
    10     1     8    1
    11     1     3    1
    12     8     5    1
    13    25    26    1
    14    19    18    1
    15    27    26    2
    16    27    18    1
    17    18    17    1
    18     7     5    2
    19    10     9    1
    20    10    11    1
    21     5     9    1
    22     5     6    1
    23    12    17    1
    24    12    11    1
    25    17    15    1
    26    11    13    1
    27    15    13    1
    28    15    16    1
    29    13    14    1
