@<TRIPOS>MOLECULE
3a3b_FMN_B_1.pdb
 31 33 0 0 0
SMALL
GASTEIGER

@<TRIPOS>ATOM
      1  N1         3.9400  -11.9200   35.7630 N.2   191  FMN191     -0.2887
      2  C2         4.7830  -12.3830   34.8200 C.1   191  FMN191      0.3669
      3  O2         5.1990  -13.5200   34.8960 O.2   191  FMN191     -0.1744
      4  N3         5.1690  -11.5510   33.7930 N.2   191  FMN191     -0.2300
      5  C4         4.6750  -10.2790   33.6940 C.1   191  FMN191      0.2513
      6  O4         4.8440   -9.6880   32.6170 O.2   191  FMN191     -0.2057
      7  C4A        3.8140   -9.8090   34.6730 C.2   191  FMN191      0.2706
      8  N5         3.3120   -8.5270   34.6740 N.2   191  FMN191     -0.3841
      9  C5A        2.4320   -8.1410   35.6780 C.2   191  FMN191      0.1452
     10  C6         1.9430   -6.8470   35.6770 C.2   191  FMN191      0.0252
     11  C7         1.0760   -6.3650   36.6520 C.2   191  FMN191     -0.0375
     12  C7M        0.8650   -4.8670   36.7700 C.3   191  FMN191      0.0268
     13  C8         0.7100   -7.2200   37.6850 C.3   191  FMN191      0.0417
     14  C8M       -0.1430   -6.6760   38.8060 C.3   191  FMN191      0.0091
     15  C9         1.2060   -8.5400   37.7220 C.2   191  FMN191     -0.0049
     16  C9A        2.0710   -9.0050   36.7020 C.2   191  FMN191      0.0795
     17  N10        2.6020  -10.2660   36.7190 N.pl3 191  FMN191     -0.2545
     18  C10        3.4470  -10.6600   35.7160 C.2   191  FMN191      0.2449
     19  C1'        2.2740  -11.2780   37.7980 C.3   191  FMN191      0.1336
     20  C2'        1.1440  -12.2510   37.3820 C.3   191  FMN191      0.2048
     21  O2'       -0.0440  -11.5460   37.0970 O.3   191  FMN191     -0.2185
     22  C3'        0.8950  -13.1620   38.5850 C.3   191  FMN191      0.2165
     23  O3'        2.1250  -13.8070   38.8450 O.3   191  FMN191     -0.2175
     24  C4'       -0.2170  -14.2200   38.4070 C.3   191  FMN191      0.2147
     25  O4'       -1.4230  -13.6640   37.9980 O.3   191  FMN191     -0.2176
     26  C5'       -0.7870  -14.5190   39.7800 C.3   191  FMN191      0.1892
     27  O5'       -0.0940  -15.5500   40.3220 O.3   191  FMN191     -0.2674
     28  P          0.7870  -15.3610   41.6920 P.3   191  FMN191      0.5327
     29  O1P        0.9690  -16.8290   41.9920 O.3   191  FMN191     -0.1145
     30  O2P        0.1170  -14.5700   42.8100 O.3   191  FMN191     -0.1145
     31  O3P        2.0930  -14.6820   41.3150 O.2   191  FMN191     -0.2224
@<TRIPOS>BOND
     1     6     5    2
     2     5     4    2
     3     5     7    1
     4     4     2    2
     5     7     8    2
     6     7    18    1
     7     8     9    2
     8     2     3    2
     9     2     1    2
    10    10     9    1
    11    10    11    2
    12     9    16    1
    13    18     1    2
    14    18    17    1
    15    11    12    1
    16    11    13    1
    17    16    17    1
    18    16    15    2
    19    17    19    1
    20    21    20    1
    21    20    19    1
    22    20    22    1
    23    13    15    1
    24    13    14    1
    25    25    24    1
    26    24    22    1
    27    24    26    1
    28    22    23    1
    29    26    27    1
    30    27    28    1
    31    31    28    2
    32    28    29    1
    33    28    30    1
