@<TRIPOS>MOLECULE
3a3b_RBF_A_1.pdb
 27 29 0 0 0
SMALL
GASTEIGER

@<TRIPOS>ATOM
      1  N1       -15.9470   -2.5630   20.1080 N.2   191  RBF191     -0.2890
      2  C2       -16.2200   -1.4100   20.7480 C.1   191  RBF191      0.3669
      3  O2       -15.3950   -0.4650   20.6470 O.2   191  RBF191     -0.1744
      4  N3       -17.3240   -1.2700   21.4820 N.2   191  RBF191     -0.2300
      5  C4       -18.2130   -2.2620   21.6110 C.1   191  RBF191      0.2513
      6  O4       -19.2550   -2.1090   22.2810 O.2   191  RBF191     -0.2057
      7  C4A      -17.9600   -3.5660   20.9630 C.2   191  RBF191      0.2700
      8  N5       -18.8080   -4.6300   21.0710 N.2   191  RBF191     -0.3878
      9  C5A      -18.5360   -5.8170   20.4200 C.2   191  RBF191      0.1320
     10  C6       -19.3900   -6.9080   20.5460 C.2   191  RBF191      0.0250
     11  C7       -19.1020   -8.1140   19.8930 C.2   191  RBF191     -0.0238
     12  C7M      -20.0170   -9.3080   20.0780 C.3   191  RBF191      0.0308
     13  C8       -17.8810   -8.2330   19.0710 C.2   191  RBF191     -0.0280
     14  C8M      -17.5180   -9.5510   18.3870 C.3   191  RBF191      0.0304
     15  C9       -17.0240   -7.1520   18.9530 C.2   191  RBF191     -0.0041
     16  C9A      -17.3030   -5.9370   19.6120 C.3   191  RBF191      0.1497
     17  N10      -16.4210   -4.8180   19.5090 N.pl3 191  RBF191     -0.2691
     18  C10      -16.7560   -3.6310   20.1610 C.2   191  RBF191      0.2416
     19  C1'      -15.1630   -4.8260   18.7160 C.3   191  RBF191      0.1294
     20  C2'      -15.3040   -4.0930   17.3830 C.3   191  RBF191      0.2044
     21  O2'      -16.3750   -4.6520   16.5990 O.3   191  RBF191     -0.2185
     22  C3'      -13.9950   -4.2490   16.6260 C.3   191  RBF191      0.2166
     23  O3'      -13.0100   -3.7010   17.4580 O.3   191  RBF191     -0.2175
     24  C4'      -13.9220   -3.4850   15.3290 C.3   191  RBF191      0.2175
     25  O4'      -14.8200   -4.0540   14.4180 O.3   191  RBF191     -0.2175
     26  C5'      -12.5590   -3.6940   14.7140 C.3   191  RBF191      0.2175
     27  O5'      -12.4040   -2.7000   13.7320 O.3   191  RBF191     -0.2175
@<TRIPOS>BOND
     1    27    26    1
     2    25    24    1
     3    26    24    1
     4    24    22    1
     5    21    20    1
     6    22    20    1
     7    22    23    1
     8    20    19    1
     9    14    13    1
    10    19    17    1
    11    15    13    2
    12    15    16    1
    13    13    11    1
    14    17    16    1
    15    17    18    1
    16    16     9    1
    17    11    12    1
    18    11    10    2
    19     1    18    2
    20     1     2    2
    21    18     7    1
    22     9    10    1
    23     9     8    2
    24     3     2    2
    25     2     4    2
    26     7     8    2
    27     7     5    1
    28     4     5    2
    29     5     6    2
