@<TRIPOS>MOLECULE
3a3c_MAL_A_1.pdb
 23 24 0 0 0
SMALL
GASTEIGER

@<TRIPOS>ATOM
      1  C1         1.3110    1.4070  -20.7940 C.3   466  MAL466      0.2695
      2  C2         1.9870    2.0520  -22.0140 C.3   466  MAL466      0.2406
      3  C3         2.2560    3.5230  -21.8000 C.3   466  MAL466      0.2198
      4  C4         0.9190    4.2140  -21.4770 C.3   466  MAL466      0.2144
      5  C5         0.3820    3.5650  -20.1710 C.3   466  MAL466      0.1835
      6  C6        -0.9380    4.2100  -19.7450 C.3   466  MAL466      0.2142
      7  O1         2.1100    1.0590  -19.6510 O.3   466  MAL466     -0.3257
      8  O2         3.1900    1.3300  -22.3220 O.3   466  MAL466     -0.2149
      9  O3         2.8340    4.0540  -22.9940 O.3   466  MAL466     -0.2174
     10  O4         1.1630    5.6000  -21.2710 O.3   466  MAL466     -0.2176
     11  O5         0.1200    2.1550  -20.3890 O.3   466  MAL466     -0.3256
     12  O6        -1.3840    3.5790  -18.5390 O.3   466  MAL466     -0.2176
     13  C1'        1.1100   -2.5980  -17.7860 C.3   466  MAL466      0.3023
     14  C2'        1.2270   -2.5950  -19.3100 C.3   466  MAL466      0.2433
     15  C3'        2.0980   -1.4000  -19.7310 C.3   466  MAL466      0.2168
     16  C4'        1.3870   -0.1190  -19.2280 C.3   466  MAL466      0.1804
     17  C5'        1.2650   -0.2070  -17.6750 C.3   466  MAL466      0.1804
     18  C6'        0.5580    1.0150  -17.0990 C.3   466  MAL466      0.2141
     19  O1'        2.4100   -2.6800  -17.2670 O.3   466  MAL466     -0.1869
     20  O2'        1.8360   -3.8130  -19.7460 O.3   466  MAL466     -0.2148
     21  O3'        2.2310   -1.3770  -21.1530 O.3   466  MAL466     -0.2175
     22  O5'        0.5010   -1.3890  -17.2920 O.3   466  MAL466     -0.3237
     23  O6'        0.4780    0.8730  -15.6710 O.3   466  MAL466     -0.2176
@<TRIPOS>BOND
     1     9     3    1
     2     8     2    1
     3     2     3    1
     4     2     1    1
     5     3     4    1
     6     4    10    1
     7     4     5    1
     8    21    15    1
     9     1    11    1
    10     1     7    1
    11    11     5    1
    12     5     6    1
    13    20    14    1
    14     6    12    1
    15    15    14    1
    16    15    16    1
    17     7    16    1
    18    14    13    1
    19    16    17    1
    20    13    22    1
    21    13    19    1
    22    17    22    1
    23    17    18    1
    24    18    23    1
