@<TRIPOS>MOLECULE
3a3e_CMV_A_1.pdb
 34 36 0 0 0
SMALL
GASTEIGER

@<TRIPOS>ATOM
      1  C1       -30.1340   -3.8330   35.7800 C.3     1  CMV1        0.0129
      2  C2       -31.5060   -4.3570   33.4930 C.2     1  CMV1        0.3811
      3  C6       -29.4330   -3.2720   34.5250 C.3     1  CMV1        0.0658
      4  C12      -30.0440   -3.9930   33.3130 C.3     1  CMV1        0.1857
      5  C13      -27.8020   -4.9400   33.2460 C.3     1  CMV1        0.1479
      6  C14      -27.1390   -4.8670   31.8060 C.3     1  CMV1        0.1856
      7  C15      -28.0170   -5.6100   30.8460 C.2     1  CMV1        0.2311
      8  C16      -29.6860   -1.7590   34.6020 C.3     1  CMV1        0.0129
      9  O1       -31.8870   -5.5290   33.9040 O.co2   1  CMV1       -0.2441
     10  O2       -32.3300   -3.4690   33.1610 O.co2   1  CMV1       -0.2441
     11  N3       -29.2050   -5.1480   33.0390 N.3     1  CMV1       -0.1957
     12  S1       -27.7670   -3.6020   34.3140 S.3     1  CMV1       -0.1212
     13  O4       -28.8400   -5.0800   30.1140 O.2     1  CMV1       -0.2863
     14  N1       -27.0050   -3.4770   31.3610 N.am    1  CMV1       -0.1953
     15  CAL      -25.9510   -2.7210   31.5980 C.2     1  CMV1        0.2637
     16  OAV      -24.9820   -3.1030   32.2000 O.2     1  CMV1       -0.2714
     17  CAM      -26.1160   -1.3270   31.1250 C.3     1  CMV1        0.1936
     18  CAW      -26.5620   -0.4140   32.1480 C.ar    1  CMV1        0.0041
     19  CBD      -25.8260   -0.2650   33.3210 C.ar    1  CMV1       -0.0024
     20  CBG      -26.2950    0.6510   34.2440 C.ar    1  CMV1       -0.0003
     21  CBH      -27.4390    1.3880   33.9680 C.ar    1  CMV1       -0.0000
     22  CBF      -28.1630    1.2310   32.7870 C.ar    1  CMV1       -0.0003
     23  CBC      -27.7150    0.3070   31.8570 C.ar    1  CMV1       -0.0024
     24  NAN      -25.0910   -0.5890   30.4760 N.3     1  CMV1       -0.1151
     25  NAG      -23.8720   -0.4860   30.5830 N.am    1  CMV1       -0.1973
     26  CAE      -23.5320    0.3030   29.6080 C.2     1  CMV1        0.3172
     27  OAS      -24.5010    0.7670   29.0210 O.2     1  CMV1       -0.2636
     28  CAQ      -22.9410   -1.1490   31.4940 C.3     1  CMV1        0.1349
     29  CAU      -21.8300   -1.6790   30.5910 C.3     1  CMV1        0.1170
     30  NAO      -21.3840   -0.5750   29.7460 N.am    1  CMV1       -0.2705
     31  CAI      -22.2160    0.4110   29.3000 C.2     1  CMV1        0.3043
     32  OAT      -21.8260    1.3710   28.6610 O.2     1  CMV1       -0.2649
     33  CBB      -19.9550   -0.6770   29.4620 C.3     1  CMV1        0.0940
     34  CBE      -19.4710    0.4340   28.5420 C.3     1  CMV1        0.0233
@<TRIPOS>BOND
     1    34    33    1
     2    32    31    2
     3    27    26    2
     4    31    26    1
     5    31    30   am
     6    33    30    1
     7    26    25   am
     8    30    29    1
     9    13     7    2
    10    24    25    1
    11    24    17    1
    12    25    28    1
    13    29    28    1
    14     7     6    1
    15    17    15    1
    16    17    18    1
    17    14    15   am
    18    14     6    1
    19    15    16    2
    20     6     5    1
    21    23    18   ar
    22    23    22   ar
    23    18    19   ar
    24    22    21   ar
    25    11     5    1
    26    11     4    1
    27    10     2   ar
    28     5    12    1
    29     4     2    1
    30     4     3    1
    31    19    20   ar
    32     2     9   ar
    33    21    20   ar
    34    12     3    1
    35     3     8    1
    36     3     1    1
