@<TRIPOS>MOLECULE
3a3f_FMZ_A_1.pdb
 30 32 0 0 0
SMALL
GASTEIGER

@<TRIPOS>ATOM
      1  C14       27.1550    4.9850   31.7380 C.3     1  FMZ1        0.1856
      2  C6        29.2560    3.3490   34.5560 C.3     1  FMZ1        0.0658
      3  C12       29.9330    4.0280   33.3450 C.3     1  FMZ1        0.1857
      4  C13       27.7760    5.1500   33.1860 C.3     1  FMZ1        0.1479
      5  N1        27.0610    3.5880   31.3090 N.am    1  FMZ1       -0.1953
      6  C3        26.0130    2.8600   31.5920 C.2     1  FMZ1        0.2637
      7  N3        29.1970    5.2480   32.9980 N.3     1  FMZ1       -0.1957
      8  O1        31.7770    5.4310   33.9230 O.co2   1  FMZ1       -0.2441
      9  C2        31.3960    4.3290   33.4770 C.2     1  FMZ1        0.3811
     10  O2        32.2290    3.4590   33.1120 O.co2   1  FMZ1       -0.2441
     11  C16       29.3010    1.8340   34.4940 C.3     1  FMZ1        0.0129
     12  C1        29.8660    3.7460   35.9080 C.3     1  FMZ1        0.0129
     13  S1        27.5600    3.8360   34.4160 S.3     1  FMZ1       -0.1212
     14  C15       28.0660    5.7220   30.7950 C.2     1  FMZ1        0.2311
     15  O4        28.9280    5.1320   30.1660 O.2     1  FMZ1       -0.2863
     16  O3        25.0480    3.3280   32.2200 O.2     1  FMZ1       -0.2714
     17  CAK       25.9700    1.4270   31.1050 C.3     1  FMZ1        0.1943
     18  NAL       24.5880    1.2770   30.8590 N.3     1  FMZ1       -0.1077
     19  NAI       23.9580    0.6300   29.9930 N.am    1  FMZ1       -0.1607
     20  CAU       24.5500   -0.2320   29.0170 C.3     1  FMZ1        0.1501
     21  CAV       23.2730   -0.3310   28.0780 C.3     1  FMZ1        0.1630
     22  NAO       22.1440    0.3000   28.7740 N.2     1  FMZ1       -0.1871
     23  CAM       22.6020    0.7920   29.9300 C.1     1  FMZ1        0.2259
     24  OAR       21.8700    1.4550   30.8640 O.2     1  FMZ1       -0.2051
     25  CAS       26.4370    0.4620   32.1130 C.ar    1  FMZ1        0.0041
     26  CAZ       27.6520   -0.1880   31.8740 C.ar    1  FMZ1       -0.0024
     27  CBC       28.1200   -1.1150   32.8110 C.ar    1  FMZ1       -0.0003
     28  CBD       27.3970   -1.3450   33.9880 C.ar    1  FMZ1       -0.0000
     29  CBB       26.1740   -0.6860   34.2330 C.ar    1  FMZ1       -0.0003
     30  CBA       25.6820    0.2310   33.2780 C.ar    1  FMZ1       -0.0024
@<TRIPOS>BOND
     1    21    22    1
     2    21    20    1
     3    22    23    2
     4    20    19    1
     5    23    19   am
     6    23    24    2
     7    19    18    1
     8    15    14    2
     9    14     1    1
    10    18    17    1
    11    17     6    1
    12    17    25    1
    13     5     6   am
    14     5     1    1
    15     6    16    2
    16     1     4    1
    17    26    25   ar
    18    26    27   ar
    19    25    30   ar
    20    27    28   ar
    21     7     4    1
    22     7     3    1
    23    10     9   ar
    24     4    13    1
    25    30    29   ar
    26     3     9    1
    27     3     2    1
    28     9     8   ar
    29    28    29   ar
    30    13     2    1
    31    11     2    1
    32     2    12    1
