@<TRIPOS>MOLECULE
3a3g_DLZ_A_1.pdb
 23 24 0 0 0
SMALL
GASTEIGER

@<TRIPOS>ATOM
      1  C7        16.9280   -7.1680  -18.9030 C.3   191  DLZ191      0.0288
      2  C7A       17.2340   -5.9850  -19.5770 C.3   191  DLZ191      0.1233
      3  C5A       18.3910   -5.9390  -20.3590 C.2   191  DLZ191      0.1061
      4  C6        19.2510   -7.0530  -20.4060 C.3   191  DLZ191      0.0633
      5  N5        18.6720   -4.7660  -21.0920 N.2   191  DLZ191     -0.3925
      6  C4A       17.8330   -3.6160  -21.0200 C.2   191  DLZ191      0.2697
      7  C4        18.1000   -2.3900  -21.6680 C.1   191  DLZ191      0.2513
      8  O4        19.0930   -2.1680  -22.3630 O.2   191  DLZ191     -0.2057
      9  N3        17.1950   -1.3460  -21.5780 N.2   191  DLZ191     -0.2300
     10  C2        16.0540   -1.4750  -20.8320 C.1   191  DLZ191      0.3669
     11  O2        15.2510   -0.5550  -20.7370 O.2   191  DLZ191     -0.1744
     12  N1        15.8060   -2.6450  -20.1740 N.2   191  DLZ191     -0.2890
     13  C8        16.6830   -3.7030  -20.2440 C.2   191  DLZ191      0.2413
     14  N8        16.3540   -4.8550  -19.5600 N.pl3 191  DLZ191     -0.2730
     15  C1'       15.0880   -4.8430  -18.7790 C.3   191  DLZ191      0.1291
     16  C2'       15.2040   -4.0890  -17.4350 C.3   191  DLZ191      0.2044
     17  O2'       16.2440   -4.6500  -16.6010 O.3   191  DLZ191     -0.2185
     18  C3'       13.8760   -4.2620  -16.6970 C.3   191  DLZ191      0.2166
     19  O3'       12.9050   -3.7370  -17.5770 O.3   191  DLZ191     -0.2175
     20  C4'       13.7910   -3.4870  -15.3930 C.3   191  DLZ191      0.2175
     21  O4'       14.6740   -4.0040  -14.3770 O.3   191  DLZ191     -0.2175
     22  C5'       12.3590   -3.5490  -14.8460 C.3   191  DLZ191      0.2175
     23  O5'       12.2890   -2.5380  -13.8390 O.3   191  DLZ191     -0.2175
@<TRIPOS>BOND
     1     8     7    2
     2     7     9    2
     3     7     6    1
     4     9    10    2
     5     5     6    2
     6     5     3    2
     7     6    13    1
     8    10    11    2
     9    10    12    2
    10     4     3    1
    11     3     2    1
    12    13    12    2
    13    13    14    1
    14     2    14    1
    15     2     1    1
    16    14    15    1
    17    15    16    1
    18    19    18    1
    19    16    18    1
    20    16    17    1
    21    18    20    1
    22    20    22    1
    23    20    21    1
    24    22    23    1
