@<TRIPOS>MOLECULE
3a3h_CTR_A_1.pdb
 34 36 0 0 0
SMALL
GASTEIGER

@<TRIPOS>ATOM
      1  C1A       57.6550   50.1760   37.8400 C.3     1  CTR1        0.2695
      2  C2A       57.0370   50.7900   39.0860 C.3     1  CTR1        0.2406
      3  C3A       55.8450   51.6550   38.7140 C.3     1  CTR1        0.2198
      4  C4A       56.3410   52.7080   37.7000 C.3     1  CTR1        0.2144
      5  C5A       56.9910   52.0310   36.5130 C.3     1  CTR1        0.1835
      6  C6A       57.5350   53.0370   35.5330 C.3     1  CTR1        0.2142
      7  O2A       56.6400   49.7190   39.9440 O.3     1  CTR1       -0.2149
      8  O3A       55.3590   52.2680   39.8930 O.3     1  CTR1       -0.2174
      9  O4A       55.2450   53.5030   37.2160 O.3     1  CTR1       -0.2176
     10  O5A       58.1140   51.2390   36.9760 O.3     1  CTR1       -0.3256
     11  O6A       58.3830   53.9630   36.1630 O.3     1  CTR1       -0.2176
     12  C1B       61.2190   46.5210   36.7320 C.3     1  CTR1        0.2696
     13  C2B       61.5670   47.9290   36.3100 C.3     1  CTR1        0.2404
     14  C3B       60.9760   48.8700   37.3710 C.3     1  CTR1        0.2167
     15  C4B       59.4610   48.5930   37.3490 C.3     1  CTR1        0.1804
     16  C5B       59.1800   47.1960   37.7850 C.3     1  CTR1        0.1803
     17  C6B       57.7550   46.7810   37.8580 C.3     1  CTR1        0.2141
     18  O2B       62.9800   47.9990   36.2680 O.3     1  CTR1       -0.2149
     19  O3B       61.2220   50.1890   36.9920 O.3     1  CTR1       -0.2175
     20  O4B       58.7880   49.4580   38.2990 O.3     1  CTR1       -0.3257
     21  O5B       59.8080   46.3240   36.8070 O.3     1  CTR1       -0.3257
     22  O6B       57.1150   46.8340   36.6210 O.3     1  CTR1       -0.2176
     23  C1C       61.9790   41.7970   35.9660 C.2     1  CTR1        0.3505
     24  C2C       60.8620   42.1240   35.1300 C.3     1  CTR1        0.2821
     25  C3C       60.9960   43.6080   34.6730 C.3     1  CTR1        0.2238
     26  C4C       61.3920   44.3270   35.9680 C.3     1  CTR1        0.1936
     27  C5C       62.7340   43.8710   36.4190 C.3     1  CTR1        0.2312
     28  C6C       63.3550   44.6120   37.5740 C.3     1  CTR1        0.2280
     29  O1C       62.9310   40.8040   35.6660 O.2     1  CTR1       -0.2472
     30  O2C       60.6470   41.3070   34.0120 O.3     1  CTR1       -0.2082
     31  O3C       59.7390   44.0010   34.2820 O.3     1  CTR1       -0.2170
     32  O4C       61.6160   45.7270   35.6530 O.3     1  CTR1       -0.3245
     33  O5C       62.4580   42.5820   37.0050 O.3     1  CTR1       -0.4451
     34  O6C       62.8040   43.9860   38.7010 O.3     1  CTR1       -0.2163
@<TRIPOS>BOND
     1    30    24    1
     2    31    25    1
     3    25    24    1
     4    25    26    1
     5    24    23    1
     6     6    11    1
     7     6     5    1
     8    32    26    1
     9    32    12    1
    10    29    23    2
    11    23    33    1
    12    26    27    1
    13    18    13    1
    14    13    12    1
    15    13    14    1
    16    27    33    1
    17    27    28    1
    18     5    10    1
    19     5     4    1
    20    22    17    1
    21    12    21    1
    22    21    16    1
    23    10     1    1
    24    19    14    1
    25     9     4    1
    26    15    14    1
    27    15    16    1
    28    15    20    1
    29    28    34    1
    30     4     3    1
    31    16    17    1
    32     1    20    1
    33     1     2    1
    34     3     2    1
    35     3     8    1
    36     2     7    1
