@<TRIPOS>MOLECULE
3a3i_AIX_A_1.pdb
 24 25 0 0 0
SMALL
GASTEIGER

@<TRIPOS>ATOM
      1  C8        27.6490   -1.2170   32.7460 C.ar  501  AIX501     -0.0003
      2  C5        26.1350    0.5480   31.9400 C.ar  501  AIX501      0.0038
      3  C6        28.9660    3.3320   34.4920 C.3   501  AIX501      0.0658
      4  N1        26.8430    3.6520   31.2060 N.am  501  AIX501     -0.1953
      5  C2        31.0850    4.3290   33.4410 C.2   501  AIX501      0.3811
      6  N3        28.9070    5.2560   33.0590 N.3   501  AIX501     -0.1957
      7  C4        25.7650    1.5200   30.8670 C.3   501  AIX501      0.1915
      8  C1        29.5870    3.7630   35.8590 C.3   501  AIX501      0.0129
      9  C3        25.7640    2.9300   31.3900 C.2   501  AIX501      0.2635
     10  C7        27.2680   -0.2910   31.7570 C.ar  501  AIX501     -0.0024
     11  C9        26.8820   -1.2860   33.9260 C.ar  501  AIX501     -0.0000
     12  C10       25.7530   -0.4690   34.1200 C.ar  501  AIX501     -0.0003
     13  C11       25.3760    0.4650   33.1090 C.ar  501  AIX501     -0.0024
     14  C12       29.6260    4.0180   33.3040 C.3   501  AIX501      0.1857
     15  C13       27.4730    5.2010   33.1150 C.3   501  AIX501      0.1479
     16  C14       26.9600    5.0410   31.6460 C.3   501  AIX501      0.1856
     17  C15       27.9300    5.7800   30.7590 C.2   501  AIX501      0.2311
     18  C16       29.0270    1.8070   34.4200 C.3   501  AIX501      0.0129
     19  N2        24.4060    1.2520   30.3990 N.3   501  AIX501     -0.1182
     20  O1        31.4290    5.4650   33.8350 O.co2 501  AIX501     -0.2441
     21  O2        31.9260    3.4390   33.1320 O.co2 501  AIX501     -0.2441
     22  O3        24.7620    3.3740   31.9690 O.2   501  AIX501     -0.2714
     23  O4        28.8190    5.2510   30.0890 O.2   501  AIX501     -0.2863
     24  S1        27.2730    3.8600   34.2850 S.3   501  AIX501     -0.1212
@<TRIPOS>BOND
     1    23    17    2
     2    19     7    1
     3    17    16    1
     4     7     9    1
     5     7     2    1
     6     4     9   am
     7     4    16    1
     8     9    22    2
     9    16    15    1
    10    10     2   ar
    11    10     1   ar
    12     2    13   ar
    13     1    11   ar
    14     6    15    1
    15     6    14    1
    16    13    12   ar
    17    15    24    1
    18    21     5   ar
    19    14     5    1
    20    14     3    1
    21     5    20   ar
    22    11    12   ar
    23    24     3    1
    24    18     3    1
    25     3     8    1
