@<TRIPOS>MOLECULE
3a3q_NAG_A_1.pdb
 15 15 0 0 0
SMALL
GASTEIGER

@<TRIPOS>ATOM
      1  C1         5.8890   24.8860   26.3580 C.3   202  NAG202      0.2917
      2  C2         4.5870   24.3200   26.8940 C.3   202  NAG202      0.1871
      3  C3         3.9480   25.2600   27.9270 C.3   202  NAG202      0.2095
      4  C4         4.9370   25.9020   28.9110 C.3   202  NAG202      0.2136
      5  C5         6.2780   26.2430   28.2720 C.3   202  NAG202      0.1835
      6  C6         7.3320   26.5160   29.3460 C.3   202  NAG202      0.2142
      7  C7         3.3510   22.8010   25.3680 C.2   202  NAG202      0.2421
      8  C8         2.3160   22.7030   24.2790 C.3   202  NAG202      0.0964
      9  N2         3.6300   24.0300   25.8280 N.am  202  NAG202     -0.1991
     10  O1         6.5360   23.9200   25.5700 O.3   202  NAG202     -0.1879
     11  O3         3.0600   24.4620   28.6560 O.3   202  NAG202     -0.2183
     12  O4         4.4490   27.0960   29.5140 O.3   202  NAG202     -0.2176
     13  O5         6.7340   25.1850   27.4520 O.3   202  NAG202     -0.3242
     14  O6         7.5630   25.3390   30.0980 O.3   202  NAG202     -0.2176
     15  O7         3.8890   21.7680   25.7650 O.2   202  NAG202     -0.2733
@<TRIPOS>BOND
     1     8     7    1
     2     7    15    2
     3     7     9   am
     4    10     1    1
     5     9     2    1
     6     1     2    1
     7     1    13    1
     8     2     3    1
     9    13     5    1
    10     3    11    1
    11     3     4    1
    12     5     4    1
    13     5     6    1
    14     4    12    1
    15     6    14    1
