@<TRIPOS>MOLECULE
3a3u_TLA_A_1.pdb
 10 9 0 0 0
SMALL
GASTEIGER

@<TRIPOS>ATOM
      1  O1        41.5560    0.5980   77.9620 O.co2 401  TLA401     -0.2427
      2  O11       41.3910    2.0480   79.5880 O.co2 401  TLA401     -0.2427
      3  C1        41.9590    1.5910   78.4880 C.2   401  TLA401      0.3979
      4  C2        43.1290    2.3330   77.8990 C.3   401  TLA401      0.2950
      5  O2        43.5820    1.6540   76.7230 O.3   401  TLA401     -0.2075
      6  C3        44.2260    2.3860   78.9390 C.3   401  TLA401      0.2950
      7  O3        44.6080    1.0600   79.3370 O.3   401  TLA401     -0.2075
      8  C4        45.4090    3.1420   78.3990 C.2   401  TLA401      0.3979
      9  O4        46.4810    2.6220   78.3600 O.co2 401  TLA401     -0.2427
     10  O41       45.2460    4.4020   77.9650 O.co2 401  TLA401     -0.2427
@<TRIPOS>BOND
     1     5     4    1
     2     4     3    1
     3     4     6    1
     4     1     3   ar
     5    10     8   ar
     6     9     8   ar
     7     8     6    1
     8     3     2   ar
     9     6     7    1
