@<TRIPOS>MOLECULE
3a3w_EPL_A_1.pdb
 17 17 0 0 0
SMALL
GASTEIGER

@<TRIPOS>ATOM
      1  O1        27.5160   18.6230   -0.5560 O.2   701  EPL701     -0.2152
      2  P         28.3350   19.3740    0.6000 P.3   701  EPL701      0.5346
      3  O2        29.8870   18.9010    0.5530 O.3   701  EPL701     -0.2637
      4  C8        30.8740   19.2760    1.5110 C.3   701  EPL701      0.1548
      5  C9        31.5040   17.9940    1.9940 C.3   701  EPL701      0.0353
      6  O4        28.2920   20.9940    0.5130 O.3   701  EPL701     -0.2637
      7  C10       28.7230   21.7430   -0.6090 C.3   701  EPL701      0.1548
      8  C11       30.1760   22.0500   -0.3750 C.3   701  EPL701      0.0353
      9  O3        27.7560   19.1010    2.0880 O.3   701  EPL701     -0.4025
     10  C4        26.4090   19.0260    2.3760 C.ar  701  EPL701      0.1491
     11  C2        25.7570   17.7980    2.2950 C.ar  701  EPL701      0.0405
     12  C3        24.3940   17.7020    2.5850 C.ar  701  EPL701      0.0400
     13  C1        23.6730   18.8260    2.9890 C.ar  701  EPL701      0.1389
     14  O5        22.3250   18.7400    3.2790 O.3   701  EPL701     -0.4714
     15  C7        21.7620   17.7660    4.1600 C.3   701  EPL701      0.2525
     16  C5        24.3360   20.0500    3.0790 C.ar  701  EPL701      0.0400
     17  C6        25.6950   20.1540    2.7780 C.ar  701  EPL701      0.0405
@<TRIPOS>BOND
     1     7     8    1
     2     7     6    1
     3     1     2    2
     4     6     2    1
     5     3     2    1
     6     3     4    1
     7     2     9    1
     8     4     5    1
     9     9    10    1
    10    11    10   ar
    11    11    12   ar
    12    10    17   ar
    13    12    13   ar
    14    17    16   ar
    15    13    16   ar
    16    13    14    1
    17    14    15    1
