@<TRIPOS>MOLECULE
3a3y_OBN_A_1.pdb
 41 46 0 0 0
SMALL
GASTEIGER

@<TRIPOS>ATOM
      1  C1       148.2050   16.4970   -3.5450 C.3   6000  OBN6000     0.1591
      2  C2       147.7280   15.1070   -3.9900 C.3   6000  OBN6000     0.0627
      3  C3       146.9210   15.1880   -5.2810 C.3   6000  OBN6000     0.1228
      4  C4       145.7270   16.1110   -5.0520 C.3   6000  OBN6000     0.0603
      5  C5       146.1260   17.5110   -4.5640 C.3   6000  OBN6000     0.1336
      6  C6       144.8680   18.3470   -4.3380 C.3   6000  OBN6000     0.0307
      7  C7       144.0840   17.8860   -3.1150 C.3   6000  OBN6000     0.0050
      8  C8       144.9560   17.8490   -1.8520 C.3   6000  OBN6000     0.0308
      9  C9       146.2610   17.0500   -2.0540 C.3   6000  OBN6000     0.0399
     10  C10      147.0530   17.4940   -3.3160 C.3   6000  OBN6000     0.0870
     11  C11      147.0400   17.0220   -0.7270 C.3   6000  OBN6000     0.1523
     12  C12      146.2220   16.2250    0.2710 C.3   6000  OBN6000     0.0355
     13  C13      144.8710   16.8650    0.5870 C.3   6000  OBN6000     0.0318
     14  C14      144.1100   17.4330   -0.6340 C.3   6000  OBN6000     0.1269
     15  C15      143.0340   16.4250   -1.0340 C.3   6000  OBN6000     0.0307
     16  C16      142.8080   15.5080    0.1490 C.3   6000  OBN6000     0.0067
     17  C17      143.9890   15.7100    1.0900 C.3   6000  OBN6000     0.0245
     18  C18      145.1360   17.9430    1.6430 C.3   6000  OBN6000     0.0028
     19  C19      147.5890   18.9220   -3.0650 C.3   6000  OBN6000     0.1869
     20  C20      143.4720   15.8400    2.4930 C.2   6000  OBN6000     0.0053
     21  C21      142.6150   16.9820    3.0260 C.3   6000  OBN6000     0.2314
     22  C22      143.7370   14.8980    3.3970 C.2   6000  OBN6000     0.0769
     23  C23      143.2890   15.4570    4.6690 C.2   6000  OBN6000     0.3412
     24  C1'      147.6940   15.1610   -7.6030 C.3   6000  OBN6000     0.2693
     25  C2'      148.8660   15.7070   -8.4240 C.3   6000  OBN6000     0.2406
     26  C3'      150.1940   15.0610   -8.0170 C.3   6000  OBN6000     0.2197
     27  C4'      150.1030   13.5350   -8.0310 C.3   6000  OBN6000     0.2118
     28  C5'      148.9060   13.0610   -7.2020 C.3   6000  OBN6000     0.1508
     29  C6'      148.6980   11.5570   -7.3300 C.3   6000  OBN6000     0.0350
     30  O1       149.1440   17.0130   -4.5030 O.3   6000  OBN6000    -0.2229
     31  O3       147.7800   15.7250   -6.2890 O.3   6000  OBN6000    -0.3309
     32  O5       146.8310   18.1440   -5.6330 O.3   6000  OBN6000    -0.2254
     33  O11      148.3340   16.4100   -0.8090 O.3   6000  OBN6000    -0.2231
     34  O14      143.3930   18.5960   -0.2170 O.3   6000  OBN6000    -0.2257
     35  O19      148.9670   18.9360   -2.6580 O.3   6000  OBN6000    -0.2203
     36  O21      142.5640   16.6870    4.4240 O.3   6000  OBN6000    -0.4408
     37  O23      143.4930   14.9810    5.7710 O.2   6000  OBN6000    -0.2449
     38  O2'      148.6170   15.5070   -9.8220 O.3   6000  OBN6000    -0.2149
     39  O3'      151.2380   15.4940   -8.8940 O.3   6000  OBN6000    -0.2174
     40  O4'      151.3190   12.9790   -7.5140 O.3   6000  OBN6000    -0.2177
     41  O5'      147.6930   13.7200   -7.6060 O.3   6000  OBN6000    -0.3284
@<TRIPOS>BOND
     1    38    25    1
     2    39    26    1
     3    25    26    1
     4    25    24    1
     5    27    26    1
     6    27    40    1
     7    27    28    1
     8    41    24    1
     9    41    28    1
    10    24    31    1
    11    29    28    1
    12    31     3    1
    13    32     5    1
    14     3     4    1
    15     3     2    1
    16     4     5    1
    17     5     6    1
    18     5    10    1
    19    30     1    1
    20     6     7    1
    21     2     1    1
    22     1    10    1
    23    10    19    1
    24    10     9    1
    25     7     8    1
    26    19    35    1
    27     9     8    1
    28     9    11    1
    29     8    14    1
    30    15    14    1
    31    15    16    1
    32    33    11    1
    33    11    12    1
    34    14    34    1
    35    14    13    1
    36    16    17    1
    37    12    13    1
    38    13    17    1
    39    13    18    1
    40    17    20    1
    41    20    21    1
    42    20    22    2
    43    21    36    1
    44    22    23    1
    45    36    23    1
    46    23    37    2
