@<TRIPOS>MOLECULE
3a3y_CLR_B_1.pdb
 28 31 0 0 0
SMALL
GASTEIGER

@<TRIPOS>ATOM
      1  C1       136.7760   -1.7620   15.5210 C.3   3001  CLR3001     0.0026
      2  C2       136.7200   -1.8940   17.0510 C.3   3001  CLR3001     0.0329
      3  C3       136.6340   -0.5540   17.7900 C.3   3001  CLR3001     0.1520
      4  C4       135.4370    0.2360   17.2710 C.3   3001  CLR3001     0.0329
      5  C5       135.6350    0.4060   15.7810 C.3   3001  CLR3001     0.0025
      6  C6       135.7680    1.6540   15.2920 C.3   3001  CLR3001     0.0001
      7  C7       135.4150    2.0280   13.8650 C.3   3001  CLR3001     0.0000
      8  C8       135.5000    0.8420   12.9060 C.3   3001  CLR3001     0.0000
      9  C9       136.2040   -0.4000   13.4880 C.3   3001  CLR3001     0.0000
     10  C10      135.7320   -0.8230   14.8960 C.3   3001  CLR3001     0.0002
     11  C11      136.2480   -1.5470   12.4510 C.3   3001  CLR3001     0.0000
     12  C12      136.7940   -1.1310   11.0700 C.3   3001  CLR3001     0.0000
     13  C13      136.1510    0.1540   10.5430 C.3   3001  CLR3001     0.0000
     14  C14      136.2940    1.1980   11.6460 C.3   3001  CLR3001     0.0000
     15  C15      136.1260    2.5720   10.9960 C.3   3001  CLR3001     0.0000
     16  C16      136.7300    2.3590    9.6060 C.3   3001  CLR3001     0.0000
     17  C17      136.8660    0.8420    9.3650 C.3   3001  CLR3001     0.0000
     18  C18      134.6780   -0.1300   10.2080 C.3   3001  CLR3001     0.0000
     19  C19      134.3620   -1.5150   14.8570 C.3   3001  CLR3001     0.0000
     20  C20      136.4580    0.4290    7.9330 C.3   3001  CLR3001     0.0000
     21  C21      136.9800   -0.9610    7.5630 C.3   3001  CLR3001     0.0000
     22  C22      136.9360    1.4440    6.8940 C.3   3001  CLR3001     0.0000
     23  C23      136.3030    1.2880    5.5100 C.3   3001  CLR3001     0.0000
     24  C24      136.7590    2.4560    4.6350 C.3   3001  CLR3001     0.0000
     25  C25      136.9940    2.1270    3.1590 C.3   3001  CLR3001     0.0000
     26  C26      137.4960    3.3650    2.4190 C.3   3001  CLR3001     0.0000
     27  C27      137.9730    0.9710    2.9570 C.3   3001  CLR3001     0.0000
     28  O1       136.4980   -0.7560   19.2040 O.3   3001  CLR3001    -0.2232
@<TRIPOS>BOND
     1    26    25    1
     2    27    25    1
     3    25    24    1
     4    24    23    1
     5    23    22    1
     6    22    20    1
     7    21    20    1
     8    20    17    1
     9    17    16    1
    10    17    13    1
    11    16    15    1
    12    18    13    1
    13    13    12    1
    14    13    14    1
    15    15    14    1
    16    12    11    1
    17    14     8    1
    18    11     9    1
    19     8     9    1
    20     8     7    1
    21     9    10    1
    22     7     6    1
    23    19    10    1
    24    10     1    1
    25    10     5    1
    26     6     5    1
    27     1     2    1
    28     5     4    1
    29     2     3    1
    30     4     3    1
    31     3    28    1
