@<TRIPOS>MOLECULE
3a3z_2MV_X_1.pdb
 33 36 0 0 0
SMALL
GASTEIGER

@<TRIPOS>ATOM
      1  O26        4.7790   26.5970   34.8970 O.3     1  2MV1       -0.2257
      2  C26        5.1170   25.5470   33.9760 C.3     1  2MV1        0.1269
      3  C27        4.0670   24.4560   34.1200 C.3     1  2MV1        0.0329
      4  C28        5.0230   26.1370   32.5720 C.3     1  2MV1        0.0329
      5  C25        6.5030   24.9680   34.2950 C.3     1  2MV1        0.0330
      6  C23        7.6540   25.9820   34.3200 C.3     1  2MV1        0.0344
      7  C22        8.8040   25.5810   35.2400 C.3     1  2MV1        0.0298
      8  C24        8.3570   26.0970   32.9720 C.3     1  2MV1        0.1420
      9  O20        9.7060   26.4860   33.2520 O.3     1  2MV1       -0.3585
     10  C20       10.0220   26.2970   34.6430 C.3     1  2MV1        0.0928
     11  C21       10.1060   27.6880   35.2820 C.3     1  2MV1        0.0296
     12  C17       11.4080   25.6110   34.7940 C.3     1  2MV1        0.0253
     13  C13       11.8300   24.4890   33.8350 C.3     1  2MV1        0.0056
     14  C18       10.8240   23.3370   33.7860 C.3     1  2MV1        0.0004
     15  C12       12.1630   24.9170   32.4060 C.3     1  2MV1        0.0007
     16  C11       12.9500   23.8610   31.6020 C.3     1  2MV1        0.0044
     17  C9        14.1550   23.2350   32.3300 C.3     1  2MV1        0.0220
     18  C16       11.7420   25.0730   36.2010 C.3     1  2MV1        0.0027
     19  C15       12.8400   24.0140   36.0050 C.3     1  2MV1        0.0041
     20  C14       13.1390   24.0930   34.5040 C.3     1  2MV1        0.0184
     21  C8        13.8110   22.9470   33.7820 C.2     1  2MV1       -0.0446
     22  C7        14.0740   21.7620   34.3730 C.2     1  2MV1       -0.0088
     23  C6        14.7440   20.6410   33.6970 C.2     1  2MV1       -0.0051
     24  C5        14.5750   19.3300   33.9810 C.2     1  2MV1       -0.0213
     25  C10       13.6540   18.8010   34.9950 C.2     1  2MV1        0.0039
     26  C19       12.4020   19.2340   35.0670 C.2     1  2MV1       -0.0024
     27  C1        14.1720   17.7090   35.9070 C.3     1  2MV1        0.1763
     28  O1        13.1440   17.1310   36.7220 O.3     1  2MV1       -0.2182
     29  C4        15.3760   18.3090   33.1980 C.3     1  2MV1        0.0590
     30  C3        15.9330   17.2260   34.1370 C.3     1  2MV1        0.1590
     31  O3        17.0010   17.7780   34.9220 O.3     1  2MV1       -0.2227
     32  C2        14.8890   16.6210   35.0880 C.3     1  2MV1        0.0654
     33  C29       13.9390   15.6570   34.3620 C.3     1  2MV1        0.0056
@<TRIPOS>BOND
     1    16    17    1
     2    16    15    1
     3    17    21    1
     4    15    13    1
     5     4     2    1
     6     8     9    1
     7     8     6    1
     8    29    24    1
     9    29    30    1
    10     9    10    1
    11    23    24    2
    12    23    22    1
    13    21    22    2
    14    21    20    1
    15    14    13    1
    16    13    20    1
    17    13    12    1
    18     2     3    1
    19     2     5    1
    20     2     1    1
    21    24    25    1
    22    30    31    1
    23    30    32    1
    24     5     6    1
    25     6     7    1
    26    33    32    1
    27    20    19    1
    28    10    12    1
    29    10     7    1
    30    10    11    1
    31    12    18    1
    32    25    26    2
    33    25    27    1
    34    32    27    1
    35    27    28    1
    36    19    18    1
