@<TRIPOS>MOLECULE
3a40_23R_X_1.pdb
 33 36 0 0 0
SMALL
GASTEIGER

@<TRIPOS>ATOM
      1  O3        17.0100   17.6930   34.5760 O.3     1  23R1       -0.2227
      2  C3        15.9550   17.1170   33.7840 C.3     1  23R1        0.1590
      3  C2        14.8760   16.5400   34.6960 C.3     1  23R1        0.0654
      4  C29       13.9020   15.6430   33.9050 C.3     1  23R1        0.0056
      5  C1        14.2020   17.6500   35.5100 C.3     1  23R1        0.1763
      6  O1        13.1670   17.1050   36.3290 O.3     1  23R1       -0.2182
      7  C10       13.7060   18.7610   34.6200 C.2     1  23R1        0.0039
      8  C19       12.4670   19.2500   34.7190 C.2     1  23R1       -0.0024
      9  C4        15.4030   18.1830   32.8400 C.3     1  23R1        0.0590
     10  C5        14.6170   19.2330   33.5750 C.2     1  23R1       -0.0213
     11  C6        14.7690   20.5260   33.2100 C.2     1  23R1       -0.0051
     12  C7        14.1280   21.6930   33.8320 C.2     1  23R1       -0.0088
     13  C8        13.9270   22.8910   33.2350 C.2     1  23R1       -0.0446
     14  C9        14.2560   23.1820   31.7810 C.3     1  23R1        0.0220
     15  C11       12.9780   23.6980   31.0870 C.3     1  23R1        0.0044
     16  C12       12.2130   24.7920   31.8480 C.3     1  23R1        0.0007
     17  C14       13.2760   24.0510   33.9520 C.3     1  23R1        0.0184
     18  C13       11.9270   24.3870   33.3000 C.3     1  23R1        0.0056
     19  C18       10.9550   23.1880   33.3210 C.3     1  23R1        0.0004
     20  C15       13.0130   23.9600   35.4520 C.3     1  23R1        0.0041
     21  C16       11.8860   24.9910   35.6490 C.3     1  23R1        0.0027
     22  C17       11.4920   25.5240   34.2490 C.3     1  23R1        0.0253
     23  C20       10.0770   26.1360   34.1320 C.3     1  23R1        0.0928
     24  C22        8.9730   25.2790   34.7380 C.3     1  23R1        0.0298
     25  C21       10.0870   27.5120   34.8030 C.3     1  23R1        0.0296
     26  O20        9.7540   26.2800   32.7410 O.3     1  23R1       -0.3585
     27  C24        8.3360   26.2220   32.5840 C.3     1  23R1        0.1420
     28  C23        7.8260   25.3640   33.7470 C.3     1  23R1        0.0344
     29  C25        6.6240   25.9570   34.4820 C.3     1  23R1        0.0330
     30  C26        5.2380   25.7560   33.8640 C.3     1  23R1        0.1269
     31  C28        4.7060   24.3490   34.0650 C.3     1  23R1        0.0329
     32  C27        5.1600   26.1870   32.4060 C.3     1  23R1        0.0329
     33  O26        4.3890   26.6300   34.6090 O.3     1  23R1       -0.2257
@<TRIPOS>BOND
     1    15    14    1
     2    15    16    1
     3    14    13    1
     4    16    18    1
     5    32    30    1
     6    27    26    1
     7    27    28    1
     8    26    23    1
     9     9    10    1
    10     9     2    1
    11    11    10    2
    12    11    12    1
    13    13    12    2
    14    13    17    1
    15    18    19    1
    16    18    17    1
    17    18    22    1
    18    10     7    1
    19    28    29    1
    20    28    24    1
    21     2     1    1
    22     2     3    1
    23    30    31    1
    24    30    29    1
    25    30    33    1
    26     4     3    1
    27    17    20    1
    28    23    22    1
    29    23    24    1
    30    23    25    1
    31    22    21    1
    32     7     8    2
    33     7     5    1
    34     3     5    1
    35    20    21    1
    36     5     6    1
