@<TRIPOS>MOLECULE
3a4a_GLC_A_1.pdb
 12 12 0 0 0
SMALL
GASTEIGER

@<TRIPOS>ATOM
      1  C1        20.3720   -6.4450   23.5580 C.3   601  GLC601      0.3024
      2  C2        21.8150   -6.2450   23.1000 C.3   601  GLC601      0.2434
      3  C3        22.2910   -7.5170   22.4090 C.3   601  GLC601      0.2199
      4  C4        22.2550   -8.6210   23.4720 C.3   601  GLC601      0.2144
      5  C5        20.8850   -8.7350   24.1460 C.3   601  GLC601      0.1836
      6  C6        21.0110   -9.5510   25.4190 C.3   601  GLC601      0.2142
      7  O1        19.4940   -6.7580   22.4940 O.3   601  GLC601     -0.1869
      8  O2        21.8720   -5.1030   22.2950 O.3   601  GLC601     -0.2148
      9  O3        23.5940   -7.3470   21.8930 O.3   601  GLC601     -0.2174
     10  O4        22.6050   -9.8490   22.9050 O.3   601  GLC601     -0.2176
     11  O5        20.3800   -7.4610   24.5360 O.3   601  GLC601     -0.3236
     12  O6        21.6510   -8.7910   26.4230 O.3   601  GLC601     -0.2176
@<TRIPOS>BOND
     1     9     3    1
     2     8     2    1
     3     3     2    1
     4     3     4    1
     5     7     1    1
     6    10     4    1
     7     2     1    1
     8     4     5    1
     9     1    11    1
    10     5    11    1
    11     5     6    1
    12     6    12    1
