@<TRIPOS>MOLECULE
3a4g_HEM_A_1.pdb
 43 50 0 0 0
SMALL
GASTEIGER

@<TRIPOS>ATOM
      1  CHA        3.9470    6.8470    3.9640 C.2   412  HEM412      0.0000
      2  CHB       -0.5920    7.4310    2.3580 C.2   412  HEM412      0.0000
      3  CHC       -0.4440   12.1920    3.5400 C.2   412  HEM412      0.0000
      4  CHD        4.1420   11.6430    4.9660 C.2   412  HEM412      0.0000
      5  C1A        2.6860    6.5770    3.4570 C.ar  412  HEM412      0.0000
      6  C2A        2.1850    5.2660    3.0220 C.ar  412  HEM412      0.0000
      7  C3A        0.9320    5.4420    2.5590 C.ar  412  HEM412      0.0000
      8  C4A        0.6030    6.8430    2.7100 C.ar  412  HEM412      0.0000
      9  CMA       -0.0340    4.3700    1.9950 C.3   412  HEM412      0.0000
     10  CAA        3.0260    3.9960    3.1230 C.3   412  HEM412      0.0000
     11  CBA        3.6060    3.6260    1.7520 C.3   412  HEM412      0.0000
     12  CGA        4.2540    2.2580    1.7630 C.2   412  HEM412      0.0000
     13  O1A        4.2690    1.5360    2.7930 O.co2 412  HEM412      0.0000
     14  O2A        4.7270    1.8330    0.6850 O.co2 412  HEM412      0.0000
     15  C1B       -0.9430    8.7590    2.5510 C.2   412  HEM412      0.0000
     16  C2B       -2.2440    9.3330    2.2600 C.2   412  HEM412      0.0000
     17  C3B       -2.2070   10.6470    2.5890 C.2   412  HEM412      0.0000
     18  C4B       -0.8850   10.9520    3.0620 C.2   412  HEM412      0.0000
     19  CMB       -3.4340    8.5250    1.7280 C.3   412  HEM412      0.0000
     20  CAB       -3.4360   11.5960    2.4300 C.2   412  HEM412      0.0000
     21  CBB       -3.2980   12.9050    2.4780 C.2   412  HEM412      0.0000
     22  C1C        0.7900   12.4710    4.0830 C.ar  412  HEM412      0.0000
     23  C2C        1.2290   13.7340    4.6730 C.ar  412  HEM412      0.0000
     24  C3C        2.5070   13.5680    5.0690 C.ar  412  HEM412      0.0000
     25  C4C        2.8970   12.2010    4.7520 C.ar  412  HEM412      0.0000
     26  CMC        0.3400   14.9950    4.8030 C.3   412  HEM412      0.0000
     27  CAC        3.4690   14.5650    5.7560 C.2   412  HEM412      0.0000
     28  CBC        3.0380   15.7320    6.2560 C.2   412  HEM412      0.0000
     29  C1D        4.5400   10.3330    4.7720 C.2   412  HEM412      0.0000
     30  C2D        5.8640    9.8340    5.0220 C.2   412  HEM412      0.0000
     31  C3D        5.8020    8.3660    4.6950 C.2   412  HEM412      0.0000
     32  C4D        4.4390    8.1050    4.2930 C.2   412  HEM412      0.0000
     33  CMD        7.0930   10.6660    5.4770 C.3   412  HEM412      0.0000
     34  CAD        6.9290    7.3660    4.7940 C.3   412  HEM412      0.0000
     35  CBD        6.8730    6.7110    6.1910 C.3   412  HEM412      0.0000
     36  CGD        7.9750    5.6790    6.3210 C.2   412  HEM412      0.0000
     37  O1D        8.5770    5.2450    5.2900 O.co2 412  HEM412      0.0000
     38  O2D        8.2600    5.2560    7.4490 O.co2 412  HEM412      0.0000
     39  NA         1.6900    7.5070    3.2390 N.ar  412  HEM412      0.0000
     40  NB        -0.1270    9.7970    2.9850 N.2   412  HEM412      0.0000
     41  NC         1.8280   11.5900    4.1570 N.ar  412  HEM412      0.0000
     42  ND         3.7120    9.2680    4.3510 N.2   412  HEM412      0.0000
     43 FE          1.7150    9.5270    3.8380 Fe    412  HEM412      0.0000
@<TRIPOS>BOND
     1    14    12   ar
     2    19    16    1
     3    11    12    1
     4    11    10    1
     5    12    13   ar
     6     9     7    1
     7    16    15    1
     8    16    17    2
     9     2    15    1
    10     2     8    2
    11    20    21    2
    12    20    17    1
    13    15    40    2
    14     7     8   ar
    15     7     6   ar
    16    17    18    1
    17     8    39   ar
    18    40    18    1
    19    40    43    1
    20     6    10    1
    21     6     5   ar
    22    18     3    2
    23    39     5   ar
    24    39    43    1
    25     5     1    2
    26     3    22    1
    27    43    41    1
    28    43    42    1
    29     1    32    1
    30    22    41   ar
    31    22    23   ar
    32    41    25   ar
    33    32    42    2
    34    32    31    1
    35    42    29    1
    36    23    26    1
    37    23    24   ar
    38    31    34    1
    39    31    30    2
    40    25     4    1
    41    25    24   ar
    42    29     4    2
    43    29    30    1
    44    34    35    1
    45    30    33    1
    46    24    27    1
    47    37    36   ar
    48    27    28    2
    49    35    36    1
    50    36    38   ar
