@<TRIPOS>MOLECULE
3a4h_HEM_A_1.pdb
 43 50 0 0 0
SMALL
GASTEIGER

@<TRIPOS>ATOM
      1  CHA       25.7790   25.2090   10.7040 C.2   412  HEM412      0.0000
      2  CHB       21.7010   22.6010   10.9740 C.2   412  HEM412      0.0000
      3  CHC       21.8590   22.7580   15.8130 C.2   412  HEM412      0.0000
      4  CHD       25.7350   25.6580   15.5740 C.2   412  HEM412      0.0000
      5  C1A       24.7030   24.4320   10.3520 C.ar  412  HEM412      0.0000
      6  C2A       24.3880   23.9570    9.0190 C.ar  412  HEM412      0.0000
      7  C3A       23.2660   23.2400    9.0920 C.ar  412  HEM412      0.0000
      8  C4A       22.8270   23.2330   10.4780 C.ar  412  HEM412      0.0000
      9  CMA       22.5600   22.5380    7.9110 C.3   412  HEM412      0.0000
     10  CAA       25.2020   24.2260    7.7360 C.3   412  HEM412      0.0000
     11  CBA       24.7480   25.5370    7.1010 C.3   412  HEM412      0.0000
     12  CGA       25.2970   25.6730    5.7010 C.2   412  HEM412      0.0000
     13  O1A       26.1530   24.8470    5.2880 O.co2 412  HEM412      0.0000
     14  O2A       24.8740   26.6190    4.9890 O.co2 412  HEM412      0.0000
     15  C1B       21.4000   22.3720   12.3000 C.2   412  HEM412      0.0000
     16  C2B       20.3340   21.5280   12.8090 C.2   412  HEM412      0.0000
     17  C3B       20.3720   21.5750   14.1430 C.2   412  HEM412      0.0000
     18  C4B       21.4710   22.4450   14.5300 C.2   412  HEM412      0.0000
     19  CMB       19.3230   20.7150   11.9700 C.3   412  HEM412      0.0000
     20  CAB       19.4070   20.8020   15.0760 C.2   412  HEM412      0.0000
     21  CBB       19.1050   21.2360   16.3000 C.2   412  HEM412      0.0000
     22  C1C       22.9350   23.5370   16.1800 C.ar  412  HEM412      0.0000
     23  C2C       23.3890   23.7920   17.5370 C.ar  412  HEM412      0.0000
     24  C3C       24.4570   24.5870   17.4710 C.ar  412  HEM412      0.0000
     25  C4C       24.7190   24.8700   16.0700 C.ar  412  HEM412      0.0000
     26  CMC       22.7610   23.2400   18.8410 C.3   412  HEM412      0.0000
     27  CAC       25.2480   25.1090   18.6940 C.2   412  HEM412      0.0000
     28  CBC       26.5710   25.2720   18.6440 C.2   412  HEM412      0.0000
     29  C1D       26.1220   25.8120   14.2610 C.2   412  HEM412      0.0000
     30  C2D       27.2480   26.6030   13.8180 C.2   412  HEM412      0.0000
     31  C3D       27.2640   26.4670   12.2920 C.2   412  HEM412      0.0000
     32  C4D       26.1450   25.6050   11.9720 C.2   412  HEM412      0.0000
     33  CMD       28.2290   27.4130   14.6940 C.3   412  HEM412      0.0000
     34  CAD       28.2710   27.1120   11.3130 C.3   412  HEM412      0.0000
     35  CBD       29.2100   26.0350   10.7760 C.3   412  HEM412      0.0000
     36  CGD       30.2810   26.6170    9.8870 C.2   412  HEM412      0.0000
     37  O1D       29.9860   27.5600    9.1030 O.co2 412  HEM412      0.0000
     38  O2D       31.4420   26.1300    9.9530 O.co2 412  HEM412      0.0000
     39  NA        23.7320   23.9740   11.2160 N.ar  412  HEM412      0.0000
     40  NB        22.0680   22.9170   13.3780 N.2   412  HEM412      0.0000
     41  NC        23.7710   24.2120   15.3120 N.ar  412  HEM412      0.0000
     42  ND        25.5030   25.2440   13.1510 N.2   412  HEM412      0.0000
     43 FE         23.8710   23.9440   13.2360 Fe    412  HEM412      0.0000
@<TRIPOS>BOND
     1    14    12   ar
     2    13    12   ar
     3    12    11    1
     4    11    10    1
     5    10     6    1
     6     9     7    1
     7     6     7   ar
     8     6     5   ar
     9     7     8   ar
    10    37    36   ar
    11    36    38   ar
    12    36    35    1
    13     5     1    2
    14     5    39   ar
    15     8     2    2
    16     8    39   ar
    17     1    32    1
    18    35    34    1
    19     2    15    1
    20    39    43    1
    21    34    31    1
    22    19    16    1
    23    32    31    1
    24    32    42    2
    25    31    30    2
    26    15    16    1
    27    15    40    2
    28    16    17    2
    29    42    43    1
    30    42    29    1
    31    43    40    1
    32    43    41    1
    33    40    18    1
    34    30    29    1
    35    30    33    1
    36    17    18    1
    37    17    20    1
    38    29     4    2
    39    18     3    2
    40    20    21    2
    41    41    25   ar
    42    41    22   ar
    43     4    25    1
    44     3    22    1
    45    25    24   ar
    46    22    23   ar
    47    24    23   ar
    48    24    27    1
    49    23    26    1
    50    28    27    2
