@<TRIPOS>MOLECULE
3a4l_ANP_A_1.pdb
 31 33 0 0 0
SMALL
GASTEIGER

@<TRIPOS>ATOM
      1  PG       -11.4710   -5.7400    8.4200 P.3   301  ANP301      0.4884
      2  O1G      -12.6890   -6.4910    8.9460 O.3   301  ANP301     -0.1240
      3  O2G      -11.9410   -4.7320    7.4120 O.2   301  ANP301     -0.2331
      4  O3G      -10.6240   -5.2510    9.5430 O.3   301  ANP301     -0.1240
      5  PB        -9.1060   -6.5400    6.9240 P.3   301  ANP301      0.4669
      6  O1B       -8.1840   -5.8990    7.8870 O.3   301  ANP301     -0.1253
      7  O2B       -9.2040   -5.8850    5.5870 O.2   301  ANP301     -0.2351
      8  N3B      -10.5640   -6.8350    7.6040 N.3   301  ANP301     -0.0163
      9  PA        -7.6000   -8.9090    7.5260 P.3   301  ANP301      0.2220
     10  O1A       -8.2780   -9.0880    8.8660 O.3   301  ANP301     -0.4370
     11  O2A       -6.1330   -8.5590    7.4240 O.2   301  ANP301     -0.5170
     12  O3A       -8.5200   -8.0080    6.5600 O.3   301  ANP301     -0.2360
     13  O5'       -7.7310  -10.3060    6.7250 O.3   301  ANP301     -0.3111
     14  C5'       -9.0260  -10.9050    6.6250 C.3   301  ANP301      0.1813
     15  C4'       -8.7650  -12.3580    6.2420 C.3   301  ANP301      0.1821
     16  O4'       -8.1020  -12.4380    4.9770 O.3   301  ANP301     -0.3135
     17  C3'       -7.8490  -12.9860    7.2710 C.3   301  ANP301      0.2184
     18  O3'       -8.4130  -14.2600    7.6170 O.3   301  ANP301     -0.2174
     19  C2'       -6.5190  -13.1540    6.5740 C.3   301  ANP301      0.2570
     20  O2'       -5.8820  -14.3740    6.9590 O.3   301  ANP301     -0.2130
     21  C1'       -6.8660  -13.1530    5.1000 C.3   301  ANP301      0.3186
     22  N9        -5.8670  -12.4000    4.3330 N.pl3 301  ANP301     -0.1439
     23  C8        -5.4660  -11.1310    4.5850 C.3   301  ANP301      0.3377
     24  N7        -4.5430  -10.7190    3.6730 N.2   301  ANP301     -0.2095
     25  C5        -4.3560  -11.7350    2.8160 C.2   301  ANP301      0.2526
     26  C6        -3.5140  -11.9560    1.6150 C.2   301  ANP301      0.4393
     27  N6        -2.6800  -10.9880    1.1690 N.pl3 301  ANP301      0.2180
     28  N1        -3.5990  -13.1600    1.0070 N.2   301  ANP301      0.0021
     29  C2        -4.4300  -14.1180    1.4700 C.3   301  ANP301      0.5254
     30  N3        -5.2240  -13.9790    2.5450 N.2   301  ANP301     -0.0055
     31  C4        -5.2200  -12.8330    3.2550 C.2   301  ANP301      0.3518
@<TRIPOS>BOND
     1    28    29    1
     2    28    26    2
     3    27    26    1
     4    29    30    1
     5    26    25    1
     6    30    31    2
     7    25    31    1
     8    25    24    2
     9    31    22    1
    10    24    23    1
    11    22    23    1
    12    22    21    1
    13    16    21    1
    14    16    15    1
    15    21    19    1
    16     7     5    2
    17    15    14    1
    18    15    17    1
    19    12     5    1
    20    12     9    1
    21    19    20    1
    22    19    17    1
    23    14    13    1
    24    13     9    1
    25     5     8    1
    26     5     6    1
    27    17    18    1
    28     3     1    2
    29    11     9    2
    30     9    10    1
    31     8     1    1
    32     1     2    1
    33     1     4    1
