@<TRIPOS>MOLECULE
3a4m_ADP_A_1.pdb
 27 29 0 0 0
SMALL
GASTEIGER

@<TRIPOS>ATOM
      1  PB        -9.0240   -8.7680    6.8160 P.3   301  ADP301      0.5373
      2  O1B       -8.8870   -8.0800    5.4620 O.2   301  ADP301     -0.2221
      3  O2B       -8.1380   -8.2620    7.8870 O.3   301  ADP301     -0.1143
      4  O3B      -10.3940   -9.1020    7.3440 O.3   301  ADP301     -0.1143
      5  PA        -7.3550  -11.1280    7.4260 P.3   301  ADP301      0.2231
      6  O1A       -7.9490  -11.3710    8.8000 O.3   301  ADP301     -0.4370
      7  O2A       -5.9320  -10.6880    7.2670 O.2   301  ADP301     -0.5169
      8  O3A       -8.3300  -10.2070    6.5020 O.3   301  ADP301     -0.2261
      9  O5'       -7.4880  -12.5470    6.7100 O.3   301  ADP301     -0.3111
     10  C5'       -8.7130  -13.1540    6.4400 C.3   301  ADP301      0.1813
     11  C4'       -8.3500  -14.6190    6.1410 C.3   301  ADP301      0.1821
     12  O4'       -7.6800  -14.7330    4.8960 O.3   301  ADP301     -0.3135
     13  C3'       -7.4630  -15.1640    7.2190 C.3   301  ADP301      0.2184
     14  O3'       -7.9270  -16.5020    7.4120 O.3   301  ADP301     -0.2174
     15  C2'       -6.1080  -15.2480    6.5420 C.3   301  ADP301      0.2570
     16  O2'       -5.5080  -16.4320    6.9870 O.3   301  ADP301     -0.2130
     17  C1'       -6.3930  -15.3830    5.0900 C.3   301  ADP301      0.3186
     18  N9        -5.4380  -14.6170    4.3180 N.pl3 301  ADP301     -0.1439
     19  C8        -5.0720  -13.3280    4.5480 C.3   301  ADP301      0.3377
     20  N7        -4.1680  -12.8960    3.5990 N.2   301  ADP301     -0.2095
     21  C5        -4.0260  -13.9120    2.7190 C.2   301  ADP301      0.2526
     22  C6        -3.2360  -14.1340    1.5140 C.2   301  ADP301      0.4393
     23  N6        -2.4350  -13.1460    1.0170 N.pl3 301  ADP301      0.2180
     24  N1        -3.3440  -15.3540    0.9440 N.2   301  ADP301      0.0021
     25  C2        -4.1230  -16.3190    1.4480 C.3   301  ADP301      0.5254
     26  N3        -4.8890  -16.1850    2.5370 N.2   301  ADP301     -0.0055
     27  C4        -4.8380  -15.0360    3.2180 C.2   301  ADP301      0.3518
@<TRIPOS>BOND
     1    24    25    1
     2    24    22    2
     3    23    22    1
     4    25    26    1
     5    22    21    1
     6    26    27    2
     7    21    27    1
     8    21    20    2
     9    27    18    1
    10    20    19    1
    11    18    19    1
    12    18    17    1
    13    12    17    1
    14    12    11    1
    15    17    15    1
    16     2     1    2
    17    11    10    1
    18    11    13    1
    19    10     9    1
    20     8     1    1
    21     8     5    1
    22    15    16    1
    23    15    13    1
    24     9     5    1
    25     1     4    1
    26     1     3    1
    27    13    14    1
    28     7     5    2
    29     5     6    1
