@<TRIPOS>MOLECULE
3a4o_STU_X_1.pdb
 35 42 0 0 0
SMALL
GASTEIGER

@<TRIPOS>ATOM
      1  O4        -2.6710  -25.1710  -19.4540 O.3   902  STU902     -0.3186
      2  C25       -2.2480  -24.4910  -18.2460 C.3   902  STU902      0.2078
      3  C24       -3.2940  -24.4990  -17.1250 C.3   902  STU902      0.0739
      4  C23       -4.6190  -25.0330  -17.5980 C.3   902  STU902      0.1086
      5  C22       -4.7620  -24.2120  -18.8620 C.3   902  STU902      0.1761
      6  C21       -3.9320  -24.7970  -19.9590 C.3   902  STU902      0.1915
      7  C26       -4.5820  -26.0670  -20.3920 C.3   902  STU902      0.0566
      8  N2        -3.9640  -23.8180  -21.0600 N.ar  902  STU902     -0.3054
      9  C18       -3.2060  -22.6700  -20.7170 C.ar  902  STU902      0.0774
     10  C19       -2.2570  -22.3750  -19.6330 C.ar  902  STU902      0.0783
     11  C6        -1.5850  -21.1330  -19.6040 C.ar  902  STU902      0.0293
     12  C7        -1.7730  -20.1360  -20.6210 C.ar  902  STU902      0.0822
     13  C10       -2.6640  -20.3830  -21.6720 C.ar  902  STU902      0.0154
     14  C11       -3.3370  -21.6400  -21.6830 C.ar  902  STU902      0.0173
     15  C12       -4.3290  -22.0700  -22.5990 C.ar  902  STU902      0.0171
     16  C17       -4.5880  -23.3930  -22.1720 C.ar  902  STU902      0.0617
     17  C16       -5.5710  -24.1080  -22.8530 C.ar  902  STU902      0.0172
     18  C15       -6.2150  -23.5300  -23.9760 C.ar  902  STU902      0.0015
     19  C14       -5.8880  -22.2350  -24.4210 C.ar  902  STU902      0.0001
     20  C13       -4.9320  -21.4780  -23.7200 C.ar  902  STU902      0.0015
     21  C9        -2.6440  -19.1050  -22.5290 C.3   902  STU902      0.1650
     22  N1        -1.7120  -18.2250  -21.8080 N.2   902  STU902     -0.1976
     23  C8        -1.1620  -18.8810  -20.7420 C.1   902  STU902      0.1501
     24  O5        -0.2480  -18.4520  -20.0640 O.2   902  STU902     -0.2222
     25  C5        -0.7600  -21.1220  -18.4460 C.ar  902  STU902      0.0180
     26  C20       -0.9750  -22.3960  -17.8770 C.ar  902  STU902      0.0618
     27  C1        -0.2870  -22.7930  -16.6990 C.ar  902  STU902      0.0172
     28  C2         0.6090  -21.8820  -16.0940 C.ar  902  STU902      0.0015
     29  C3         0.8000  -20.6000  -16.6440 C.ar  902  STU902      0.0001
     30  C4         0.1220  -20.2140  -17.8350 C.ar  902  STU902      0.0015
     31  N3        -1.8480  -23.1130  -18.5810 N.ar  902  STU902     -0.3039
     32  O6        -5.0340  -23.0190  -18.8880 O.3   902  STU902     -0.3478
     33  C27       -6.3250  -22.3730  -18.8250 C.3   902  STU902      0.1743
     34  N4        -5.6280  -24.7260  -16.5980 N.3   902  STU902     -0.2152
     35  C28       -6.1030  -26.0050  -16.0730 C.3   902  STU902      0.1075
@<TRIPOS>BOND
     1    19    18   ar
     2    19    20   ar
     3    18    17   ar
     4    20    15   ar
     5    17    16   ar
     6    15    16   ar
     7    15    14   ar
     8    21    22    1
     9    21    13    1
    10    16     8   ar
    11    22    23    2
    12    14    13   ar
    13    14     9   ar
    14    13    12   ar
    15     8     9   ar
    16     8     6    1
    17    23    12    1
    18    23    24    2
    19     9    10   ar
    20    12    11   ar
    21     7     6    1
    22     6     1    1
    23     6     5    1
    24    10    11   ar
    25    10    31   ar
    26    11    25   ar
    27     1     2    1
    28    32     5    1
    29    32    33    1
    30     5     4    1
    31    31     2    1
    32    31    26   ar
    33    25    26   ar
    34    25    30   ar
    35     2     3    1
    36    26    27   ar
    37    30    29   ar
    38     4     3    1
    39     4    34    1
    40    27    28   ar
    41    29    28   ar
    42    34    35    1
