@<TRIPOS>MOLECULE
3a4p_DFQ_A_1.pdb
 28 30 0 0 0
SMALL
GASTEIGER

@<TRIPOS>ATOM
      1  C1       -26.4880  -19.7530   -2.5780 C.3   1362  DFQ1362     0.1388
      2  N2       -25.5060  -20.3830   -1.6950 N.am  1362  DFQ1362    -0.1998
      3  C4       -24.3700  -19.7870   -1.2970 C.2   1362  DFQ1362     0.2650
      4  O5       -23.9990  -18.6600   -1.6490 O.2   1362  DFQ1362    -0.2684
      5  C6       -23.5800  -20.5570   -0.4260 C.2   1362  DFQ1362     0.0595
      6  C7       -22.3230  -20.1790    0.0650 C.2   1362  DFQ1362     0.0062
      7  C8       -21.7330  -20.9370    1.1060 C.ar  1362  DFQ1362     0.0190
      8  C9       -20.9730  -20.2930    2.0910 C.ar  1362  DFQ1362    -0.0011
      9  C10      -20.4290  -21.0120    3.1350 C.ar  1362  DFQ1362    -0.0007
     10  C11      -19.6360  -20.3770    4.0830 C.3   1362  DFQ1362     0.0910
     11  C12      -21.9490  -22.2980    1.3090 C.ar  1362  DFQ1362     0.0984
     12  N13      -21.4330  -22.9740    2.3300 N.ar  1362  DFQ1362    -0.2481
     13  C14      -20.6780  -22.3830    3.2490 C.ar  1362  DFQ1362     0.0599
     14  C15      -20.1370  -23.1410    4.2900 C.3   1362  DFQ1362     0.0742
     15  C16      -19.3700  -22.5020    5.2560 C.2   1362  DFQ1362     0.0129
     16  C17      -19.1010  -21.1400    5.1550 C.2   1362  DFQ1362     0.1169
     17  O18      -18.3020  -20.5960    6.1210 O.2   1362  DFQ1362    -0.4789
     18  C19      -17.8120  -19.1660    6.1240 C.3   1362  DFQ1362     0.1895
     19  C20      -16.4480  -19.0800    6.8660 C.3   1362  DFQ1362     0.0523
     20  C21      -18.9650  -18.3240    6.7330 C.ar  1362  DFQ1362     0.0405
     21  C22      -19.6940  -18.6780    7.8930 C.ar  1362  DFQ1362     0.0852
     22 CL23      -19.3510  -20.0890    8.8320 Cl    1362  DFQ1362    -0.0801
     23  C24      -20.7350  -17.8510    8.3660 C.ar  1362  DFQ1362     0.1505
     24  F25      -21.4380  -18.1690    9.4760 F     1362  DFQ1362    -0.2033
     25  C26      -21.0700  -16.6850    7.6920 C.ar  1362  DFQ1362     0.0314
     26  C27      -20.3740  -16.3540    6.5420 C.ar  1362  DFQ1362     0.0135
     27  C28      -19.3480  -17.1660    6.0850 C.ar  1362  DFQ1362     0.0580
     28 CL29      -18.5320  -16.6870    4.6710 Cl    1362  DFQ1362    -0.0824
@<TRIPOS>BOND
     1     1     2    1
     2     2     3   am
     3     4     3    2
     4     3     5    1
     5     5     6    2
     6     6     7    1
     7     7    11   ar
     8     7     8   ar
     9    11    12   ar
    10     8     9   ar
    11    12    13   ar
    12     9    13   ar
    13     9    10    1
    14    13    14    1
    15    10    16    1
    16    14    15    1
    17    28    27    1
    18    16    15    2
    19    16    17    1
    20    27    26   ar
    21    27    20   ar
    22    17    18    1
    23    18    20    1
    24    18    19    1
    25    26    25   ar
    26    20    21   ar
    27    25    23   ar
    28    21    23   ar
    29    21    22    1
    30    23    24    1
