@<TRIPOS>MOLECULE
3a4t_SFG_A_1.pdb
 27 29 0 0 0
SMALL
GASTEIGER

@<TRIPOS>ATOM
      1  N         17.7740  -23.4070  -14.7330 N.3   500  SFG500     -0.1208
      2  CA        18.0350  -24.9140  -14.8610 C.3   500  SFG500      0.1944
      3  C         17.3940  -25.6420  -16.0770 C.2   500  SFG500      0.3819
      4  O         16.4290  -25.2260  -16.6970 O.co2 500  SFG500     -0.2441
      5  OXT       17.7220  -26.7180  -16.5620 O.co2 500  SFG500     -0.2441
      6  CB        17.5660  -25.5190  -13.5120 C.3   500  SFG500      0.0321
      7  CG        18.1310  -24.8520  -12.2430 C.3   500  SFG500      0.0212
      8  CD        17.9550  -25.7300  -10.9680 C.3   500  SFG500      0.0944
      9  NE        16.4900  -25.7470  -10.5800 N.3   500  SFG500     -0.1328
     10  C5'       18.8300  -25.3750   -9.7320 C.3   500  SFG500      0.0514
     11  C4'       20.2650  -24.9300   -9.9810 C.3   500  SFG500      0.1537
     12  O4'       20.6920  -23.7520   -9.2730 O.3   500  SFG500     -0.3161
     13  C3'       21.2520  -25.9900   -9.5750 C.3   500  SFG500      0.2159
     14  O3'       21.9410  -26.1580  -10.8180 O.3   500  SFG500     -0.2175
     15  C2'       22.1690  -25.3670   -8.5170 C.3   500  SFG500      0.2569
     16  O2'       23.5000  -25.8730   -8.6310 O.3   500  SFG500     -0.2130
     17  C1'       22.0910  -23.8880   -8.9120 C.3   500  SFG500      0.3185
     18  N9        22.5490  -22.8350   -7.9260 N.pl3 500  SFG500     -0.1439
     19  C8        22.1370  -22.6340   -6.6360 C.3   500  SFG500      0.3377
     20  N7        22.7490  -21.5480   -6.0650 N.2   500  SFG500     -0.2095
     21  C5        23.5860  -21.0400   -7.0090 C.2   500  SFG500      0.2526
     22  C6        24.4840  -19.9410   -7.0150 C.2   500  SFG500      0.4393
     23  N6        24.6790  -19.1040   -5.9250 N.pl3 500  SFG500      0.2180
     24  N1        25.1770  -19.7400   -8.1780 N.2   500  SFG500      0.0021
     25  C2        25.0240  -20.5190   -9.2900 C.3   500  SFG500      0.5254
     26  N3        24.1870  -21.5660   -9.3150 N.2   500  SFG500     -0.0055
     27  C4        23.4520  -21.8510   -8.1870 C.2   500  SFG500      0.3518
@<TRIPOS>BOND
     1     4     3   ar
     2     5     3   ar
     3     3     2    1
     4     2     1    1
     5     2     6    1
     6     6     7    1
     7     7     8    1
     8     8     9    1
     9     8    10    1
    10    14    13    1
    11    11    10    1
    12    11    13    1
    13    11    12    1
    14    13    15    1
    15    26    25    1
    16    26    27    2
    17    25    24    1
    18    12    17    1
    19    17    15    1
    20    17    18    1
    21    16    15    1
    22    27    18    1
    23    27    21    1
    24    24    22    2
    25    18    19    1
    26    22    21    1
    27    22    23    1
    28    21    20    2
    29    19    20    1
