@<TRIPOS>MOLECULE
3a4v_NAD_A_1.pdb
 44 48 0 0 0
SMALL
GASTEIGER

@<TRIPOS>ATOM
      1  PA         9.1440    7.1760   28.1220 P.3   3001  NAD3001     0.2189
      2  O1A       10.5470    6.9730   28.4800 O.2   3001  NAD3001    -0.5170
      3  O2A        8.1410    7.1780   29.2690 O.3   3001  NAD3001    -0.4371
      4  O5B        9.0710    8.5280   27.2660 O.3   3001  NAD3001    -0.3112
      5  C5B        7.8260    9.0220   26.8330 C.3   3001  NAD3001     0.1813
      6  C4B        7.9990   10.4550   26.3070 C.3   3001  NAD3001     0.1821
      7  O4B        6.6800   10.8860   26.0130 O.3   3001  NAD3001    -0.3135
      8  C3B        8.5470   11.4010   27.3930 C.3   3001  NAD3001     0.2184
      9  O3B        9.7610   12.0340   26.9970 O.3   3001  NAD3001    -0.2174
     10  C2B        7.3850   12.3530   27.6380 C.3   3001  NAD3001     0.2570
     11  O2B        7.7270   13.6600   28.0430 O.3   3001  NAD3001    -0.2130
     12  C1B        6.6900   12.2690   26.3100 C.3   3001  NAD3001     0.3186
     13  N9A        5.3130   12.8180   26.2320 N.pl3 3001  NAD3001    -0.1439
     14  C8A        4.2780   12.6350   27.1210 C.3   3001  NAD3001     0.3377
     15  N7A        3.2060   13.3090   26.6910 N.2   3001  NAD3001    -0.2095
     16  C5A        3.5200   13.9340   25.5380 C.2   3001  NAD3001     0.2526
     17  C6A        2.8080   14.7570   24.6540 C.2   3001  NAD3001     0.4393
     18  N6A        1.5450   15.0870   24.9020 N.pl3 3001  NAD3001     0.2180
     19  N1A        3.4410   15.2470   23.5110 N.2   3001  NAD3001     0.0021
     20  C2A        4.7690   14.9120   23.2420 C.3   3001  NAD3001     0.5254
     21  N3A        5.4830   14.0990   24.1110 N.2   3001  NAD3001    -0.0055
     22  C4A        4.8540   13.6170   25.2290 C.2   3001  NAD3001     0.3518
     23  O3         8.6640    6.0690   27.0530 O.3   3001  NAD3001    -0.2703
     24  PN         9.5900    5.1680   26.0960 P.3   3001  NAD3001     0.2189
     25  O1N       10.6860    5.9690   25.5170 O.2   3001  NAD3001    -0.5170
     26  O2N        9.9360    3.9810   26.9090 O.3   3001  NAD3001    -0.4371
     27  O5D        8.5730    4.6720   24.9770 O.3   3001  NAD3001    -0.3112
     28  C5D        8.0920    5.5420   23.9970 C.3   3001  NAD3001     0.1813
     29  C4D        7.1340    4.7930   23.0700 C.3   3001  NAD3001     0.1799
     30  O4D        7.5120    3.4040   22.9630 O.3   3001  NAD3001    -0.3327
     31  C3D        5.7110    4.8070   23.5870 C.3   3001  NAD3001     0.2158
     32  O3D        4.7870    5.0030   22.5270 O.3   3001  NAD3001    -0.2175
     33  C2D        5.5810    3.4730   24.2710 C.3   3001  NAD3001     0.2309
     34  O2D        4.2610    3.0530   24.4700 O.3   3001  NAD3001    -0.2158
     35  C1D        6.4250    2.5880   23.3650 C.3   3001  NAD3001     0.2263
     36  N1N        6.8900    1.3320   24.0370 N.pl3 3001  NAD3001    -0.2787
     37  C2N        7.9790    1.3880   24.9080 C.3   3001  NAD3001     0.1244
     38  C3N        8.4010    0.2110   25.5650 C.2   3001  NAD3001     0.0544
     39  C7N        9.5680    0.2510   26.5060 C.2   3001  NAD3001     0.2818
     40  O7N        9.9250   -0.9170   27.1210 O.2   3001  NAD3001    -0.2670
     41  N7N       10.2610    1.3380   26.7730 N.am  3001  NAD3001    -0.0839
     42  C4N        7.7040   -1.0020   25.3190 C.2   3001  NAD3001     0.0033
     43  C5N        6.6120   -1.0350   24.4370 C.2   3001  NAD3001     0.0157
     44  C6N        6.2110    0.1430   23.7990 C.2   3001  NAD3001     0.0633
@<TRIPOS>BOND
     1    32    31    1
     2    30    29    1
     3    30    35    1
     4    29    31    1
     5    29    28    1
     6    20    19    1
     7    20    21    1
     8    35    36    1
     9    35    33    1
    10    19    17    2
    11    31    33    1
    12    44    36    1
    13    44    43    2
    14    28    27    1
    15    36    37    1
    16    21    22    2
    17    33    34    1
    18    43    42    1
    19    17    18    1
    20    17    16    1
    21    37    38    1
    22    27    24    1
    23    22    16    1
    24    22    13    1
    25    42    38    2
    26    25    24    2
    27    16    15    2
    28    38    39    1
    29     7     6    1
    30     7    12    1
    31    24    26    1
    32    24    23    1
    33    13    12    1
    34    13    14    1
    35     6     5    1
    36     6     8    1
    37    12    10    1
    38    39    41   am
    39    39    40    2
    40    15    14    1
    41     5     4    1
    42     9     8    1
    43    23     1    1
    44     4     1    1
    45     8    10    1
    46    10    11    1
    47     1     2    2
    48     1     3    1
