@<TRIPOS>MOLECULE
3a4z_HEM_A_1.pdb
 43 50 0 0 0
SMALL
GASTEIGER

@<TRIPOS>ATOM
      1  CHA       -1.4390  -16.3360  -35.1730 C.2   412  HEM412      0.0000
      2  CHB        0.4020  -15.9090  -30.6060 C.2   412  HEM412      0.0000
      3  CHC       -0.7160  -20.5980  -29.7210 C.2   412  HEM412      0.0000
      4  CHD       -1.8460  -21.2150  -34.4210 C.2   412  HEM412      0.0000
      5  C1A       -0.9060  -15.8100  -34.0030 C.2   412  HEM412      0.0000
      6  C2A       -0.5930  -14.4130  -33.7610 C.2   412  HEM412      0.0000
      7  C3A       -0.0690  -14.2940  -32.5200 C.2   412  HEM412      0.0000
      8  C4A       -0.0590  -15.6130  -31.9040 C.2   412  HEM412      0.0000
      9  CMA        0.3990  -12.9700  -31.8420 C.3   412  HEM412      0.0000
     10  CAA       -0.8180  -13.2630  -34.7800 C.3   412  HEM412      0.0000
     11  CBA        0.5420  -12.9220  -35.3780 C.3   412  HEM412      0.0000
     12  CGA        0.4610  -11.7720  -36.3660 C.2   412  HEM412      0.0000
     13  O1A       -0.6450  -11.2330  -36.6070 O.co2 412  HEM412      0.0000
     14  O2A        1.5110  -11.4440  -36.9740 O.co2 412  HEM412      0.0000
     15  C1B        0.2370  -17.1070  -29.9230 C.ar  412  HEM412      0.0000
     16  C2B        0.5110  -17.3950  -28.5300 C.ar  412  HEM412      0.0000
     17  C3B        0.1770  -18.6950  -28.3010 C.ar  412  HEM412      0.0000
     18  C4B       -0.2900  -19.2850  -29.5450 C.ar  412  HEM412      0.0000
     19  CMB        1.0420  -16.3910  -27.4650 C.3   412  HEM412      0.0000
     20  CAB        0.3080  -19.5180  -26.9990 C.2   412  HEM412      0.0000
     21  CBB        0.1380  -19.0310  -25.7690 C.2   412  HEM412      0.0000
     22  C1C       -1.1240  -21.1980  -30.8960 C.2   412  HEM412      0.0000
     23  C2C       -1.5320  -22.5720  -31.0730 C.2   412  HEM412      0.0000
     24  C3C       -1.8300  -22.7470  -32.3590 C.2   412  HEM412      0.0000
     25  C4C       -1.6520  -21.4830  -33.0600 C.2   412  HEM412      0.0000
     26  CMC       -1.6180  -23.6620  -29.9480 C.3   412  HEM412      0.0000
     27  CAC       -2.3080  -24.0900  -32.9620 C.2   412  HEM412      0.0000
     28  CBC       -3.3180  -24.1280  -33.8260 C.2   412  HEM412      0.0000
     29  C1D       -1.8260  -19.9940  -35.0760 C.ar  412  HEM412      0.0000
     30  C2D       -2.0660  -19.7930  -36.4900 C.ar  412  HEM412      0.0000
     31  C3D       -1.9530  -18.2840  -36.7190 C.ar  412  HEM412      0.0000
     32  C4D       -1.6260  -17.7020  -35.4420 C.ar  412  HEM412      0.0000
     33  CMD       -2.4000  -20.8630  -37.5710 C.3   412  HEM412      0.0000
     34  CAD       -2.1440  -17.5520  -38.0560 C.3   412  HEM412      0.0000
     35  CBD       -3.5940  -17.0100  -38.0740 C.3   412  HEM412      0.0000
     36  CGD       -3.8650  -16.2710  -39.3730 C.2   412  HEM412      0.0000
     37  O1D       -2.8940  -15.8910  -40.0930 O.co2 412  HEM412      0.0000
     38  O2D       -5.0460  -16.0360  -39.7120 O.co2 412  HEM412      0.0000
     39  NA        -0.5860  -16.5090  -32.8500 N.2   412  HEM412      0.0000
     40  NB        -0.2380  -18.2920  -30.5130 N.ar  412  HEM412      0.0000
     41  NC        -1.2160  -20.5830  -32.1190 N.2   412  HEM412      0.0000
     42  ND        -1.5820  -18.7360  -34.5100 N.ar  412  HEM412      0.0000
     43 FE         -1.1920  -18.5150  -32.4110 Fe    412  HEM412      0.0000
@<TRIPOS>BOND
     1    37    36   ar
     2    38    36   ar
     3    36    35    1
     4    35    34    1
     5    34    31    1
     6    33    30    1
     7    14    12   ar
     8    31    30   ar
     9    31    32   ar
    10    13    12   ar
    11    30    29   ar
    12    12    11    1
    13    32     1    2
    14    32    42   ar
    15    11    10    1
    16     1     5    1
    17    29    42   ar
    18    29     4    2
    19    10     6    1
    20    42    43    1
    21     4    25    1
    22     5     6    1
    23     5    39    2
    24    28    27    2
    25     6     7    2
    26    25    24    1
    27    25    41    2
    28    27    24    1
    29    39    43    1
    30    39     8    1
    31     7     8    1
    32     7     9    1
    33    43    41    1
    34    43    40    1
    35    24    23    2
    36    41    22    1
    37     8     2    2
    38    23    22    1
    39    23    26    1
    40    22     3    2
    41     2    15    1
    42    40    15   ar
    43    40    18   ar
    44    15    16   ar
    45     3    18    1
    46    18    17   ar
    47    16    17   ar
    48    16    19    1
    49    17    20    1
    50    20    21    2
