@<TRIPOS>MOLECULE
3a50_HEM_A_1.pdb
 43 50 0 0 0
SMALL
GASTEIGER

@<TRIPOS>ATOM
      1  CHA       -1.4610  -16.2740  -35.0250 C.2   412  HEM412      0.0000
      2  CHB        0.3610  -15.9350  -30.4910 C.2   412  HEM412      0.0000
      3  CHC       -0.6610  -20.6590  -29.6150 C.2   412  HEM412      0.0000
      4  CHD       -1.8800  -21.1340  -34.2990 C.2   412  HEM412      0.0000
      5  C1A       -0.9300  -15.7460  -33.8560 C.2   412  HEM412      0.0000
      6  C2A       -0.5810  -14.3530  -33.6020 C.2   412  HEM412      0.0000
      7  C3A       -0.0600  -14.2530  -32.3600 C.2   412  HEM412      0.0000
      8  C4A       -0.0850  -15.5850  -31.7620 C.2   412  HEM412      0.0000
      9  CMA        0.4360  -12.9510  -31.6700 C.3   412  HEM412      0.0000
     10  CAA       -0.7840  -13.2090  -34.6120 C.3   412  HEM412      0.0000
     11  CBA        0.5480  -12.9610  -35.3040 C.3   412  HEM412      0.0000
     12  CGA        0.4330  -11.7520  -36.2060 C.2   412  HEM412      0.0000
     13  O1A       -0.6680  -11.1610  -36.3730 O.co2 412  HEM412      0.0000
     14  O2A        1.4700  -11.4070  -36.8020 O.co2 412  HEM412      0.0000
     15  C1B        0.1910  -17.1530  -29.8340 C.ar  412  HEM412      0.0000
     16  C2B        0.4740  -17.4320  -28.4430 C.ar  412  HEM412      0.0000
     17  C3B        0.1730  -18.7330  -28.2030 C.ar  412  HEM412      0.0000
     18  C4B       -0.2660  -19.3340  -29.4420 C.ar  412  HEM412      0.0000
     19  CMB        0.9950  -16.3830  -27.4110 C.3   412  HEM412      0.0000
     20  CAB        0.3290  -19.5410  -26.8870 C.2   412  HEM412      0.0000
     21  CBB        0.2420  -18.9820  -25.6730 C.2   412  HEM412      0.0000
     22  C1C       -1.0970  -21.2330  -30.7920 C.2   412  HEM412      0.0000
     23  C2C       -1.5250  -22.6090  -31.0050 C.2   412  HEM412      0.0000
     24  C3C       -1.8620  -22.7430  -32.2920 C.2   412  HEM412      0.0000
     25  C4C       -1.6740  -21.4470  -32.9530 C.2   412  HEM412      0.0000
     26  CMC       -1.5980  -23.7210  -29.9190 C.3   412  HEM412      0.0000
     27  CAC       -2.3620  -24.0630  -32.9280 C.2   412  HEM412      0.0000
     28  CBC       -3.4420  -24.0530  -33.7270 C.2   412  HEM412      0.0000
     29  C1D       -1.8430  -19.9110  -34.9350 C.ar  412  HEM412      0.0000
     30  C2D       -2.0970  -19.7130  -36.3430 C.ar  412  HEM412      0.0000
     31  C3D       -1.9790  -18.2130  -36.5670 C.ar  412  HEM412      0.0000
     32  C4D       -1.6390  -17.6280  -35.2920 C.ar  412  HEM412      0.0000
     33  CMD       -2.4220  -20.7960  -37.4220 C.3   412  HEM412      0.0000
     34  CAD       -2.1530  -17.4880  -37.9060 C.3   412  HEM412      0.0000
     35  CBD       -3.6190  -17.0010  -37.9130 C.3   412  HEM412      0.0000
     36  CGD       -3.9320  -16.2370  -39.1880 C.2   412  HEM412      0.0000
     37  O1D       -2.9760  -15.8380  -39.8910 O.co2 412  HEM412      0.0000
     38  O2D       -5.1290  -16.0370  -39.5220 O.co2 412  HEM412      0.0000
     39  NA        -0.6310  -16.4540  -32.7110 N.2   412  HEM412      0.0000
     40  NB        -0.2250  -18.3430  -30.4180 N.ar  412  HEM412      0.0000
     41  NC        -1.2200  -20.5680  -31.9880 N.2   412  HEM412      0.0000
     42  ND        -1.5970  -18.6560  -34.3570 N.ar  412  HEM412      0.0000
     43 FE         -1.2140  -18.4520  -32.2720 Fe    412  HEM412      0.0000
@<TRIPOS>BOND
     1    37    36   ar
     2    38    36   ar
     3    36    35    1
     4    35    34    1
     5    34    31    1
     6    33    30    1
     7    14    12   ar
     8    31    30   ar
     9    31    32   ar
    10    13    12   ar
    11    30    29   ar
    12    12    11    1
    13    11    10    1
    14    32     1    2
    15    32    42   ar
    16     1     5    1
    17    29    42   ar
    18    29     4    2
    19    10     6    1
    20    42    43    1
    21     4    25    1
    22     5     6    1
    23     5    39    2
    24    28    27    2
    25     6     7    2
    26    25    24    1
    27    25    41    2
    28    27    24    1
    29    39    43    1
    30    39     8    1
    31     7     8    1
    32     7     9    1
    33    24    23    2
    34    43    41    1
    35    43    40    1
    36    41    22    1
    37     8     2    2
    38    23    22    1
    39    23    26    1
    40    22     3    2
    41     2    15    1
    42    40    15   ar
    43    40    18   ar
    44    15    16   ar
    45     3    18    1
    46    18    17   ar
    47    16    17   ar
    48    16    19    1
    49    17    20    1
    50    20    21    2
