@<TRIPOS>MOLECULE
3a50_VD3_A_1.pdb
 28 30 0 0 0
SMALL
GASTEIGER

@<TRIPOS>ATOM
      1  O         11.0770  -14.6340  -45.1540 O.3   2001  VD32001    -0.2228
      2  C1        12.8430  -17.9550  -45.8360 C.3   2001  VD32001     0.0287
      3  C2        12.5740  -16.4420  -45.8960 C.3   2001  VD32001     0.0379
      4  C3        11.3940  -16.0240  -45.0040 C.3   2001  VD32001     0.1567
      5  C4        11.7400  -16.3130  -43.5480 C.3   2001  VD32001     0.0589
      6  C5        11.9430  -17.8080  -43.4260 C.2   2001  VD32001    -0.0236
      7  C7        11.3320  -18.4920  -42.4460 C.2   2001  VD32001    -0.0051
      8  C8        10.4480  -17.8480  -41.4660 C.2   2001  VD32001    -0.0088
      9  C9         9.1300  -18.0630  -41.6370 C.2   2001  VD32001    -0.0446
     10  C10        8.6440  -18.9610  -42.7520 C.3   2001  VD32001     0.0220
     11  C6        12.7850  -18.4990  -44.4120 C.2   2001  VD32001    -0.0260
     12  C11        7.9910  -20.1690  -42.0800 C.3   2001  VD32001     0.0044
     13  C12        7.0000  -19.7960  -40.9580 C.3   2001  VD32001     0.0006
     14  C13        7.5110  -18.7590  -39.9600 C.3   2001  VD32001     0.0034
     15  C14        8.0090  -17.5630  -40.7620 C.3   2001  VD32001     0.0183
     16  C15        8.1700  -16.4270  -39.7530 C.3   2001  VD32001     0.0040
     17  C16        6.9940  -16.6850  -38.7930 C.3   2001  VD32001     0.0003
     18  C17        6.4530  -18.1030  -39.0760 C.3   2001  VD32001     0.0003
     19  C18        8.6190  -19.4050  -39.0990 C.3   2001  VD32001     0.0003
     20  C19       13.4650  -19.5890  -44.0880 C.2   2001  VD32001    -0.0049
     21  C20        6.0930  -18.9030  -37.8150 C.3   2001  VD32001     0.0000
     22  C21        5.1690  -20.0680  -38.1520 C.3   2001  VD32001     0.0000
     23  C22        5.5340  -18.0100  -36.7040 C.3   2001  VD32001     0.0000
     24  C23        4.7390  -18.7480  -35.6290 C.3   2001  VD32001     0.0000
     25  C24        3.4150  -18.0110  -35.4570 C.3   2001  VD32001     0.0000
     26  C25        3.0190  -17.9130  -33.9970 C.3   2001  VD32001     0.0000
     27  C26        2.8250  -16.4590  -33.5680 C.3   2001  VD32001     0.0000
     28  C27        1.7590  -18.7390  -33.8290 C.3   2001  VD32001     0.0000
@<TRIPOS>BOND
     1     3     2    1
     2     3     4    1
     3     2    11    1
     4     1     4    1
     5     4     5    1
     6    11    20    2
     7    11     6    1
     8     5     6    1
     9     6     7    2
    10    10    12    1
    11    10     9    1
    12     7     8    1
    13    12    13    1
    14     9     8    2
    15     9    15    1
    16    13    14    1
    17    15    14    1
    18    15    16    1
    19    14    19    1
    20    14    18    1
    21    16    17    1
    22    18    17    1
    23    18    21    1
    24    22    21    1
    25    21    23    1
    26    23    24    1
    27    24    25    1
    28    25    26    1
    29    26    28    1
    30    26    27    1
