@<TRIPOS>MOLECULE
3a51_VDY_A_1.pdb
 29 31 0 0 0
SMALL
GASTEIGER

@<TRIPOS>ATOM
      1  O1         1.1490  -18.6760  -33.1490 O.3   6178  VDY6178    -0.2228
      2  O2        12.3090  -17.7740  -44.9560 O.3   6178  VDY6178    -0.2257
      3  C1         3.8180  -17.3200  -32.9240 C.3   6178  VDY6178     0.0286
      4  C2         2.6450  -16.7610  -33.7360 C.3   6178  VDY6178     0.0379
      5  C3         1.7200  -17.9090  -34.2280 C.3   6178  VDY6178     0.1567
      6  C4         2.3670  -18.8980  -35.1970 C.3   6178  VDY6178     0.0586
      7  C5         3.8130  -19.0630  -34.8120 C.2   6178  VDY6178    -0.0278
      8  C6         4.7600  -19.6290  -35.5290 C.2   6178  VDY6178    -0.0306
      9  C7         5.0080  -20.1540  -36.8390 C.3   6178  VDY6178     0.0257
     10  C8         5.5180  -19.1560  -37.6030 C.3   6178  VDY6178     0.0043
     11  C9         5.6220  -17.7520  -37.0460 C.3   6178  VDY6178     0.0003
     12  C10        4.3880  -18.5830  -33.5600 C.2   6178  VDY6178    -0.0263
     13  C11        5.5030  -16.6790  -38.1470 C.3   6178  VDY6178     0.0000
     14  C12        6.3210  -16.9430  -39.4210 C.3   6178  VDY6178     0.0000
     15  C13        7.0260  -18.3000  -39.4170 C.3   6178  VDY6178     0.0000
     16  C14        5.9840  -19.3540  -39.0140 C.3   6178  VDY6178     0.0003
     17  C15        6.6910  -20.6890  -39.2600 C.3   6178  VDY6178     0.0000
     18  C16        7.6470  -20.3920  -40.4240 C.3   6178  VDY6178     0.0000
     19  C17        7.4640  -18.9000  -40.7590 C.3   6178  VDY6178     0.0000
     20  C18        8.2790  -18.2160  -38.5000 C.3   6178  VDY6178     0.0000
     21  C19        5.4630  -19.2070  -33.0560 C.2   6178  VDY6178    -0.0049
     22  C20        8.6880  -18.3280  -41.5170 C.3   6178  VDY6178     0.0000
     23  C21        8.5660  -16.8450  -41.8290 C.3   6178  VDY6178     0.0000
     24  C22        8.9020  -19.1320  -42.8090 C.3   6178  VDY6178     0.0001
     25  C23       10.0660  -18.6320  -43.6730 C.3   6178  VDY6178     0.0025
     26  C24       11.4060  -18.9680  -43.0200 C.3   6178  VDY6178     0.0304
     27  C25       12.6320  -18.6970  -43.8930 C.3   6178  VDY6178     0.1268
     28  C26       13.7160  -18.0580  -43.0370 C.3   6178  VDY6178     0.0329
     29  C27       13.1200  -20.0070  -44.4990 C.3   6178  VDY6178     0.0329
@<TRIPOS>BOND
     1     2    27    1
     2    29    27    1
     3    27    28    1
     4    27    26    1
     5    25    26    1
     6    25    24    1
     7    24    22    1
     8    23    22    1
     9    22    19    1
    10    19    18    1
    11    19    15    1
    12    18    17    1
    13    14    15    1
    14    14    13    1
    15    15    16    1
    16    15    20    1
    17    17    16    1
    18    16    10    1
    19    13    11    1
    20    10    11    1
    21    10     9    1
    22     9     8    1
    23     8     7    2
    24     6     7    1
    25     6     5    1
    26     7    12    1
    27     5     4    1
    28     5     1    1
    29     4     3    1
    30    12    21    2
    31    12     3    1
