@<TRIPOS>MOLECULE
3a51_HEM_A_1.pdb
 43 50 0 0 0
SMALL
GASTEIGER

@<TRIPOS>ATOM
      1  CHA       -1.5200  -16.1690  -34.9830 C.2   412  HEM412      0.0000
      2  CHB        0.3560  -15.7700  -30.4910 C.2   412  HEM412      0.0000
      3  CHC       -0.6590  -20.5180  -29.6590 C.2   412  HEM412      0.0000
      4  CHD       -1.7960  -21.0430  -34.3510 C.2   412  HEM412      0.0000
      5  C1A       -1.0060  -15.6390  -33.8170 C.2   412  HEM412      0.0000
      6  C2A       -0.6560  -14.2430  -33.6000 C.2   412  HEM412      0.0000
      7  C3A       -0.1320  -14.1240  -32.3670 C.2   412  HEM412      0.0000
      8  C4A       -0.1050  -15.4420  -31.7620 C.2   412  HEM412      0.0000
      9  CMA        0.3620  -12.8260  -31.6810 C.3   412  HEM412      0.0000
     10  CAA       -0.9130  -13.1280  -34.6410 C.3   412  HEM412      0.0000
     11  CBA        0.4110  -12.8440  -35.3340 C.3   412  HEM412      0.0000
     12  CGA        0.3530  -11.6370  -36.2360 C.2   412  HEM412      0.0000
     13  O1A       -0.7260  -11.0490  -36.4230 O.co2 412  HEM412      0.0000
     14  O2A        1.3940  -11.2960  -36.8390 O.co2 412  HEM412      0.0000
     15  C1B        0.1780  -16.9950  -29.8400 C.ar  412  HEM412      0.0000
     16  C2B        0.4020  -17.2830  -28.4480 C.ar  412  HEM412      0.0000
     17  C3B        0.1180  -18.5680  -28.2030 C.ar  412  HEM412      0.0000
     18  C4B       -0.2840  -19.1940  -29.4480 C.ar  412  HEM412      0.0000
     19  CMB        0.8640  -16.2970  -27.3430 C.3   412  HEM412      0.0000
     20  CAB        0.2610  -19.1240  -26.7610 C.2   412  HEM412      0.0000
     21  CBB        0.5010  -20.3960  -26.6180 C.2   412  HEM412      0.0000
     22  C1C       -1.0370  -21.1010  -30.8520 C.2   412  HEM412      0.0000
     23  C2C       -1.4420  -22.4830  -31.0590 C.2   412  HEM412      0.0000
     24  C3C       -1.7670  -22.6380  -32.3420 C.2   412  HEM412      0.0000
     25  C4C       -1.5750  -21.3380  -33.0080 C.2   412  HEM412      0.0000
     26  CMC       -1.4850  -23.5510  -29.9300 C.3   412  HEM412      0.0000
     27  CAC       -2.1990  -23.9680  -33.0100 C.2   412  HEM412      0.0000
     28  CBC       -3.2940  -24.0450  -33.7650 C.2   412  HEM412      0.0000
     29  C1D       -1.8100  -19.8000  -34.9490 C.ar  412  HEM412      0.0000
     30  C2D       -2.0390  -19.5930  -36.3550 C.ar  412  HEM412      0.0000
     31  C3D       -1.9590  -18.0990  -36.5700 C.ar  412  HEM412      0.0000
     32  C4D       -1.6470  -17.5280  -35.2800 C.ar  412  HEM412      0.0000
     33  CMD       -2.3110  -20.6970  -37.4330 C.3   412  HEM412      0.0000
     34  CAD       -2.1480  -17.3840  -37.9230 C.3   412  HEM412      0.0000
     35  CBD       -3.6280  -16.9160  -37.9360 C.3   412  HEM412      0.0000
     36  CGD       -3.9660  -16.1330  -39.1770 C.2   412  HEM412      0.0000
     37  O1D       -3.0420  -15.6510  -39.8790 O.co2 412  HEM412      0.0000
     38  O2D       -5.1690  -15.9910  -39.5070 O.co2 412  HEM412      0.0000
     39  NA        -0.6600  -16.3360  -32.6800 N.2   412  HEM412      0.0000
     40  NB        -0.2220  -18.1950  -30.4150 N.ar  412  HEM412      0.0000
     41  NC        -1.1720  -20.4390  -32.0420 N.2   412  HEM412      0.0000
     42  ND        -1.5810  -18.5650  -34.3610 N.ar  412  HEM412      0.0000
     43 FE         -1.0890  -18.3730  -32.3110 Fe    412  HEM412      0.0000
@<TRIPOS>BOND
     1    37    36   ar
     2    38    36   ar
     3    36    35    1
     4    35    34    1
     5    34    31    1
     6    33    30    1
     7    14    12   ar
     8    31    30   ar
     9    31    32   ar
    10    13    12   ar
    11    30    29   ar
    12    12    11    1
    13    11    10    1
    14    32     1    2
    15    32    42   ar
    16     1     5    1
    17    29    42   ar
    18    29     4    2
    19    10     6    1
    20    42    43    1
    21     4    25    1
    22     5     6    1
    23     5    39    2
    24    28    27    2
    25     6     7    2
    26    27    24    1
    27    25    24    1
    28    25    41    2
    29    39    43    1
    30    39     8    1
    31     7     8    1
    32     7     9    1
    33    24    23    2
    34    43    41    1
    35    43    40    1
    36    41    22    1
    37     8     2    2
    38    23    22    1
    39    23    26    1
    40    22     3    2
    41     2    15    1
    42    40    15   ar
    43    40    18   ar
    44    15    16   ar
    45     3    18    1
    46    18    17   ar
    47    16    17   ar
    48    16    19    1
    49    17    20    1
    50    20    21    2
