@<TRIPOS>MOLECULE
3a58_GNP_B_1.pdb
 32 34 0 0 0
SMALL
GASTEIGER

@<TRIPOS>ATOM
      1  PG       100.4830   26.9000   26.1200 P.3   301  GNP301      0.4884
      2  O1G      100.9760   28.0680   25.3090 O.2   301  GNP301     -0.2331
      3  O2G       99.2310   26.2400   25.5490 O.3   301  GNP301     -0.1240
      4  O3G      101.6820   26.0050   26.1800 O.3   301  GNP301     -0.1240
      5  N3B      100.1540   27.3070   27.6550 N.3   301  GNP301     -0.0163
      6  PB        99.1850   28.5240   28.0640 P.3   301  GNP301      0.4669
      7  O1B       99.6950   29.7670   27.4610 O.2   301  GNP301     -0.2351
      8  O2B       97.8210   28.1160   27.6600 O.3   301  GNP301     -0.1253
      9  O3A       99.2190   28.7200   29.5940 O.3   301  GNP301     -0.2360
     10  PA        98.7510   27.6910   30.6530 P.3   301  GNP301      0.2220
     11  O1A       97.2800   27.8560   30.8010 O.3   301  GNP301     -0.4370
     12  O2A       99.1940   26.3210   30.2640 O.2   301  GNP301     -0.5170
     13  O5'       99.4610   28.0330   32.0460 O.3   301  GNP301     -0.3111
     14  C5'      100.8750   28.2250   32.1240 C.3   301  GNP301      0.1813
     15  C4'      101.4420   28.1890   33.5470 C.3   301  GNP301      0.1799
     16  O4'      101.1970   29.4260   34.2790 O.3   301  GNP301     -0.3326
     17  C3'      100.9290   27.0890   34.4790 C.3   301  GNP301      0.2158
     18  O3'      101.9990   26.6500   35.3160 O.3   301  GNP301     -0.2175
     19  C2'       99.8260   27.7740   35.2910 C.3   301  GNP301      0.2310
     20  O2'       99.6440   27.2570   36.5970 O.3   301  GNP301     -0.2158
     21  C1'      100.2680   29.2370   35.3410 C.3   301  GNP301      0.2293
     22  N9        99.1640   30.2140   35.3050 N.pl3 301  GNP301     -0.2354
     23  C8        98.1420   30.3260   34.3770 C.3   301  GNP301      0.2246
     24  N7        97.3060   31.3020   34.6310 N.2   301  GNP301     -0.2322
     25  C5        97.7970   31.8780   35.7960 C.2   301  GNP301      0.2182
     26  C6        97.3120   32.9910   36.5750 C.1   301  GNP301      0.2372
     27  O6        96.3060   33.7010   36.3560 O.2   301  GNP301     -0.2069
     28  N1        98.1210   33.2580   37.7100 N.2   301  GNP301     -0.2485
     29  C2        99.2590   32.5380   38.0530 C.1   301  GNP301      0.2531
     30  N2        99.9110   32.9160   39.1590 N.pl3 301  GNP301     -0.0226
     31  N3        99.7150   31.5000   37.3330 N.2   301  GNP301     -0.3074
     32  C4        98.9440   31.2220   36.2230 C.2   301  GNP301      0.2300
@<TRIPOS>BOND
     1     2     1    2
     2     3     1    1
     3     1     4    1
     4     1     5    1
     5     7     6    2
     6     5     6    1
     7     8     6    1
     8     6     9    1
     9     9    10    1
    10    12    10    2
    11    10    11    1
    12    10    13    1
    13    13    14    1
    14    14    15    1
    15    15    16    1
    16    15    17    1
    17    16    21    1
    18    23    24    1
    19    23    22    1
    20    17    19    1
    21    17    18    1
    22    24    25    2
    23    19    21    1
    24    19    20    1
    25    22    21    1
    26    22    32    1
    27    25    32    1
    28    25    26    1
    29    32    31    2
    30    27    26    2
    31    26    28    2
    32    31    29    2
    33    28    29    2
    34    29    30    1
