@<TRIPOS>MOLECULE
3a59_HEM_A_1.pdb
 43 50 0 0 0
SMALL
GASTEIGER

@<TRIPOS>ATOM
      1 FE        -15.5550   -3.6980   13.6710 Fe    150  HEM150      0.0000
      2  CHA      -17.7690   -5.8190   15.1120 C.2   150  HEM150      0.0000
      3  CHB      -15.7670   -1.5530   16.3100 C.2   150  HEM150      0.0000
      4  CHC      -12.8530   -1.6970   12.4200 C.2   150  HEM150      0.0000
      5  CHD      -15.3010   -5.6100   10.8720 C.2   150  HEM150      0.0000
      6  NA       -16.4960   -3.7520   15.4540 N.2   150  HEM150      0.0000
      7  C1A      -17.5500   -4.6050   15.7260 C.2   150  HEM150      0.0000
      8  C2A      -18.3600   -3.9910   16.7570 C.2   150  HEM150      0.0000
      9  C3A      -17.7970   -2.8200   17.0770 C.2   150  HEM150      0.0000
     10  C4A      -16.6150   -2.6420   16.2670 C.2   150  HEM150      0.0000
     11  CMA      -18.2950   -1.8080   18.1270 C.3   150  HEM150      0.0000
     12  CAA      -19.6430   -4.5900   17.3700 C.3   150  HEM150      0.0000
     13  CBA      -19.3160   -5.3460   18.6540 C.3   150  HEM150      0.0000
     14  CGA      -20.3360   -6.4420   18.8280 C.2   150  HEM150      0.0000
     15  O1A      -19.9320   -7.6160   19.0590 O.co2 150  HEM150      0.0000
     16  O2A      -21.5620   -6.1450   18.7270 O.co2 150  HEM150      0.0000
     17  NB       -14.5220   -1.9070   14.2120 N.ar  150  HEM150      0.0000
     18  C1B      -14.7400   -1.2700   15.4240 C.ar  150  HEM150      0.0000
     19  C2B      -13.7010   -0.2620   15.5890 C.ar  150  HEM150      0.0000
     20  C3B      -12.9060   -0.3060   14.5190 C.ar  150  HEM150      0.0000
     21  C4B      -13.3980   -1.3370   13.6300 C.ar  150  HEM150      0.0000
     22  CMB      -13.5340    0.6990   16.7860 C.3   150  HEM150      0.0000
     23  CAB      -11.6750    0.5940   14.2780 C.2   150  HEM150      0.0000
     24  CBB      -11.3880    1.5550   15.2200 C.2   150  HEM150      0.0000
     25  NC       -14.3330   -3.6200   11.9440 N.2   150  HEM150      0.0000
     26  C1C      -13.2440   -2.7950   11.6820 C.2   150  HEM150      0.0000
     27  C2C      -12.5840   -3.2920   10.4950 C.2   150  HEM150      0.0000
     28  C3C      -13.2560   -4.3610   10.0740 C.2   150  HEM150      0.0000
     29  C4C      -14.3700   -4.5980   10.9690 C.2   150  HEM150      0.0000
     30  CMC      -11.3260   -2.6920    9.8330 C.3   150  HEM150      0.0000
     31  CAC      -12.8920   -5.1900    8.8290 C.2   150  HEM150      0.0000
     32  CBC      -13.0170   -4.6370    7.6160 C.2   150  HEM150      0.0000
     33  ND       -16.3610   -5.4870   13.1150 N.ar  150  HEM150      0.0000
     34  C1D      -16.2220   -6.0050   11.8280 C.ar  150  HEM150      0.0000
     35  C2D      -17.2150   -7.0430   11.6520 C.ar  150  HEM150      0.0000
     36  C3D      -17.9820   -7.1130   12.9800 C.ar  150  HEM150      0.0000
     37  C4D      -17.3840   -6.1120   13.8240 C.ar  150  HEM150      0.0000
     38  CMD      -17.4390   -7.9000   10.3910 C.3   150  HEM150      0.0000
     39  CAD      -19.1560   -8.0370   13.3490 C.3   150  HEM150      0.0000
     40  CBD      -20.4400   -7.3270   12.9200 C.3   150  HEM150      0.0000
     41  CGD      -21.6000   -8.2880   12.9420 C.2   150  HEM150      0.0000
     42  O1D      -22.4760   -8.1440   13.8420 O.co2 150  HEM150      0.0000
     43  O2D      -21.6470   -9.1880   12.0610 O.co2 150  HEM150      0.0000
@<TRIPOS>BOND
     1    32    31    2
     2    31    28    1
     3    30    27    1
     4    28    27    2
     5    28    29    1
     6    38    35    1
     7    27    26    1
     8     5    29    1
     9     5    34    2
    10    29    25    2
    11    35    34   ar
    12    35    36   ar
    13    26    25    1
    14    26     4    2
    15    34    33   ar
    16    25     1    1
    17    43    41   ar
    18     4    21    1
    19    40    41    1
    20    40    39    1
    21    41    42   ar
    22    36    39    1
    23    36    37   ar
    24    33     1    1
    25    33    37   ar
    26    21    17   ar
    27    21    20   ar
    28     1    17    1
    29     1     6    1
    30    37     2    2
    31    17    18   ar
    32    23    20    1
    33    23    24    2
    34    20    19   ar
    35     2     7    1
    36    18    19   ar
    37    18     3    1
    38     6     7    2
    39     6    10    1
    40    19    22    1
    41     7     8    1
    42    10     3    2
    43    10     9    1
    44     8     9    2
    45     8    12    1
    46     9    11    1
    47    12    13    1
    48    13    14    1
    49    16    14   ar
    50    14    15   ar
