@<TRIPOS>MOLECULE
3a5a_HEM_A_1.pdb
 43 50 0 0 0
SMALL
GASTEIGER

@<TRIPOS>ATOM
      1  CHA        4.8380    2.4140   -0.7060 C.2   153  HEM153      0.0000
      2  CHB        9.2190    3.4940    1.1800 C.2   153  HEM153      0.0000
      3  CHC        9.4730    7.3050   -1.8210 C.2   153  HEM153      0.0000
      4  CHD        4.9870    6.3900   -3.4550 C.2   153  HEM153      0.0000
      5  C1A        5.9490    2.4490    0.1770 C.2   153  HEM153      0.0000
      6  C2A        6.2410    1.4890    1.2430 C.2   153  HEM153      0.0000
      7  C3A        7.4900    1.7670    1.7250 C.2   153  HEM153      0.0000
      8  C4A        7.9970    2.8880    0.9700 C.2   153  HEM153      0.0000
      9  CMA        8.2430    1.0700    2.8620 C.3   153  HEM153      0.0000
     10  CAA        5.2710    0.4070    1.7130 C.3   153  HEM153      0.0000
     11  CBA        5.3320   -0.8790    0.8940 C.3   153  HEM153      0.0000
     12  CGA        4.7700   -0.5980   -0.4810 C.2   153  HEM153      0.0000
     13  O1A        5.5490   -0.0380   -1.2960 O.co2 153  HEM153      0.0000
     14  O2A        3.5710   -0.8450   -0.6600 O.co2 153  HEM153      0.0000
     15  C1B        9.6900    4.5910    0.4880 C.ar  153  HEM153      0.0000
     16  C2B       10.9830    5.2200    0.7110 C.ar  153  HEM153      0.0000
     17  C3B       11.0770    6.2850   -0.1180 C.ar  153  HEM153      0.0000
     18  C4B        9.8150    6.3380   -0.8900 C.ar  153  HEM153      0.0000
     19  CMB       12.0390    4.7680    1.7240 C.3   153  HEM153      0.0000
     20  CAB       12.2480    7.2630   -0.2140 C.3   153  HEM153      0.0000
     21  CBB       12.8650    7.3950   -1.6200 C.3   153  HEM153      0.0000
     22  C1C        8.2590    7.4130   -2.4510 C.2   153  HEM153      0.0000
     23  C2C        7.8560    8.5780   -3.2100 C.2   153  HEM153      0.0000
     24  C3C        6.5590    8.3070   -3.6630 C.2   153  HEM153      0.0000
     25  C4C        6.1920    6.9970   -3.2070 C.2   153  HEM153      0.0000
     26  CMC        8.7480    9.8300   -3.4230 C.3   153  HEM153      0.0000
     27  CAC        5.5830    9.2020   -4.5040 C.2   153  HEM153      0.0000
     28  CBC        5.8670   10.4500   -4.9900 C.2   153  HEM153      0.0000
     29  C1D        4.5980    5.1680   -2.8840 C.ar  153  HEM153      0.0000
     30  C2D        3.2420    4.5860   -3.1940 C.ar  153  HEM153      0.0000
     31  C3D        3.1200    3.5460   -2.2430 C.ar  153  HEM153      0.0000
     32  C4D        4.4680    3.4360   -1.5740 C.ar  153  HEM153      0.0000
     33  CMD        2.1980    5.3360   -3.9880 C.3   153  HEM153      0.0000
     34  CAD        1.7630    2.8620   -1.7820 C.3   153  HEM153      0.0000
     35  CBD        0.7020    3.9670   -1.2150 C.3   153  HEM153      0.0000
     36  CGD       -0.6290    3.7920   -0.4600 C.2   153  HEM153      0.0000
     37  O1D       -0.6440    3.0470    0.5660 O.co2 153  HEM153      0.0000
     38  O2D       -1.5930    4.5120   -0.8310 O.co2 153  HEM153      0.0000
     39  NA         7.0490    3.2330    0.0520 N.2   153  HEM153      0.0000
     40  NB         9.0340    5.2910   -0.4870 N.ar  153  HEM153      0.0000
     41  NC         7.2280    6.5110   -2.4570 N.2   153  HEM153      0.0000
     42  ND         5.2290    4.4720   -1.9320 N.ar  153  HEM153      0.0000
     43 FE          7.1830    4.8540   -1.2220 Fe    153  HEM153      0.0000
@<TRIPOS>BOND
     1    28    27    2
     2    27    24    1
     3    33    30    1
     4    24    23    2
     5    24    25    1
     6     4    25    1
     7     4    29    2
     8    26    23    1
     9    23    22    1
    10    25    41    2
    11    30    29   ar
    12    30    31   ar
    13    29    42   ar
    14    41    22    1
    15    41    43    1
    16    22     3    2
    17    31    34    1
    18    31    32   ar
    19    42    32   ar
    20    42    43    1
    21     3    18    1
    22    34    35    1
    23    21    20    1
    24    32     1    2
    25    13    12   ar
    26    43    40    1
    27    43    39    1
    28    35    36    1
    29    18    40   ar
    30    18    17   ar
    31    38    36   ar
    32     1     5    1
    33    14    12   ar
    34    40    15   ar
    35    12    11    1
    36    36    37   ar
    37    20    17    1
    38    17    16   ar
    39    39     5    2
    40    39     8    1
    41     5     6    1
    42    15    16   ar
    43    15     2    1
    44    16    19    1
    45    11    10    1
    46     8     2    2
    47     8     7    1
    48     6    10    1
    49     6     7    2
    50     7     9    1
