@<TRIPOS>MOLECULE
3a5b_HEM_A_1.pdb
 43 50 0 0 0
SMALL
GASTEIGER

@<TRIPOS>ATOM
      1  CHA        0.6240   20.6350   -1.1430 C.2   153  HEM153      0.0000
      2  CHB       -1.5480   24.7910   -2.4940 C.2   153  HEM153      0.0000
      3  CHC        1.5700   24.9560   -6.3020 C.2   153  HEM153      0.0000
      4  CHD        3.2770   20.5590   -5.2690 C.2   153  HEM153      0.0000
      5  C1A       -0.2100   21.7440   -1.1610 C.2   153  HEM153      0.0000
      6  C2A       -1.2080   22.0530   -0.1380 C.2   153  HEM153      0.0000
      7  C3A       -1.8650   23.1960   -0.5360 C.2   153  HEM153      0.0000
      8  C4A       -1.2850   23.5840   -1.8340 C.2   153  HEM153      0.0000
      9  CMA       -3.0750   23.8600    0.1290 C.3   153  HEM153      0.0000
     10  CAA       -1.4580   21.2190    1.1320 C.3   153  HEM153      0.0000
     11  CBA       -1.0200   21.8400    2.4610 C.3   153  HEM153      0.0000
     12  CGA       -1.3490   20.9520    3.6600 C.2   153  HEM153      0.0000
     13  O1A       -1.2110   19.7180    3.5070 O.co2 153  HEM153      0.0000
     14  O2A       -1.7130   21.5300    4.7050 O.co2 153  HEM153      0.0000
     15  C1B       -0.8450   25.2250   -3.6050 C.ar  153  HEM153      0.0000
     16  C2B       -1.0970   26.4440   -4.3020 C.ar  153  HEM153      0.0000
     17  C3B       -0.2730   26.4400   -5.3990 C.ar  153  HEM153      0.0000
     18  C4B        0.5680   25.2790   -5.3350 C.ar  153  HEM153      0.0000
     19  CMB       -2.2110   27.4340   -3.9620 C.3   153  HEM153      0.0000
     20  CAB       -0.1170   27.5810   -6.1960 C.3   153  HEM153      0.0000
     21  CBB        1.0980   28.3660   -6.4720 C.3   153  HEM153      0.0000
     22  C1C        2.1980   23.7530   -6.3990 C.2   153  HEM153      0.0000
     23  C2C        3.0000   23.3750   -7.5520 C.2   153  HEM153      0.0000
     24  C3C        3.4200   22.1030   -7.2870 C.2   153  HEM153      0.0000
     25  C4C        2.9870   21.7370   -5.9300 C.2   153  HEM153      0.0000
     26  CMC        3.2190   24.2260   -8.8070 C.3   153  HEM153      0.0000
     27  CAC        4.2870   21.2690   -8.1600 C.2   153  HEM153      0.0000
     28  CBC        4.5820   21.3510   -9.3560 C.2   153  HEM153      0.0000
     29  C1D        2.7230   20.2210   -4.0330 C.ar  153  HEM153      0.0000
     30  C2D        2.9820   18.9600   -3.3460 C.ar  153  HEM153      0.0000
     31  C3D        2.3450   18.9710   -2.0380 C.ar  153  HEM153      0.0000
     32  C4D        1.5800   20.2630   -2.1140 C.ar  153  HEM153      0.0000
     33  CMD        3.8650   17.8320   -3.8700 C.3   153  HEM153      0.0000
     34  CAD        2.2850   17.8450   -0.7400 C.3   153  HEM153      0.0000
     35  CBD        1.3480   16.9990   -1.1870 C.3   153  HEM153      0.0000
     36  CGD        1.4710   15.9280   -2.1730 C.2   153  HEM153      0.0000
     37  O1D        2.3550   15.0240   -1.7300 O.co2 153  HEM153      0.0000
     38  O2D        0.8090   15.8580   -3.1830 O.co2 153  HEM153      0.0000
     39  NA        -0.2750   22.7180   -2.1140 N.2   153  HEM153      0.0000
     40  NB         0.1520   24.5550   -4.2790 N.ar  153  HEM153      0.0000
     41  NC         2.1590   22.7460   -5.4830 N.2   153  HEM153      0.0000
     42  ND         1.8190   20.9290   -3.2830 N.ar  153  HEM153      0.0000
     43 FE          0.9350   22.7340   -3.7660 Fe    153  HEM153      0.0000
@<TRIPOS>BOND
     1    28    27    2
     2    26    23    1
     3    27    24    1
     4    23    24    2
     5    23    22    1
     6    24    25    1
     7    21    20    1
     8    22     3    2
     9    22    41    1
    10     3    18    1
    11    20    17    1
    12    25    41    2
    13    25     4    1
    14    41    43    1
    15    17    18   ar
    16    17    16   ar
    17    18    40   ar
    18     4    29    2
    19    16    19    1
    20    16    15   ar
    21    40    43    1
    22    40    15   ar
    23    29    30   ar
    24    29    42   ar
    25    33    30    1
    26    43    42    1
    27    43    39    1
    28    15     2    1
    29    30    31   ar
    30    42    32   ar
    31    38    36   ar
    32     2     8    2
    33    36    37   ar
    34    36    35    1
    35    39     8    1
    36    39     5    2
    37    32    31   ar
    38    32     1    2
    39    31    34    1
    40     8     7    1
    41    35    34    1
    42     5     1    1
    43     5     6    1
    44     7     6    2
    45     7     9    1
    46     6    10    1
    47    10    11    1
    48    11    12    1
    49    13    12   ar
    50    12    14   ar
