@<TRIPOS>MOLECULE
3a5c_ADP_A_1.pdb
 27 29 0 0 0
SMALL
GASTEIGER

@<TRIPOS>ATOM
      1  PB       101.4050   65.1150   46.1830 P.3   600  ADP600      0.5373
      2  O1B      101.6340   66.3580   46.9790 O.3   600  ADP600     -0.1143
      3  O2B      100.3590   64.2960   46.7720 O.3   600  ADP600     -0.1143
      4  O3B      101.1740   65.4170   44.7630 O.2   600  ADP600     -0.2221
      5  PA       103.2100   62.9400   46.9730 P.3   600  ADP600      0.2231
      6  O1A      102.6780   62.8010   48.3020 O.3   600  ADP600     -0.4370
      7  O2A      102.8140   61.7650   46.1300 O.2   600  ADP600     -0.5169
      8  O3A      102.8190   64.3000   46.1550 O.3   600  ADP600     -0.2261
      9  O5'      104.7920   63.0400   46.9960 O.3   600  ADP600     -0.3111
     10  C5'      105.5850   63.1560   45.7970 C.3   600  ADP600      0.1813
     11  C4'      106.9010   62.4460   45.9970 C.3   600  ADP600      0.1821
     12  O4'      107.7800   63.2480   46.8240 O.3   600  ADP600     -0.3135
     13  C3'      106.8150   61.0900   46.7530 C.3   600  ADP600      0.2184
     14  O3'      106.4920   60.0590   45.8330 O.3   600  ADP600     -0.2174
     15  C2'      108.2870   60.9470   47.1640 C.3   600  ADP600      0.2570
     16  O2'      109.0930   60.6000   46.0530 O.3   600  ADP600     -0.2130
     17  C1'      108.5650   62.3790   47.6670 C.3   600  ADP600      0.3186
     18  N9       108.1130   62.5410   49.0590 N.pl3 600  ADP600     -0.1439
     19  C8       106.9560   63.0940   49.5140 C.3   600  ADP600      0.3377
     20  N7       106.8330   63.0630   50.8290 N.2   600  ADP600     -0.2095
     21  C5       107.9720   62.4000   51.2550 C.2   600  ADP600      0.2526
     22  C6       108.4300   62.0610   52.5530 C.2   600  ADP600      0.4393
     23  N6       107.7540   62.3670   53.6590 N.pl3 600  ADP600      0.2180
     24  N1       109.6250   61.4150   52.6350 N.2   600  ADP600      0.0021
     25  C2       110.3150   61.1670   51.4870 C.3   600  ADP600      0.5254
     26  N3       109.9710   61.4460   50.2530 N.2   600  ADP600     -0.0055
     27  C4       108.7700   62.0690   50.1930 C.2   600  ADP600      0.3518
@<TRIPOS>BOND
     1     4     1    2
     2    10    11    1
     3    10     9    1
     4    14    13    1
     5    11    13    1
     6    11    12    1
     7    16    15    1
     8     7     5    2
     9     8     1    1
    10     8     5    1
    11     1     3    1
    12     1     2    1
    13    13    15    1
    14    12    17    1
    15     5     9    1
    16     5     6    1
    17    15    17    1
    18    17    18    1
    19    18    19    1
    20    18    27    1
    21    19    20    1
    22    27    26    2
    23    27    21    1
    24    26    25    1
    25    20    21    2
    26    21    22    1
    27    25    24    1
    28    22    24    2
    29    22    23    1
