@<TRIPOS>MOLECULE
3a5g_HEM_A_1.pdb
 43 50 0 0 0
SMALL
GASTEIGER

@<TRIPOS>ATOM
      1  CHA       16.0290   20.9090    1.1900 C.2   153  HEM153      0.0000
      2  CHB       18.3210   25.0620    2.5440 C.2   153  HEM153      0.0000
      3  CHC       15.2210   25.3840    6.3850 C.2   153  HEM153      0.0000
      4  CHD       13.4920   20.8840    5.4270 C.2   153  HEM153      0.0000
      5  C1A       16.8700   22.0380    1.1740 C.ar  153  HEM153      0.0000
      6  C2A       17.8760   22.3540    0.1920 C.ar  153  HEM153      0.0000
      7  C3A       18.6250   23.4090    0.6380 C.ar  153  HEM153      0.0000
      8  C4A       18.0180   23.8610    1.8600 C.ar  153  HEM153      0.0000
      9  CMA       19.8550   24.0280   -0.0310 C.3   153  HEM153      0.0000
     10  CAA       18.1790   21.4560   -1.0220 C.3   153  HEM153      0.0000
     11  CBA       17.6450   22.1930   -2.2920 C.3   153  HEM153      0.0000
     12  CGA       17.7760   21.3670   -3.5480 C.2   153  HEM153      0.0000
     13  O1A       17.7230   20.1180   -3.4300 O.co2 153  HEM153      0.0000
     14  O2A       17.9140   22.0080   -4.6070 O.co2 153  HEM153      0.0000
     15  C1B       17.6580   25.5080    3.7010 C.2   153  HEM153      0.0000
     16  C2B       17.9100   26.7750    4.3670 C.2   153  HEM153      0.0000
     17  C3B       16.9880   26.9050    5.3350 C.2   153  HEM153      0.0000
     18  C4B       16.2270   25.6440    5.4380 C.2   153  HEM153      0.0000
     19  CMB       18.9990   27.7770    4.0070 C.3   153  HEM153      0.0000
     20  CAB       16.7220   27.9990    6.4630 C.3   153  HEM153      0.0000
     21  CBB       15.4380   28.3200    6.8500 C.3   153  HEM153      0.0000
     22  C1C       14.6060   24.1080    6.5720 C.ar  153  HEM153      0.0000
     23  C2C       13.8370   23.6790    7.7430 C.ar  153  HEM153      0.0000
     24  C3C       13.3190   22.4380    7.3860 C.ar  153  HEM153      0.0000
     25  C4C       13.8020   22.0820    6.0760 C.ar  153  HEM153      0.0000
     26  CMC       13.6420   24.4710    9.0420 C.3   153  HEM153      0.0000
     27  CAC       12.3630   21.5280    8.2270 C.2   153  HEM153      0.0000
     28  CBC       12.0160   21.8440    9.3580 C.2   153  HEM153      0.0000
     29  C1D       13.9930   20.5130    4.1550 C.2   153  HEM153      0.0000
     30  C2D       13.6650   19.2260    3.4620 C.2   153  HEM153      0.0000
     31  C3D       14.4300   19.1670    2.1790 C.2   153  HEM153      0.0000
     32  C4D       15.1260   20.5060    2.1820 C.2   153  HEM153      0.0000
     33  CMD       12.8090   18.1340    4.0860 C.3   153  HEM153      0.0000
     34  CAD       14.3870   18.1740    0.8990 C.3   153  HEM153      0.0000
     35  CBD       15.4970   17.5900    1.4870 C.3   153  HEM153      0.0000
     36  CGD       15.3410   16.4140    2.3300 C.2   153  HEM153      0.0000
     37  O1D       14.4500   15.5080    1.9530 O.co2 153  HEM153      0.0000
     38  O2D       16.0890   16.3170    3.2720 O.co2 153  HEM153      0.0000
     39  NA        16.9690   23.0020    2.1500 N.ar  153  HEM153      0.0000
     40  NB        16.6030   24.9170    4.3550 N.2   153  HEM153      0.0000
     41  NC        14.5890   23.1120    5.6070 N.ar  153  HEM153      0.0000
     42  ND        14.8700   21.2190    3.3660 N.2   153  HEM153      0.0000
     43 FE         15.8160   23.0560    3.8820 Fe    153  HEM153      0.0000
@<TRIPOS>BOND
     1    14    12   ar
     2    12    13   ar
     3    12    11    1
     4    11    10    1
     5    10     6    1
     6     9     7    1
     7     6     7   ar
     8     6     5   ar
     9     7     8   ar
    10    34    35    1
    11    34    31    1
    12     5     1    2
    13     5    39   ar
    14     1    32    1
    15    35    36    1
    16     8    39   ar
    17     8     2    2
    18    37    36   ar
    19    39    43    1
    20    31    32    1
    21    31    30    2
    22    32    42    2
    23    36    38   ar
    24     2    15    1
    25    42    43    1
    26    42    29    1
    27    30    33    1
    28    30    29    1
    29    15    40    2
    30    15    16    1
    31    43    40    1
    32    43    41    1
    33    19    16    1
    34    29     4    2
    35    40    18    1
    36    16    17    2
    37    17    18    1
    38    17    20    1
    39     4    25    1
    40    18     3    2
    41    41    25   ar
    42    41    22   ar
    43    25    24   ar
    44     3    22    1
    45    20    21    1
    46    22    23   ar
    47    24    23   ar
    48    24    27    1
    49    23    26    1
    50    27    28    2
