@<TRIPOS>MOLECULE
3a5l_ADP_C_1.pdb
 27 29 0 0 0
SMALL
GASTEIGER

@<TRIPOS>ATOM
      1  PB        -7.8220   -4.1860   19.9500 P.3   377  ADP377      0.5373
      2  O1B       -7.9660   -3.8600   21.4370 O.3   377  ADP377     -0.1143
      3  O2B       -9.1420   -4.1330   19.2230 O.3   377  ADP377     -0.1143
      4  O3B       -6.7860   -3.4050   19.1710 O.2   377  ADP377     -0.2221
      5  PA        -7.2140   -6.9330   20.8050 P.3   377  ADP377      0.2231
      6  O1A       -6.2630   -6.8300   21.9640 O.3   377  ADP377     -0.4370
      7  O2A       -8.6910   -7.2140   21.0990 O.2   377  ADP377     -0.5169
      8  O3A       -7.1670   -5.6690   19.7940 O.3   377  ADP377     -0.2261
      9  O5'       -6.6260   -8.1580   19.9300 O.3   377  ADP377     -0.3111
     10  C5'       -7.1190   -8.3280   18.6070 C.3   377  ADP377      0.1813
     11  C4'       -6.0780   -9.0310   17.7190 C.3   377  ADP377      0.1821
     12  O4'       -5.6160  -10.1360   18.4600 O.3   377  ADP377     -0.3135
     13  C3'       -6.7160   -9.6510   16.4840 C.3   377  ADP377      0.2184
     14  O3'       -5.8970   -9.3600   15.3330 O.3   377  ADP377     -0.2174
     15  C2'       -6.7600  -11.1400   16.7620 C.3   377  ADP377      0.2570
     16  O2'       -6.5310  -11.9130   15.5730 O.3   377  ADP377     -0.2130
     17  C1'       -5.5680  -11.2950   17.6680 C.3   377  ADP377      0.3186
     18  N9        -5.5920  -12.5230   18.5020 N.pl3 377  ADP377     -0.1439
     19  C8        -6.5860  -12.9490   19.3250 C.3   377  ADP377      0.3377
     20  N7        -6.2020  -14.1240   19.9170 N.2   377  ADP377     -0.2095
     21  C5        -4.9510  -14.4130   19.4820 C.2   377  ADP377      0.2526
     22  C6        -3.9800  -15.4870   19.6770 C.2   377  ADP377      0.4393
     23  N6        -4.2630  -16.5190   20.5150 N.pl3 377  ADP377      0.2180
     24  N1        -2.8060  -15.4140   19.0100 N.2   377  ADP377      0.0021
     25  C2        -2.5040  -14.4350   18.1480 C.3   377  ADP377      0.5254
     26  N3        -3.3680  -13.4430   17.9250 N.2   377  ADP377     -0.0055
     27  C4        -4.5700  -13.3790   18.5440 C.2   377  ADP377      0.3518
@<TRIPOS>BOND
     1    14    13    1
     2    16    15    1
     3    13    15    1
     4    13    11    1
     5    15    17    1
     6    17    12    1
     7    17    18    1
     8    11    12    1
     9    11    10    1
    10    26    25    1
    11    26    27    2
    12    25    24    1
    13    18    27    1
    14    18    19    1
    15    27    21    1
    16    10     9    1
    17    24    22    2
    18     4     1    2
    19     3     1    1
    20    19    20    1
    21    21    22    1
    22    21    20    2
    23    22    23    1
    24     8     1    1
    25     8     5    1
    26     9     5    1
    27     1     2    1
    28     5     7    2
    29     5     6    1
