@<TRIPOS>MOLECULE
3a5m_ATP_C_1.pdb
 31 33 0 0 0
SMALL
GASTEIGER

@<TRIPOS>ATOM
      1  PG        -6.3230   -1.6690   19.6920 P.3   376  ATP376      0.5373
      2  O1G       -5.1450   -1.6730   18.7600 O.2   376  ATP376     -0.2221
      3  O2G       -5.9960   -1.7900   21.1760 O.3   376  ATP376     -0.1143
      4  O3G       -7.2820   -0.5560   19.3390 O.3   376  ATP376     -0.1143
      5  PB        -7.9490   -4.1510   19.9240 P.3   376  ATP376      0.2277
      6  O1B       -8.0750   -3.9750   21.4400 O.3   376  ATP376     -0.4368
      7  O2B       -9.1820   -4.2510   19.0880 O.2   376  ATP376     -0.5168
      8  O3B       -7.0270   -3.0570   19.2040 O.3   376  ATP376     -0.2258
      9  PA        -7.0520   -6.8000   20.5100 P.3   376  ATP376      0.2189
     10  O1A       -6.1220   -6.6810   21.6970 O.3   376  ATP376     -0.4371
     11  O2A       -8.4750   -7.2190   20.7430 O.2   376  ATP376     -0.5170
     12  O3A       -7.0120   -5.4310   19.6730 O.3   376  ATP376     -0.2700
     13  O5'       -6.4760   -7.9050   19.5170 O.3   376  ATP376     -0.3112
     14  C5'       -6.6630   -7.8470   18.1220 C.3   376  ATP376      0.1813
     15  C4'       -5.7160   -8.7720   17.3970 C.3   376  ATP376      0.1821
     16  O4'       -5.3320   -9.8220   18.2560 O.3   376  ATP376     -0.3135
     17  C3'       -6.3680   -9.4310   16.1910 C.3   376  ATP376      0.2184
     18  O3'       -5.4790   -9.1610   15.1000 O.3   376  ATP376     -0.2174
     19  C2'       -6.4070  -10.9040   16.5750 C.3   376  ATP376      0.2570
     20  O2'       -6.1970  -11.7900   15.4910 O.3   376  ATP376     -0.2130
     21  C1'       -5.2010  -10.9950   17.4990 C.3   376  ATP376      0.3186
     22  N9        -5.2440  -12.2010   18.3160 N.pl3 376  ATP376     -0.1439
     23  C8        -6.2440  -12.5750   19.1250 C.3   376  ATP376      0.3377
     24  N7        -5.9510  -13.7550   19.7550 N.2   376  ATP376     -0.2095
     25  C5        -4.7430  -14.1270   19.3250 C.2   376  ATP376      0.2526
     26  C6        -3.8770  -15.2650   19.5760 C.2   376  ATP376      0.4393
     27  N6        -4.3310  -16.2310   20.4140 N.pl3 376  ATP376      0.2180
     28  N1        -2.6710  -15.2950   18.9700 N.2   376  ATP376      0.0021
     29  C2        -2.2920  -14.3250   18.1330 C.3   376  ATP376      0.5254
     30  N3        -3.0470  -13.2690   17.8400 N.2   376  ATP376     -0.0055
     31  C4        -4.2640  -13.1140   18.3880 C.2   376  ATP376      0.3518
@<TRIPOS>BOND
     1    18    17    1
     2    20    19    1
     3    17    19    1
     4    17    15    1
     5    19    21    1
     6    15    14    1
     7    15    16    1
     8    21    16    1
     9    21    22    1
    10    30    29    1
    11    30    31    2
    12    14    13    1
    13    29    28    1
    14    22    31    1
    15    22    23    1
    16    31    25    1
    17     2     1    2
    18    28    26    2
    19     7     5    2
    20    23    24    1
    21     8     1    1
    22     8     5    1
    23    25    26    1
    24    25    24    2
    25     4     1    1
    26    13     9    1
    27    26    27    1
    28    12     5    1
    29    12     9    1
    30     1     3    1
    31     5     6    1
    32     9    11    2
    33     9    10    1
