@<TRIPOS>MOLECULE
3a5n_ATP_C_1.pdb
 31 33 0 0 0
SMALL
GASTEIGER

@<TRIPOS>ATOM
      1  PG         5.6780   -2.0870  -19.2400 P.3   376  ATP376      0.5373
      2  O1G        4.5590   -2.2110  -18.2370 O.3   376  ATP376     -0.1143
      3  O2G        5.2290   -2.2980  -20.6760 O.2   376  ATP376     -0.2221
      4  O3G        6.5560   -0.8870  -19.0180 O.3   376  ATP376     -0.1143
      5  PB         7.6130   -4.2030  -19.8800 P.3   376  ATP376      0.2277
      6  O1B        7.6390   -3.6450  -21.2600 O.2   376  ATP376     -0.5168
      7  O2B        8.9100   -4.4590  -19.1590 O.3   376  ATP376     -0.4368
      8  O3B        6.5150   -3.4630  -18.9320 O.3   376  ATP376     -0.2258
      9  PA         6.9510   -6.7560  -21.0020 P.3   376  ATP376      0.2189
     10  O1A        5.9600   -6.5570  -22.1230 O.2   376  ATP376     -0.5170
     11  O2A        8.4450   -6.9890  -21.2510 O.3   376  ATP376     -0.4371
     12  O3A        6.8250   -5.5750  -19.9320 O.3   376  ATP376     -0.2700
     13  O5'        6.3200   -7.9420  -20.1190 O.3   376  ATP376     -0.3112
     14  C5'        6.8950   -8.3120  -18.8840 C.3   376  ATP376      0.1813
     15  C4'        5.7630   -8.7900  -17.9770 C.3   376  ATP376      0.1821
     16  O4'        5.1170   -9.8350  -18.6720 O.3   376  ATP376     -0.3135
     17  C3'        6.2960   -9.4190  -16.7160 C.3   376  ATP376      0.2184
     18  O3'        5.4020   -9.0350  -15.6150 O.3   376  ATP376     -0.2174
     19  C2'        6.2580  -10.9100  -17.0260 C.3   376  ATP376      0.2570
     20  O2'        6.0690  -11.7070  -15.8480 O.3   376  ATP376     -0.2130
     21  C1'        5.0260  -11.0170  -17.8830 C.3   376  ATP376      0.3186
     22  N9         4.9610  -12.2940  -18.6670 N.pl3 376  ATP376     -0.1439
     23  C8         5.9730  -12.7880  -19.4210 C.3   376  ATP376      0.3377
     24  N7         5.6870  -14.0090  -20.0450 N.2   376  ATP376     -0.2095
     25  C5         4.4520  -14.2450  -19.6140 C.2   376  ATP376      0.2526
     26  C6         3.5380  -15.3710  -19.8550 C.2   376  ATP376      0.4393
     27  N6         3.9970  -16.3400  -20.6780 N.pl3 376  ATP376      0.2180
     28  N1         2.3010  -15.3220  -19.3030 N.2   376  ATP376      0.0021
     29  C2         1.9180  -14.3190  -18.4870 C.3   376  ATP376      0.5254
     30  N3         2.7180  -13.2680  -18.2230 N.2   376  ATP376     -0.0055
     31  C4         3.9640  -13.1580  -18.7560 C.2   376  ATP376      0.3518
@<TRIPOS>BOND
     1    10     9    2
     2     6     5    2
     3    11     9    1
     4     9    13    1
     5     9    12    1
     6    27    26    1
     7     3     1    2
     8    13    14    1
     9    24    25    2
    10    24    23    1
    11    12     5    1
    12     5     7    1
    13     5     8    1
    14    26    25    1
    15    26    28    2
    16    25    31    1
    17    23    22    1
    18    28    29    1
    19     1     4    1
    20     1     8    1
    21     1     2    1
    22    14    15    1
    23    31    22    1
    24    31    30    2
    25    16    15    1
    26    16    21    1
    27    22    21    1
    28    29    30    1
    29    15    17    1
    30    21    19    1
    31    19    17    1
    32    19    20    1
    33    17    18    1
