@<TRIPOS>MOLECULE
3a5o_ATP_C_1.pdb
 31 33 0 0 0
SMALL
GASTEIGER

@<TRIPOS>ATOM
      1  PG        -5.6770    1.6800  -19.0330 P.3   376  ATP376      0.5373
      2  O1G       -4.6030    1.7920  -17.9880 O.3   376  ATP376     -0.1143
      3  O2G       -5.2300    1.8240  -20.4560 O.2   376  ATP376     -0.2221
      4  O3G       -6.5460    0.4360  -18.8100 O.3   376  ATP376     -0.1143
      5  PB        -7.6750    3.8040  -19.5770 P.3   376  ATP376      0.2277
      6  O1B       -7.7480    3.3370  -21.0090 O.2   376  ATP376     -0.5168
      7  O2B       -8.9280    3.9990  -18.7940 O.3   376  ATP376     -0.4368
      8  O3B       -6.6360    2.9460  -18.6630 O.3   376  ATP376     -0.2258
      9  PA        -6.8840    6.3630  -20.7220 P.3   376  ATP376      0.2189
     10  O1A       -5.8810    6.1460  -21.8250 O.2   376  ATP376     -0.5170
     11  O2A       -8.3320    6.6260  -21.0520 O.3   376  ATP376     -0.4371
     12  O3A       -6.8450    5.2070  -19.5780 O.3   376  ATP376     -0.2700
     13  O5'       -6.3430    7.5950  -19.8290 O.3   376  ATP376     -0.3112
     14  C5'       -6.8290    7.8900  -18.5140 C.3   376  ATP376      0.1813
     15  C4'       -5.6800    8.4120  -17.6510 C.3   376  ATP376      0.1821
     16  O4'       -5.0410    9.4330  -18.3740 O.3   376  ATP376     -0.3135
     17  C3'       -6.1350    9.0590  -16.3700 C.3   376  ATP376      0.2184
     18  O3'       -5.1460    8.7730  -15.3570 O.3   376  ATP376     -0.2174
     19  C2'       -6.1460   10.5340  -16.7120 C.3   376  ATP376      0.2570
     20  O2'       -6.0090   11.3640  -15.5500 O.3   376  ATP376     -0.2130
     21  C1'       -4.9320   10.6080  -17.6010 C.3   376  ATP376      0.3186
     22  N9        -4.9370   11.8370  -18.4170 N.pl3 376  ATP376     -0.1439
     23  C8        -5.9620   12.2720  -19.1910 C.3   376  ATP376      0.3377
     24  N7        -5.6360   13.4350  -19.8060 N.2   376  ATP376     -0.2095
     25  C5        -4.3960   13.7650  -19.4050 C.2   376  ATP376      0.2526
     26  C6        -3.4890   14.8930  -19.6430 C.2   376  ATP376      0.4393
     27  N6        -3.8520   15.9140  -20.4690 N.pl3 376  ATP376      0.2180
     28  N1        -2.2730   14.8490  -19.0630 N.2   376  ATP376      0.0021
     29  C2        -1.8990   13.8360  -18.2680 C.3   376  ATP376      0.5254
     30  N3        -2.7010   12.8030  -17.9750 N.2   376  ATP376     -0.0055
     31  C4        -3.9330   12.7110  -18.5090 C.2   376  ATP376      0.3518
@<TRIPOS>BOND
     1    10     9    2
     2    11     9    1
     3     6     5    2
     4     9    13    1
     5     9    12    1
     6    27    26    1
     7     3     1    2
     8    13    14    1
     9    24    25    2
    10    24    23    1
    11    26    25    1
    12    26    28    2
    13    12     5    1
    14     5     7    1
    15     5     8    1
    16    25    31    1
    17    23    22    1
    18    28    29    1
    19     1     4    1
    20     1     8    1
    21     1     2    1
    22    14    15    1
    23    31    22    1
    24    31    30    2
    25    22    21    1
    26    16    15    1
    27    16    21    1
    28    29    30    1
    29    15    17    1
    30    21    19    1
    31    19    17    1
    32    19    20    1
    33    17    18    1
