@<TRIPOS>MOLECULE
3a5r_HC4_A_1.pdb
 11 11 0 0 0
SMALL
GASTEIGER

@<TRIPOS>ATOM
      1  C1         9.3020  -39.3940  112.6990 C.2   400  HC4400      0.2077
      2  O1         8.1970  -39.4420  112.1540 O.2   400  HC4400     -0.2883
      3  C2         9.4630  -38.6400  114.0260 C.3   400  HC4400      0.0769
      4  C3        10.6030  -39.2370  114.9020 C.3   400  HC4400      0.0346
      5  C1'       10.8220  -38.6500  116.1440 C.ar  400  HC4400     -0.0215
      6  C2'       11.4270  -39.4030  117.1730 C.ar  400  HC4400     -0.0010
      7  C3'       11.5310  -38.8920  118.5000 C.ar  400  HC4400      0.0417
      8  C4'       11.0240  -37.6140  118.7890 C.ar  400  HC4400      0.1957
      9  C5'       10.4230  -36.8430  117.7840 C.ar  400  HC4400      0.0417
     10  C6'       10.3200  -37.3640  116.4630 C.ar  400  HC4400     -0.0010
     11  O4'       10.9670  -37.1760  120.0910 O.3   400  HC4400     -0.2866
@<TRIPOS>BOND
     1     2     1    2
     2     1     3    1
     3     3     4    1
     4     4     5    1
     5     5    10   ar
     6     5     6   ar
     7    10     9   ar
     8     6     7   ar
     9     9     8   ar
    10     7     8   ar
    11     8    11    1
