@<TRIPOS>MOLECULE
3a5v_MAN_A_1.pdb
 11 11 0 0 0
SMALL
GASTEIGER

@<TRIPOS>ATOM
      1  C1        37.3780    1.2170   21.8370 C.3   548  MAN548      0.1777
      2  C2        37.8350    0.5580   23.1460 C.3   548  MAN548      0.2141
      3  C3        36.6940    0.5040   24.1880 C.3   548  MAN548      0.2173
      4  C4        35.8390    1.7840   24.2480 C.3   548  MAN548      0.2142
      5  C5        35.5760    2.3060   22.8380 C.3   548  MAN548      0.1810
      6  C6        34.7700    3.5920   22.7940 C.3   548  MAN548      0.2141
      7  O2        38.9730    1.2380   23.6560 O.3   548  MAN548     -0.2176
      8  O3        37.2200    0.2010   25.4640 O.3   548  MAN548     -0.2175
      9  O4        34.5880    1.5340   24.8560 O.3   548  MAN548     -0.2176
     10  O5        36.8110    2.4710   22.1590 O.3   548  MAN548     -0.3481
     11  O6        34.6090    3.9880   21.4520 O.3   548  MAN548     -0.2176
@<TRIPOS>BOND
     1    11     6    1
     2     1    10    1
     3     1     2    1
     4    10     5    1
     5     6     5    1
     6     5     4    1
     7     2     7    1
     8     2     3    1
     9     3     4    1
    10     3     8    1
    11     4     9    1
