@<TRIPOS>MOLECULE
3a5y_KAA_A_1.pdb
 32 34 0 0 0
SMALL
GASTEIGER

@<TRIPOS>ATOM
      1  NZ        -3.7240   -4.2390    3.2760 N.3   1990  KAA1990    -0.1314
      2  CE        -3.1590   -2.8830    3.2590 C.3   1990  KAA1990     0.1093
      3  CD        -2.2900   -2.6970    2.0130 C.3   1990  KAA1990     0.0206
      4  CG        -3.0980   -2.8760    0.7260 C.3   1990  KAA1990     0.0035
      5  CB        -2.2500   -2.4790   -0.4830 C.3   1990  KAA1990     0.0285
      6  CA        -3.0410   -2.5780   -1.7890 C.3   1990  KAA1990     0.1709
      7  N         -3.2670   -3.9910   -2.1280 N.3   1990  KAA1990    -0.1230
      8  C         -2.2450   -1.8860   -2.8970 C.2   1990  KAA1990     0.2798
      9  O         -1.7770   -2.5520   -3.8190 O.2   1990  KAA1990    -0.2701
     10  N8        -2.0920   -0.5690   -2.7960 N.am  1990  KAA1990    -0.0577
     11  S1        -1.3090    0.0800   -4.0700 S.3   1990  KAA1990     0.0852
     12  O1S       -2.0270   -0.2450   -5.3450 O.3   1990  KAA1990    -0.0508
     13  O2S       -1.2650    1.5700   -3.9010 O.3   1990  KAA1990    -0.0508
     14  O5'        0.0270   -0.4330   -4.1550 O.3   1990  KAA1990    -0.2230
     15  C5'        1.0080   -0.0960   -3.1690 C.3   1990  KAA1990     0.2064
     16  C4'        2.2780    0.4700   -3.8100 C.3   1990  KAA1990     0.1842
     17  O4'        2.7420   -0.3700   -4.8750 O.3   1990  KAA1990    -0.3135
     18  C3'        2.0290    1.8030   -4.5160 C.3   1990  KAA1990     0.2185
     19  O3'        1.9940    2.8430   -3.5350 O.3   1990  KAA1990    -0.2174
     20  C2'        3.3200    1.9040   -5.3300 C.3   1990  KAA1990     0.2570
     21  O2'        4.4020    2.3940   -4.5310 O.3   1990  KAA1990    -0.2130
     22  C1'        3.5910    0.4430   -5.7040 C.3   1990  KAA1990     0.3186
     23  N9         3.2080    0.1630   -7.1040 N.pl3 1990  KAA1990    -0.1439
     24  C8         1.9730   -0.0650   -7.5450 C.3   1990  KAA1990     0.3377
     25  N7         2.0110   -0.3080   -8.8530 N.2   1990  KAA1990    -0.2095
     26  C5         3.2790   -0.2360   -9.2480 C.2   1990  KAA1990     0.2526
     27  C4         4.0440    0.0700   -8.1330 C.2   1990  KAA1990     0.3518
     28  N3         5.3710    0.2110   -8.2610 N.2   1990  KAA1990    -0.0055
     29  C2         5.9500    0.0600   -9.4390 C.3   1990  KAA1990     0.5254
     30  N1         5.2550   -0.2370  -10.5220 N.2   1990  KAA1990     0.0021
     31  C6         3.9250   -0.3950  -10.4680 C.2   1990  KAA1990     0.4393
     32  N6         3.2390   -0.7120  -11.5630 N.pl3 1990  KAA1990     0.2180
@<TRIPOS>BOND
     1    32    31    1
     2    30    31    2
     3    30    29    1
     4    31    26    1
     5    29    28    1
     6    26    25    2
     7    26    27    1
     8    25    24    1
     9    28    27    2
    10    27    23    1
    11    24    23    1
    12    23    22    1
    13    22    20    1
    14    22    17    1
    15    12    11    1
    16    20    21    1
    17    20    18    1
    18    17    16    1
    19    18    16    1
    20    18    19    1
    21    14    11    1
    22    14    15    1
    23    11    13    1
    24    11    10    1
    25     9     8    2
    26    16    15    1
    27     8    10   am
    28     8     6    1
    29     7     6    1
    30     6     5    1
    31     5     4    1
    32     4     3    1
    33     3     2    1
    34     2     1    1
