@<TRIPOS>MOLECULE
3a5z_KAA_A_1.pdb
 32 34 0 0 0
SMALL
GASTEIGER

@<TRIPOS>ATOM
      1  NZ       100.0520   55.9520  -17.6330 N.3   990  KAA990     -0.1314
      2  CE        99.5610   54.6340  -18.0610 C.3   990  KAA990      0.1093
      3  CD        98.5250   54.7790  -19.1800 C.3   990  KAA990      0.0206
      4  CG        97.3410   55.6540  -18.7620 C.3   990  KAA990      0.0035
      5  CB        96.1370   55.3970  -19.6710 C.3   990  KAA990      0.0285
      6  CA        94.9220   56.2460  -19.2850 C.3   990  KAA990      0.1709
      7  N         94.7730   56.2840  -17.8230 N.3   990  KAA990     -0.1230
      8  C         93.6620   55.6480  -19.9130 C.2   990  KAA990      0.2798
      9  O         92.6530   55.5200  -19.2190 O.2   990  KAA990     -0.2701
     10  N8        93.7130   55.2650  -21.1850 N.am  990  KAA990     -0.0577
     11  S1        92.2760   54.6850  -21.6960 S.3   990  KAA990      0.0852
     12  O1S       91.1980   55.6890  -21.4220 O.3   990  KAA990     -0.0508
     13  O2S       92.3710   54.4460  -23.1730 O.3   990  KAA990     -0.0508
     14  O5'       91.9380   53.4620  -21.0330 O.3   990  KAA990     -0.2230
     15  C5'       92.7170   52.2800  -21.2450 C.3   990  KAA990      0.2064
     16  C4'       91.8370   51.1040  -21.6730 C.3   990  KAA990      0.1842
     17  O4'       90.8030   50.8000  -20.7250 O.3   990  KAA990     -0.3135
     18  C3'       91.0550   51.4630  -22.9350 C.3   990  KAA990      0.2185
     19  O3'       91.9360   51.3480  -24.0570 O.3   990  KAA990     -0.2174
     20  C2'       90.0720   50.2940  -22.9330 C.3   990  KAA990      0.2570
     21  O2'       90.7200   49.1060  -23.3940 O.3   990  KAA990     -0.2130
     22  C1'       89.7410   50.1490  -21.4460 C.3   990  KAA990      0.3186
     23  N9        88.4960   50.8750  -21.1130 N.pl3 990  KAA990     -0.1439
     24  C8        88.3850   52.1870  -20.9210 C.3   990  KAA990      0.3377
     25  N7        87.1410   52.4850  -20.5530 N.2   990  KAA990     -0.2095
     26  C5        86.4510   51.3490  -20.5120 C.2   990  KAA990      0.2526
     27  C4        87.3090   50.3220  -20.8790 C.2   990  KAA990      0.3518
     28  N3        86.8510   49.0630  -20.9200 N.2   990  KAA990     -0.0055
     29  C2        85.5940   48.7960  -20.6100 C.3   990  KAA990      0.5254
     30  N1        84.7500   49.7470  -20.2490 N.2   990  KAA990      0.0021
     31  C6        85.1420   51.0290  -20.1820 C.2   990  KAA990      0.4393
     32  N6        84.3170   51.9670  -19.7290 N.pl3 990  KAA990      0.2180
@<TRIPOS>BOND
     1    19    18    1
     2    21    20    1
     3    13    11    1
     4    18    20    1
     5    18    16    1
     6    20    22    1
     7    11    12    1
     8    11    10    1
     9    11    14    1
    10    16    15    1
    11    16    17    1
    12    22    23    1
    13    22    17    1
    14    15    14    1
    15    10     8   am
    16    23    24    1
    17    23    27    1
    18    24    25    1
    19    28    27    2
    20    28    29    1
    21    27    26    1
    22    29    30    1
    23    25    26    2
    24    26    31    1
    25    30    31    2
    26    31    32    1
    27     8     6    1
    28     8     9    2
    29     5     6    1
    30     5     4    1
    31     6     7    1
    32     3     4    1
    33     3     2    1
    34     2     1    1
