@<TRIPOS>MOLECULE
3a60_STU_A_1.pdb
 35 42 0 0 0
SMALL
GASTEIGER

@<TRIPOS>ATOM
      1  O4        -6.9430    5.7780   37.7550 O.3   400  STU400     -0.3186
      2  C25       -5.6290    6.2160   37.9650 C.3   400  STU400      0.2078
      3  C24       -4.9040    6.1100   36.5440 C.3   400  STU400      0.0739
      4  C23       -5.8540    5.5960   35.3890 C.3   400  STU400      0.1086
      5  C22       -6.5470    4.2580   35.7750 C.3   400  STU400      0.1761
      6  C21       -7.4510    4.6610   37.0370 C.3   400  STU400      0.1915
      7  C26       -8.8320    5.1480   36.5550 C.3   400  STU400      0.0566
      8  N2        -7.5220    3.4360   37.9890 N.ar  400  STU400     -0.3054
      9  C18       -6.5080    3.2960   39.0580 C.ar  400  STU400      0.0774
     10  C19       -5.4110    4.0740   39.4470 C.ar  400  STU400      0.0783
     11  C6        -4.5270    3.7040   40.5720 C.ar  400  STU400      0.0293
     12  C7        -4.9160    2.4300   41.2600 C.ar  400  STU400      0.0822
     13  C10       -5.9890    1.6830   40.8700 C.ar  400  STU400      0.0154
     14  C11       -6.8490    2.0610   39.7570 C.ar  400  STU400      0.0173
     15  C12       -8.0020    1.4950   39.1530 C.ar  400  STU400      0.0171
     16  C17       -8.4340    2.3460   38.0460 C.ar  400  STU400      0.0617
     17  C16       -9.5900    1.9630   37.2930 C.ar  400  STU400      0.0172
     18  C15      -10.3150    0.7840   37.6020 C.ar  400  STU400      0.0015
     19  C14       -9.9100   -0.0970   38.7060 C.ar  400  STU400      0.0001
     20  C13       -8.7440    0.3030   39.4530 C.ar  400  STU400      0.0015
     21  C9        -6.1240    0.4650   41.7480 C.3   400  STU400      0.1650
     22  N1        -4.9850    0.6980   42.6210 N.2   400  STU400     -0.1976
     23  C8        -4.2490    1.7760   42.4230 C.1   400  STU400      0.1501
     24  O5        -3.2710    2.1330   43.0490 O.2   400  STU400     -0.2222
     25  C5        -3.5390    4.6760   40.6980 C.ar  400  STU400      0.0180
     26  C20       -3.7970    5.6670   39.6390 C.ar  400  STU400      0.0618
     27  C1        -2.9530    6.8380   39.4670 C.ar  400  STU400      0.0172
     28  C2        -1.8450    7.0130   40.3630 C.ar  400  STU400      0.0015
     29  C3        -1.5760    6.0370   41.4200 C.ar  400  STU400      0.0001
     30  C4        -2.4150    4.8950   41.5700 C.ar  400  STU400      0.0015
     31  N3        -4.8970    5.2900   38.9360 N.ar  400  STU400     -0.3039
     32  O6        -5.4770    3.3500   36.1680 O.3   400  STU400     -0.3478
     33  C27       -5.5820    2.0910   35.5190 C.3   400  STU400      0.1743
     34  N4        -4.9500    5.4810   34.0960 N.3   400  STU400     -0.2152
     35  C28       -5.1510    6.7280   33.2620 C.3   400  STU400      0.1075
@<TRIPOS>BOND
     1    35    34    1
     2    34     4    1
     3     4     5    1
     4     4     3    1
     5    33    32    1
     6     5    32    1
     7     5     6    1
     8     3     2    1
     9     7     6    1
    10     6     1    1
    11     6     8    1
    12    17    18   ar
    13    17    16   ar
    14    18    19   ar
    15     1     2    1
    16     2    31    1
    17     8    16   ar
    18     8     9   ar
    19    16    15   ar
    20    19    20   ar
    21    31    10   ar
    22    31    26   ar
    23     9    10   ar
    24     9    14   ar
    25    15    20   ar
    26    15    14   ar
    27    10    11   ar
    28    27    26   ar
    29    27    28   ar
    30    26    25   ar
    31    14    13   ar
    32    28    29   ar
    33    11    25   ar
    34    11    12   ar
    35    25    30   ar
    36    13    12   ar
    37    13    21    1
    38    12    23    1
    39    29    30   ar
    40    21    22    1
    41    23    22    2
    42    23    24    2
