@<TRIPOS>MOLECULE
3a61_STU_A_1.pdb
 35 42 0 0 0
SMALL
GASTEIGER

@<TRIPOS>ATOM
      1  O4        -2.6720   15.8300   29.6900 O.3   400  STU400     -0.3186
      2  C25       -1.3680   15.4340   29.3770 C.3   400  STU400      0.2078
      3  C24       -0.5480   15.4660   30.7360 C.3   400  STU400      0.0739
      4  C23       -1.4330   15.8840   31.9890 C.3   400  STU400      0.1086
      5  C22       -2.2270   17.2270   31.7760 C.3   400  STU400      0.1761
      6  C21       -3.1650   16.8960   30.5020 C.3   400  STU400      0.1915
      7  C26       -4.5260   16.3620   31.0000 C.3   400  STU400      0.0566
      8  N2        -3.3060   18.1580   29.6040 N.ar  400  STU400     -0.3054
      9  C18       -2.3820   18.3650   28.4840 C.ar  400  STU400      0.0774
     10  C19       -1.3050   17.6280   27.9950 C.ar  400  STU400      0.0783
     11  C6        -0.5170   18.0660   26.8280 C.ar  400  STU400      0.0293
     12  C7        -0.9760   19.3670   26.2160 C.ar  400  STU400      0.0822
     13  C10       -2.0260   20.0710   26.7030 C.ar  400  STU400      0.0154
     14  C11       -2.7880   19.6290   27.8570 C.ar  400  STU400      0.0173
     15  C12       -3.8870   20.1420   28.5520 C.ar  400  STU400      0.0171
     16  C17       -4.2280   19.2410   29.6530 C.ar  400  STU400      0.0617
     17  C16       -5.3350   19.5810   30.5050 C.ar  400  STU400      0.0172
     18  C15       -6.0890   20.7640   30.2970 C.ar  400  STU400      0.0015
     19  C14       -5.7710   21.6930   29.2000 C.ar  400  STU400      0.0001
     20  C13       -4.6560   21.3320   28.3540 C.ar  400  STU400      0.0015
     21  C9        -2.2350   21.3280   25.8810 C.3   400  STU400      0.1650
     22  N1        -1.1610   21.1520   24.9200 N.2   400  STU400     -0.1976
     23  C8        -0.4080   20.0800   25.0320 C.1   400  STU400      0.1501
     24  O5         0.5270   19.7600   24.3290 O.2   400  STU400     -0.2222
     25  C5         0.4890   17.1150   26.6070 C.ar  400  STU400      0.0180
     26  C20        0.3200   16.0890   27.6370 C.ar  400  STU400      0.0618
     27  C1         1.2050   14.9300   27.7110 C.ar  400  STU400      0.0172
     28  C2         2.2540   14.8090   26.7520 C.ar  400  STU400      0.0015
     29  C3         2.4360   15.8240   25.7200 C.ar  400  STU400      0.0001
     30  C4         1.5630   16.9460   25.6620 C.ar  400  STU400      0.0015
     31  N3        -0.7350   16.4100   28.4210 N.ar  400  STU400     -0.3039
     32  O6        -1.2350   18.2540   31.4700 O.3   400  STU400     -0.3478
     33  C27       -1.0250   19.1390   32.5620 C.3   400  STU400      0.1743
     34  N4        -0.4560   15.9240   33.2390 N.3   400  STU400     -0.2152
     35  C28       -0.9030   14.8700   34.2250 C.3   400  STU400      0.1075
@<TRIPOS>BOND
     1    24    23    2
     2    22    23    2
     3    22    21    1
     4    23    12    1
     5    30    29   ar
     6    30    25   ar
     7    29    28   ar
     8    21    13    1
     9    12    13   ar
    10    12    11   ar
    11    25    11   ar
    12    25    26   ar
    13    13    14   ar
    14    28    27   ar
    15    11    10   ar
    16    26    27   ar
    17    26    31   ar
    18    14     9   ar
    19    14    15   ar
    20    10    31   ar
    21    10     9   ar
    22    20    15   ar
    23    20    19   ar
    24    31     2    1
    25     9     8   ar
    26    15    16   ar
    27    19    18   ar
    28     2     1    1
    29     2     3    1
    30     8    16   ar
    31     8     6    1
    32    16    17   ar
    33     1     6    1
    34    18    17   ar
    35     6     7    1
    36     6     5    1
    37     3     4    1
    38    32     5    1
    39    32    33    1
    40     5     4    1
    41     4    34    1
    42    34    35    1
