@<TRIPOS>MOLECULE
3a62_STU_A_1.pdb
 35 42 0 0 0
SMALL
GASTEIGER

@<TRIPOS>ATOM
      1  O4       -22.3790   20.6280  -13.4360 O.3   400  STU400     -0.3186
      2  C25      -21.4360   20.7620  -14.4610 C.3   400  STU400      0.2078
      3  C24      -20.1290   20.0040  -13.9740 C.3   400  STU400      0.0739
      4  C23      -20.2950   19.3270  -12.5650 C.3   400  STU400      0.1086
      5  C22      -20.8080   20.3110  -11.4780 C.3   400  STU400      0.1761
      6  C21      -22.2420   20.7670  -12.0420 C.3   400  STU400      0.1915
      7  C26      -23.3460   19.8120  -11.4900 C.3   400  STU400      0.0566
      8  N2       -22.4790   22.2400  -11.6480 N.ar  400  STU400     -0.3054
      9  C18      -22.0890   23.3010  -12.5890 C.ar  400  STU400      0.0774
     10  C19      -21.4950   23.2730  -13.8560 C.ar  400  STU400      0.0783
     11  C6       -21.1830   24.4900  -14.6060 C.ar  400  STU400      0.0293
     12  C7       -21.5760   25.7530  -13.9290 C.ar  400  STU400      0.0822
     13  C10      -22.1500   25.7840  -12.7000 C.ar  400  STU400      0.0154
     14  C11      -22.4480   24.5610  -11.9450 C.ar  400  STU400      0.0173
     15  C12      -22.9950   24.2690  -10.6760 C.ar  400  STU400      0.0171
     16  C17      -23.0290   22.8280  -10.4780 C.ar  400  STU400      0.0617
     17  C16      -23.5550   22.2930   -9.2380 C.ar  400  STU400      0.0172
     18  C15      -24.0310   23.1400   -8.2230 C.ar  400  STU400      0.0015
     19  C14      -24.0120   24.6040   -8.3890 C.ar  400  STU400      0.0001
     20  C13      -23.4880   25.1220   -9.6440 C.ar  400  STU400      0.0015
     21  C9       -22.4160   27.2120  -12.2850 C.3   400  STU400      0.1650
     22  N1       -21.8970   27.8800  -13.4620 N.2   400  STU400     -0.1976
     23  C8       -21.4020   27.1320  -14.4410 C.1   400  STU400      0.1501
     24  O5       -20.9210   27.4950  -15.5120 O.2   400  STU400     -0.2222
     25  C5       -20.5660   24.1300  -15.8060 C.ar  400  STU400      0.0180
     26  C20      -20.4960   22.6800  -15.8080 C.ar  400  STU400      0.0618
     27  C1       -19.8960   21.9470  -16.9070 C.ar  400  STU400      0.0172
     28  C2       -19.3650   22.6930  -17.9980 C.ar  400  STU400      0.0015
     29  C3       -19.4280   24.1560  -18.0110 C.ar  400  STU400      0.0001
     30  C4       -20.0220   24.8440  -16.9260 C.ar  400  STU400      0.0015
     31  N3       -21.0630   22.2060  -14.6590 N.ar  400  STU400     -0.3039
     32  O6       -19.8440   21.4120  -11.4760 O.3   400  STU400     -0.3478
     33  C27      -19.5150   21.8290  -10.1660 C.3   400  STU400      0.1743
     34  N4       -18.8880   18.6950  -12.2080 N.3   400  STU400     -0.2152
     35  C28      -19.1070   17.3770  -11.5170 C.3   400  STU400      0.1075
@<TRIPOS>BOND
     1    29    28   ar
     2    29    30   ar
     3    28    27   ar
     4    30    25   ar
     5    27    26   ar
     6    26    25   ar
     7    26    31   ar
     8    25    11   ar
     9    24    23    2
    10    31     2    1
    11    31    10   ar
    12    11    12   ar
    13    11    10   ar
    14     2     3    1
    15     2     1    1
    16    23    12    1
    17    23    22    2
    18     3     4    1
    19    12    13   ar
    20    10     9   ar
    21    22    21    1
    22     1     6    1
    23    13    21    1
    24    13    14   ar
    25     9    14   ar
    26     9     8   ar
    27     4    34    1
    28     4     5    1
    29    34    35    1
    30     6     8    1
    31     6     7    1
    32     6     5    1
    33    14    15   ar
    34     8    16   ar
    35     5    32    1
    36    32    33    1
    37    15    16   ar
    38    15    20   ar
    39    16    17   ar
    40    20    19   ar
    41    17    18   ar
    42    19    18   ar
