@<TRIPOS>MOLECULE
3a6p_GTP_C_1.pdb
 32 34 0 0 0
SMALL
GASTEIGER

@<TRIPOS>ATOM
      1  PG        15.2110  132.5120   12.5290 P.3   1177  GTP1177     0.5373
      2  O1G       15.6750  133.0950   13.8500 O.3   1177  GTP1177    -0.1143
      3  O2G       16.4560  131.9480   11.8500 O.3   1177  GTP1177    -0.1143
      4  O3G       14.3040  133.4830   11.7480 O.2   1177  GTP1177    -0.2221
      5  O3B       14.3010  131.2490   12.8370 O.3   1177  GTP1177    -0.2258
      6  PB        14.6070  130.5060   14.1940 P.3   1177  GTP1177     0.2277
      7  O1B       15.9430  129.8080   14.1400 O.2   1177  GTP1177    -0.5168
      8  O2B       14.4650  131.4730   15.3410 O.3   1177  GTP1177    -0.4368
      9  O3A       13.3290  129.5750   14.0600 O.3   1177  GTP1177    -0.2700
     10  PA        12.3740  129.3420   15.3140 P.3   1177  GTP1177     0.2189
     11  O1A       13.2530  129.0160   16.4890 O.3   1177  GTP1177    -0.4371
     12  O2A       11.4900  130.5650   15.4270 O.2   1177  GTP1177    -0.5170
     13  O5'       11.5180  128.0180   14.9510 O.3   1177  GTP1177    -0.3112
     14  C5'       10.6430  128.0270   13.8160 C.3   1177  GTP1177     0.1813
     15  C4'        9.5870  126.9040   13.7910 C.3   1177  GTP1177     0.1799
     16  O4'       10.0920  125.6030   14.0660 O.3   1177  GTP1177    -0.3326
     17  C3'        8.4980  127.1530   14.8050 C.3   1177  GTP1177     0.2158
     18  O3'        7.3050  127.0770   14.0650 O.3   1177  GTP1177    -0.2175
     19  C2'        8.6300  126.0280   15.8240 C.3   1177  GTP1177     0.2310
     20  O2'        7.3530  125.5720   16.2060 O.3   1177  GTP1177    -0.2158
     21  C1'        9.3540  124.9380   15.0720 C.3   1177  GTP1177     0.2293
     22  N9        10.3390  124.1310   15.8090 N.pl3 1177  GTP1177    -0.2354
     23  C8        11.5350  124.5450   16.3470 C.3   1177  GTP1177     0.2246
     24  N7        12.1780  123.4680   16.8790 N.2   1177  GTP1177    -0.2322
     25  C5        11.4150  122.3630   16.6730 C.2   1177  GTP1177     0.2182
     26  C6        11.5860  121.0000   17.0000 C.1   1177  GTP1177     0.2372
     27  O6        12.5980  120.6010   17.5950 O.2   1177  GTP1177    -0.2069
     28  N1        10.5950  120.0880   16.6310 N.2   1177  GTP1177    -0.2485
     29  C2         9.4600  120.5130   15.9370 C.1   1177  GTP1177     0.2531
     30  N2         8.5260  119.6300   15.5880 N.pl3 1177  GTP1177    -0.0226
     31  N3         9.2990  121.8650   15.6150 N.2   1177  GTP1177    -0.3074
     32  C4        10.2560  122.7720   15.9840 C.2   1177  GTP1177     0.2300
@<TRIPOS>BOND
     1     4     1    2
     2     3     1    1
     3     1     5    1
     4     1     2    1
     5     5     6    1
     6    15    14    1
     7    15    16    1
     8    15    17    1
     9    14    13    1
    10     9     6    1
    11     9    10    1
    12    18    17    1
    13    16    21    1
    14     7     6    2
    15     6     8    1
    16    17    19    1
    17    13    10    1
    18    21    22    1
    19    21    19    1
    20    10    12    2
    21    10    11    1
    22    30    29    1
    23    31    29    2
    24    31    32    2
    25    22    32    1
    26    22    23    1
    27    19    20    1
    28    29    28    2
    29    32    25    1
    30    23    24    1
    31    28    26    2
    32    25    24    2
    33    25    26    1
    34    26    27    2
