@<TRIPOS>MOLECULE
3a6q_FMN_A_1.pdb
 31 33 0 0 0
SMALL
GASTEIGER

@<TRIPOS>ATOM
      1  N1        12.4280   -2.7060    6.0120 N.2   123  FMN123     -0.2887
      2  C2        11.5590   -3.5400    6.6780 C.1   123  FMN123      0.3669
      3  O2        11.6290   -3.6840    7.9000 O.2   123  FMN123     -0.1744
      4  N3        10.5420   -4.1590    5.9640 N.2   123  FMN123     -0.2300
      5  C4        10.4300   -4.0330    4.5850 C.1   123  FMN123      0.2513
      6  O4         9.4860   -4.6390    4.0330 O.2   123  FMN123     -0.2057
      7  C4A       11.3590   -3.2440    3.9330 C.2   123  FMN123      0.2706
      8  N5        11.2570   -3.1150    2.5390 N.2   123  FMN123     -0.3841
      9  C5A       12.0080   -2.1170    1.9310 C.2   123  FMN123      0.1452
     10  C6        11.7270   -1.7870    0.6140 C.2   123  FMN123      0.0252
     11  C7        12.4190   -0.7850   -0.0200 C.2   123  FMN123     -0.0375
     12  C7M       12.1190   -0.4380   -1.4760 C.3   123  FMN123      0.0268
     13  C8        13.4400   -0.1150    0.6610 C.3   123  FMN123      0.0417
     14  C8M       14.2610    0.9900    0.0100 C.3   123  FMN123      0.0091
     15  C9        13.6990   -0.4340    1.9990 C.2   123  FMN123     -0.0049
     16  C9A       12.9910   -1.4240    2.6510 C.2   123  FMN123      0.0795
     17  N10       13.2270   -1.7280    4.0080 N.pl3 123  FMN123     -0.2545
     18  C10       12.3540   -2.5830    4.6470 C.2   123  FMN123      0.2449
     19  C1'       14.1660   -0.9150    4.8470 C.3   123  FMN123      0.1336
     20  C2'       13.3930    0.2150    5.5960 C.3   123  FMN123      0.2048
     21  O2'       12.9870    1.2270    4.6930 O.3   123  FMN123     -0.2185
     22  C3'       14.2580    0.8770    6.6640 C.3   123  FMN123      0.2165
     23  O3'       15.4170    1.4420    6.0540 O.3   123  FMN123     -0.2175
     24  C4'       14.7510   -0.1310    7.7250 C.3   123  FMN123      0.2147
     25  O4'       13.6840   -1.0190    8.1230 O.3   123  FMN123     -0.2176
     26  C5'       15.2670    0.6200    8.9590 C.3   123  FMN123      0.1892
     27  O5'       14.1520    1.2770    9.6090 O.3   123  FMN123     -0.2674
     28  P         14.3810    2.4460   10.7060 P.3   123  FMN123      0.5327
     29  O1P       15.1390    3.5740   10.0020 O.2   123  FMN123     -0.2224
     30  O2P       15.2210    1.8140   11.8610 O.3   123  FMN123     -0.1145
     31  O3P       13.0120    2.8230   11.1550 O.3   123  FMN123     -0.1145
@<TRIPOS>BOND
     1    12    11    1
     2    11    10    2
     3    11    13    1
     4    14    13    1
     5    10     9    1
     6    13    15    1
     7     9     8    2
     8     9    16    1
     9    15    16    2
    10     8     7    2
    11    16    17    1
    12     7     5    1
    13     7    18    1
    14    17    18    1
    15    17    19    1
    16     6     5    2
    17     5     4    2
    18    18     1    2
    19    21    20    1
    20    19    20    1
    21    20    22    1
    22     4     2    2
    23     1     2    2
    24    23    22    1
    25    22    24    1
    26     2     3    2
    27    24    25    1
    28    24    26    1
    29    26    27    1
    30    27    28    1
    31    29    28    2
    32    28    31    1
    33    28    30    1
