@<TRIPOS>MOLECULE
3a6r_FMN_A_1.pdb
 31 33 0 0 0
SMALL
GASTEIGER

@<TRIPOS>ATOM
      1  N1        12.5510   -9.9020    6.4100 N.2   123  FMN123     -0.2887
      2  C2        11.6530  -10.6710    7.1000 C.1   123  FMN123      0.3669
      3  O2        11.7640  -10.8040    8.3090 O.2   123  FMN123     -0.1744
      4  N3        10.6530  -11.3620    6.4300 N.2   123  FMN123     -0.2300
      5  C4        10.5220  -11.3120    5.0600 C.1   123  FMN123      0.2513
      6  O4         9.5780  -11.9360    4.5330 O.2   123  FMN123     -0.2057
      7  C4A       11.4290  -10.5190    4.3630 C.2   123  FMN123      0.2706
      8  N5        11.3490  -10.4260    2.9860 N.2   123  FMN123     -0.3841
      9  C5A       12.1050   -9.4760    2.3300 C.2   123  FMN123      0.1452
     10  C6        11.8410   -9.2200    0.9900 C.2   123  FMN123      0.0252
     11  C7        12.5530   -8.2730    0.2940 C.2   123  FMN123     -0.0375
     12  C7M       12.2240   -8.0000   -1.1510 C.3   123  FMN123      0.0268
     13  C8        13.5820   -7.5870    0.9510 C.3   123  FMN123      0.0417
     14  C8M       14.4150   -6.5420    0.2080 C.3   123  FMN123      0.0091
     15  C9        13.8520   -7.8270    2.2940 C.2   123  FMN123     -0.0049
     16  C9A       13.0980   -8.7780    3.0020 C.2   123  FMN123      0.0795
     17  N10       13.3110   -9.0250    4.3760 N.pl3 123  FMN123     -0.2545
     18  C10       12.4280   -9.8200    5.0580 C.2   123  FMN123      0.2449
     19  C1'       14.2540   -8.1960    5.1490 C.3   123  FMN123      0.1336
     20  C2'       13.5230   -7.0050    5.8400 C.3   123  FMN123      0.2048
     21  O2'       13.0800   -6.0460    4.8780 O.3   123  FMN123     -0.2185
     22  C3'       14.3980   -6.3400    6.9100 C.3   123  FMN123      0.2165
     23  O3'       15.5460   -5.7880    6.2720 O.3   123  FMN123     -0.2175
     24  C4'       14.8620   -7.2930    8.0180 C.3   123  FMN123      0.2147
     25  O4'       13.7810   -8.1130    8.4750 O.3   123  FMN123     -0.2176
     26  C5'       15.3610   -6.4950    9.2020 C.3   123  FMN123      0.1892
     27  O5'       14.2500   -5.7790    9.7790 O.3   123  FMN123     -0.2674
     28  P         14.5180   -4.5870   10.8470 P.3   123  FMN123      0.5327
     29  O1P       15.2920   -3.4910   10.0820 O.2   123  FMN123     -0.2224
     30  O2P       15.3640   -5.1580   12.0100 O.3   123  FMN123     -0.1145
     31  O3P       13.1650   -4.1490   11.2960 O.3   123  FMN123     -0.1145
@<TRIPOS>BOND
     1    12    11    1
     2    14    13    1
     3    11    13    1
     4    11    10    2
     5    13    15    1
     6    10     9    1
     7    15    16    2
     8     9     8    2
     9     9    16    1
    10     8     7    2
    11    16    17    1
    12     7    18    1
    13     7     5    1
    14    17    18    1
    15    17    19    1
    16     6     5    2
    17    21    20    1
    18    18     1    2
    19     5     4    2
    20    19    20    1
    21    20    22    1
    22    23    22    1
    23     1     2    2
    24     4     2    2
    25    22    24    1
    26     2     3    2
    27    24    25    1
    28    24    26    1
    29    26    27    1
    30    27    28    1
    31    29    28    2
    32    28    31    1
    33    28    30    1
