@<TRIPOS>MOLECULE
3a6t_8OG_A_1.pdb
 24 26 0 0 0
SMALL
GASTEIGER

@<TRIPOS>ATOM
      1  OP3      -11.5280    0.5380   23.4170 O.3   134  8OG134     -0.1145
      2  P        -10.0750    0.8260   23.4770 P.3   134  8OG134      0.5327
      3  OP1       -9.8920    1.9880   24.3750 O.3   134  8OG134     -0.1145
      4  OP2       -9.5930    0.9350   22.0860 O.2   134  8OG134     -0.2224
      5  O5'       -9.3790   -0.4630   24.1370 O.3   134  8OG134     -0.2675
      6  C5'       -8.0490   -0.4020   24.6690 C.3   134  8OG134      0.1858
      7  C4'       -7.9530   -1.1440   26.0070 C.3   134  8OG134      0.1774
      8  O4'       -6.5840   -1.4900   26.3070 O.3   134  8OG134     -0.3338
      9  C3'       -8.4570   -0.3030   27.1750 C.3   134  8OG134      0.1857
     10  O3'       -9.1880   -1.1330   28.0930 O.3   134  8OG134     -0.2203
     11  C2'       -7.2130    0.2580   27.7860 C.3   134  8OG134      0.0875
     12  C1'       -6.1800   -0.8320   27.5250 C.3   134  8OG134      0.2114
     13  N9        -4.8200   -0.2560   27.3800 N.am  134  8OG134     -0.1521
     14  C8        -3.8150   -0.4280   28.2990 C.1   134  8OG134      0.2771
     15  N7        -2.7150    0.1400   28.0140 N.2   134  8OG134     -0.3037
     16  C5        -2.9300    0.7760   26.7870 C.2   134  8OG134      0.2850
     17  C6        -2.0810    1.5770   25.9570 C.1   134  8OG134      0.2509
     18  O6        -0.9130    1.8940   26.1520 O.2   134  8OG134     -0.2058
     19  N1        -2.7430    2.0110   24.7880 N.2   134  8OG134     -0.2475
     20  C2        -4.0680    1.7190   24.4490 C.1   134  8OG134      0.2532
     21  N2        -4.5220    2.2160   23.2950 N.pl3 134  8OG134     -0.0226
     22  N3        -4.8790    0.9690   25.2300 N.2   134  8OG134     -0.3052
     23  C4        -4.2580    0.5310   26.3760 C.2   134  8OG134      0.2558
     24  O8        -4.0320   -1.1020   29.3220 O.2   134  8OG134     -0.1925
@<TRIPOS>BOND
     1     4     2    2
     2    21    20    1
     3     1     2    1
     4     2     5    1
     5     2     3    1
     6     5     6    1
     7    20    19    2
     8    20    22    2
     9     6     7    1
    10    19    17    2
    11    22    23    2
    12    17    18    2
    13    17    16    1
    14     7     8    1
    15     7     9    1
    16     8    12    1
    17    23    16    1
    18    23    13    1
    19    16    15    2
    20     9    11    1
    21     9    10    1
    22    13    12    1
    23    13    14   am
    24    12    11    1
    25    15    14    2
    26    14    24    2
