@<TRIPOS>MOLECULE
3a6u_8OG_A_1.pdb
 24 26 0 0 0
SMALL
GASTEIGER

@<TRIPOS>ATOM
      1  OP3       -9.7690    2.2670   24.4890 O.3   5001  8OG5001    -0.1145
      2  P         -9.5440    1.3200   23.3740 P.3   5001  8OG5001     0.5327
      3  OP1       -8.4590    1.9040   22.5460 O.2   5001  8OG5001    -0.2224
      4  OP2      -10.8630    1.0580   22.7480 O.3   5001  8OG5001    -0.1145
      5  O5'       -9.0280   -0.0780   24.0160 O.3   5001  8OG5001    -0.2675
      6  C5'       -7.7310   -0.1850   24.6320 C.3   5001  8OG5001     0.1858
      7  C4'       -7.7750   -1.0060   25.9280 C.3   5001  8OG5001     0.1774
      8  O4'       -6.4500   -1.4430   26.3040 O.3   5001  8OG5001    -0.3338
      9  C3'       -8.3170   -0.1990   27.1060 C.3   5001  8OG5001     0.1857
     10  O3'       -9.1500   -1.0290   27.9380 O.3   5001  8OG5001    -0.2203
     11  C2'       -7.0970    0.2890   27.8280 C.3   5001  8OG5001     0.0875
     12  C1'       -6.0630   -0.7950   27.5500 C.3   5001  8OG5001     0.2114
     13  N9        -4.6890   -0.2250   27.4260 N.am  5001  8OG5001    -0.1521
     14  C8        -3.6930   -0.4250   28.3450 C.1   5001  8OG5001     0.2771
     15  N7        -2.5810    0.1330   28.0770 N.2   5001  8OG5001    -0.3037
     16  C5        -2.7830    0.7950   26.8640 C.2   5001  8OG5001     0.2850
     17  C6        -1.9250    1.5980   26.0390 C.1   5001  8OG5001     0.2509
     18  O6        -0.7500    1.9000   26.2240 O.2   5001  8OG5001    -0.2058
     19  N1        -2.5880    2.0610   24.8860 N.2   5001  8OG5001    -0.2475
     20  C2        -3.9110    1.7950   24.5520 C.1   5001  8OG5001     0.2532
     21  N2        -4.3640    2.3180   23.4130 N.pl3 5001  8OG5001    -0.0226
     22  N3        -4.7220    1.0430   25.3190 N.2   5001  8OG5001    -0.3052
     23  C4        -4.1120    0.5750   26.4470 C.2   5001  8OG5001     0.2558
     24  O8        -3.9300   -1.1080   29.3390 O.2   5001  8OG5001    -0.1925
@<TRIPOS>BOND
     1     3     2    2
     2     4     2    1
     3     2     5    1
     4     2     1    1
     5    21    20    1
     6     5     6    1
     7    20    19    2
     8    20    22    2
     9     6     7    1
    10    19    17    2
    11    22    23    2
    12     7     8    1
    13     7     9    1
    14    17    18    2
    15    17    16    1
    16     8    12    1
    17    23    16    1
    18    23    13    1
    19    16    15    2
    20     9    11    1
    21     9    10    1
    22    13    12    1
    23    13    14   am
    24    12    11    1
    25    15    14    2
    26    14    24    2
