@<TRIPOS>MOLECULE
3a70_NPO_A_1.pdb
 10 10 0 0 0
SMALL
GASTEIGER

@<TRIPOS>ATOM
      1  C1        18.5580   16.8600   24.6360 C.ar  630  NPO630      0.1431
      2  C2        17.2720   17.3750   24.8340 C.ar  630  NPO630      0.0274
      3  C3        16.9360   18.6400   24.3490 C.ar  630  NPO630      0.0437
      4  C4        17.8820   19.3980   23.6580 C.ar  630  NPO630      0.1958
      5  C5        19.1610   18.8930   23.4600 C.ar  630  NPO630      0.0437
      6  C6        19.4940   17.6270   23.9450 C.ar  630  NPO630      0.0274
      7  OH        17.5620   20.6360   23.1790 O.3   630  NPO630     -0.2866
      8  N1        18.8980   15.5870   25.1420 N.pl3 630  NPO630      0.0577
      9  O2        19.9620   15.0300   24.8770 O.2   630  NPO630     -0.1261
     10  O3        18.1080   15.0330   25.8880 O.2   630  NPO630     -0.1261
@<TRIPOS>BOND
     1     7     4    1
     2     5     4   ar
     3     5     6   ar
     4     4     3   ar
     5     6     1   ar
     6     3     2   ar
     7     1     2   ar
     8     1     8    1
     9     9     8    2
    10     8    10    2
