@<TRIPOS>MOLECULE
3a72_AHR_A_1.pdb
 10 10 0 0 0
SMALL
GASTEIGER

@<TRIPOS>ATOM
      1  O5'       34.2790   34.6640   15.4310 O.3   401  AHR401     -0.2176
      2  C5'       34.7720   35.6500   16.3950 C.3   401  AHR401      0.2142
      3  C4'       33.6790   36.6510   16.6420 C.3   401  AHR401      0.1837
      4  O4'       33.5060   37.4260   15.4480 O.3   401  AHR401     -0.3236
      5  C3'       34.0290   37.6500   17.7390 C.3   401  AHR401      0.2169
      6  O3'       33.6040   37.1370   19.0140 O.3   401  AHR401     -0.2175
      7  C2'       33.2260   38.9010   17.3060 C.3   401  AHR401      0.2433
      8  O2'       33.8630   40.1280   17.6570 O.3   401  AHR401     -0.2148
      9  C1'       33.0460   38.7360   15.7980 C.3   401  AHR401      0.3024
     10  O1'       31.6310   38.7410   15.4520 O.3   401  AHR401     -0.1869
@<TRIPOS>BOND
     1     1     2    1
     2     4     9    1
     3     4     3    1
     4    10     9    1
     5     9     7    1
     6     2     3    1
     7     3     5    1
     8     7     8    1
     9     7     5    1
    10     5     6    1
