@<TRIPOS>MOLECULE
3a73_PJ2_A_1.pdb
 24 24 0 0 0
SMALL
GASTEIGER

@<TRIPOS>ATOM
      1  CAA       28.5910   32.2420  -61.5570 C.3   1011  PJ21011     0.0000
      2  OAB       27.5690   35.4570  -62.4570 O.co2 1011  PJ21011    -0.2457
      3  OAC       31.4370   33.1970  -53.6150 O.2   1011  PJ21011    -0.2869
      4  OAD       25.5590   36.1830  -63.0980 O.co2 1011  PJ21011    -0.2457
      5  OAE       30.8360   29.6150  -57.4860 O.3   1011  PJ21011    -0.2228
      6  CAF       26.4330   35.5350  -58.2600 C.2   1011  PJ21011    -0.0307
      7  CAG       27.5000   35.3450  -57.3640 C.2   1011  PJ21011    -0.0300
      8  CAH       30.1070   34.9270  -53.9920 C.2   1011  PJ21011     0.0375
      9  CAI       29.3110   35.4020  -54.9450 C.2   1011  PJ21011    -0.0184
     10  CAJ       30.9350   32.2260  -56.1820 C.2   1011  PJ21011    -0.0243
     11  CAK       29.8140   31.3300  -61.4930 C.3   1011  PJ21011     0.0000
     12  CAL       25.5990   34.5890  -58.8080 C.3   1011  PJ21011     0.0263
     13  CAM       28.0120   34.2090  -56.7490 C.3   1011  PJ21011     0.0345
     14  CAN       30.5480   31.8750  -57.4620 C.3   1011  PJ21011     0.0587
     15  CAO       29.4980   29.8760  -61.2530 C.3   1011  PJ21011     0.0001
     16  CAP       25.1870   35.0160  -60.2090 C.3   1011  PJ21011     0.0165
     17  CAQ       30.2700   29.4830  -60.0410 C.3   1011  PJ21011     0.0026
     18  CAR       26.0650   36.1670  -60.7500 C.3   1011  PJ21011     0.1144
     19  CAS       30.8900   30.7530  -59.5440 C.3   1011  PJ21011     0.0332
     20  CAT       26.4230   35.9180  -62.2260 C.2   1011  PJ21011     0.3649
     21  CAU       30.7140   33.8140  -54.3460 C.2   1011  PJ21011     0.1914
     22  CAV       30.3600   33.3680  -55.5780 C.2   1011  PJ21011     0.0166
     23  CAW       31.2930   30.7730  -58.0990 C.3   1011  PJ21011     0.1563
     24  CAX       29.4410   34.5030  -56.1710 C.3   1011  PJ21011     0.0515
@<TRIPOS>BOND
     1     4    20   ar
     2     2    20   ar
     3    20    18    1
     4     1    11    1
     5    11    15    1
     6    15    17    1
     7    18    16    1
     8    16    12    1
     9    17    19    1
    10    19    23    1
    11    12     6    1
    12     6     7    2
    13    23     5    1
    14    23    14    1
    15    14    10    1
    16     7    13    1
    17    13    24    1
    18    10    22    2
    19    24    22    1
    20    24     9    1
    21    22    21    1
    22     9     8    2
    23    21     8    1
    24    21     3    2
