@<TRIPOS>MOLECULE
3a74_LYN_A_1.pdb
 10 9 0 0 0
SMALL
GASTEIGER

@<TRIPOS>ATOM
      1  N         62.8770  -70.1540   22.3400 N.3   495  LYN495     -0.1230
      2  CA        61.8960  -70.8930   21.5320 C.3   495  LYN495      0.1709
      3  CB        62.5590  -72.1450   20.9510 C.3   495  LYN495      0.0285
      4  CG        63.6200  -71.8060   19.9000 C.3   495  LYN495      0.0035
      5  CD        62.9880  -71.2570   18.6190 C.3   495  LYN495      0.0206
      6  CE        64.0470  -70.8960   17.5750 C.3   495  LYN495      0.1093
      7  NZ        64.8730  -69.7810   18.0620 N.3   495  LYN495     -0.1314
      8  C         60.7320  -71.3090   22.4330 C.2   495  LYN495      0.2781
      9  O         60.9330  -71.7590   23.5600 O.2   495  LYN495     -0.2701
     10  NT        59.5250  -71.1360   21.9020 N.am  495  LYN495     -0.0865
@<TRIPOS>BOND
     1     6     7    1
     2     6     5    1
     3     5     4    1
     4     4     3    1
     5     3     2    1
     6     2     1    1
     7     2     8    1
     8    10     8   am
     9     8     9    2
