@<TRIPOS>MOLECULE
3a75_GLU_B_1.pdb
 10 9 0 0 0
SMALL
GASTEIGER

@<TRIPOS>ATOM
      1  N         20.8710   43.3460   20.7240 N.3   600  GLU600     -0.1208
      2  CA        20.3080   43.6650   19.3880 C.3   600  GLU600      0.1949
      3  C         21.3610   44.0170   18.3110 C.2   600  GLU600      0.3819
      4  O         22.4990   44.4370   18.6490 O.co2 600  GLU600     -0.2441
      5  CB        19.3180   44.8280   19.5210 C.3   600  GLU600      0.0424
      6  CG        18.1170   44.5510   20.4090 C.3   600  GLU600      0.1161
      7  CD        16.9270   45.4170   20.0030 C.2   600  GLU600      0.3649
      8  OE1       17.1030   46.2990   19.1250 O.co2 600  GLU600     -0.2457
      9  OE2       15.8250   45.2230   20.5580 O.co2 600  GLU600     -0.2457
     10  OXT       20.9960   43.8860   17.1160 O.co2 600  GLU600     -0.2441
@<TRIPOS>BOND
     1    10     3   ar
     2     3     4   ar
     3     3     2    1
     4     8     7   ar
     5     2     5    1
     6     2     1    1
     7     5     6    1
     8     7     6    1
     9     7     9   ar
