@<TRIPOS>MOLECULE
3a78_3EV_A_1.pdb
 30 32 0 0 0
SMALL
GASTEIGER

@<TRIPOS>ATOM
      1  C1        13.9710   17.1940   35.7000 C.3   428  3EV428      0.1765
      2  O1        12.8690   16.6410   36.4140 O.3   428  3EV428     -0.2182
      3  C2        14.6710   16.0930   34.9010 C.3   428  3EV428      0.0707
      4  O2        16.5660   15.6040   33.4620 O.3   428  3EV428     -0.2227
      5  C3        15.8440   16.6740   34.1010 C.3   428  3EV428      0.1592
      6  O3         4.5250   26.0720   34.7300 O.3   428  3EV428     -0.2257
      7  C4        15.3390   17.7010   33.0710 C.3   428  3EV428      0.0591
      8  C5        14.5150   18.7550   33.7800 C.2   428  3EV428     -0.0213
      9  C6        14.7180   20.0580   33.4880 C.2   428  3EV428     -0.0051
     10  C7        14.0070   21.1760   34.1240 C.2   428  3EV428     -0.0088
     11  C8        13.7840   22.3840   33.5650 C.2   428  3EV428     -0.0446
     12  C9        14.1910   22.7330   32.1460 C.3   428  3EV428      0.0220
     13  C10       13.5210   18.2660   34.7460 C.2   428  3EV428      0.0039
     14  C11       12.9560   23.2830   31.4040 C.3   428  3EV428      0.0044
     15  C12       12.1660   24.3440   32.1980 C.3   428  3EV428      0.0006
     16  C13       11.7550   23.8390   33.5880 C.3   428  3EV428      0.0034
     17  C14       13.0610   23.4890   34.2970 C.3   428  3EV428      0.0183
     18  C15       12.7040   23.3350   35.7810 C.3   428  3EV428      0.0040
     19  C16       11.5420   24.3250   35.9610 C.3   428  3EV428      0.0003
     20  C17       11.2730   24.9180   34.5620 C.3   428  3EV428      0.0003
     21  C18       10.8240   22.6200   33.4760 C.3   428  3EV428      0.0003
     22  C19       12.2690   18.7120   34.7620 C.2   428  3EV428     -0.0024
     23  C20        9.9110   25.6320   34.3190 C.3   428  3EV428      0.0000
     24  C21        9.9120   27.0420   34.9140 C.3   428  3EV428      0.0000
     25  C22        8.6700   24.8780   34.8070 C.3   428  3EV428      0.0001
     26  C23        7.4040   25.2830   34.0410 C.3   428  3EV428      0.0025
     27  C24        6.2400   24.3690   34.4100 C.3   428  3EV428      0.0304
     28  C25        4.8560   24.8810   34.0070 C.3   428  3EV428      0.1268
     29  C26        4.8030   25.2120   32.5230 C.3   428  3EV428      0.0329
     30  C27        3.8180   23.8160   34.3440 C.3   428  3EV428      0.0329
@<TRIPOS>BOND
     1    14    12    1
     2    14    15    1
     3    12    11    1
     4    15    16    1
     5    29    28    1
     6     7     8    1
     7     7     5    1
     8     4     5    1
     9    21    16    1
    10     9     8    2
    11     9    10    1
    12    11    10    2
    13    11    17    1
    14    16    17    1
    15    16    20    1
    16     8    13    1
    17    28    30    1
    18    28    27    1
    19    28     6    1
    20    26    27    1
    21    26    25    1
    22     5     3    1
    23    17    18    1
    24    23    20    1
    25    23    25    1
    26    23    24    1
    27    20    19    1
    28    13    22    2
    29    13     1    1
    30     3     1    1
    31     1     2    1
    32    18    19    1
