@<TRIPOS>MOLECULE
3a79_PXS_C_1.pdb
 39 38 0 0 0
SMALL
GASTEIGER

@<TRIPOS>ATOM
      1  C01        6.4050  -38.4480   33.2970 C.3   581  PXS581      0.0303
      2  C02        7.5930  -39.2480   33.8430 C.2   581  PXS581     -0.0303
      3  C03        8.1160  -40.3720   32.9480 C.2   581  PXS581     -0.0303
      4  C04        9.1940  -41.2600   33.5710 C.3   581  PXS581      0.0304
      5  C05       10.1940  -41.8490   32.5740 C.3   581  PXS581      0.0307
      6  C06       11.3690  -42.6530   33.1400 C.2   581  PXS581     -0.0258
      7  C07       12.7660  -42.1870   32.6780 C.2   581  PXS581     -0.0049
      8  C08       13.9450  -43.1560   32.9480 C.2   581  PXS581     -0.0049
      9  C09       15.3650  -42.5740   32.7980 C.2   581  PXS581     -0.0261
     10  C10       16.5570  -43.5440   32.9760 C.3   581  PXS581      0.0260
     11  C11       17.8330  -43.1690   32.2050 C.3   581  PXS581      0.0047
     12  C12       19.1620  -43.7820   32.6790 C.3   581  PXS581      0.0004
     13  C13       20.3950  -42.8920   32.4160 C.3   581  PXS581      0.0006
     14  C14       21.8050  -43.5000   32.6250 C.3   581  PXS581      0.0116
     15  C15       22.7750  -42.5530   33.3650 C.3   581  PXS581      0.1096
     16  C16       23.1090  -42.9420   34.8220 C.2   581  PXS581      0.3171
     17  O17       23.5460  -41.9480   35.7210 O.3   581  PXS581     -0.4445
     18  C18       24.5640  -42.3080   36.6290 C.3   581  PXS581      0.2516
     19  C19       25.4020  -41.1700   37.2360 C.3   581  PXS581      0.2124
     20  C20       25.4510  -41.3450   38.6190 C.3   581  PXS581      0.0514
     21  O21       24.7910  -40.0670   36.9090 O.3   581  PXS581     -0.4484
     22  C22       25.3850  -39.2690   35.9220 C.2   581  PXS581      0.3170
     23  C23       24.7980  -37.8590   35.7120 C.3   581  PXS581      0.1096
     24  C24       24.5680  -37.4120   34.2520 C.3   581  PXS581      0.0116
     25  C25       23.4620  -38.1260   33.4380 C.3   581  PXS581      0.0006
     26  C26       22.3380  -38.8280   34.2150 C.3   581  PXS581      0.0000
     27  C27       21.0450  -37.9960   34.3270 C.3   581  PXS581      0.0003
     28  C28       19.8410  -38.4850   33.4960 C.3   581  PXS581      0.0047
     29  C29       18.7970  -39.3280   34.2640 C.3   581  PXS581      0.0260
     30  C30       17.3980  -38.6930   34.4080 C.2   581  PXS581     -0.0261
     31  C31       16.2000  -39.6190   34.1570 C.2   581  PXS581     -0.0049
     32  C32       14.8140  -38.9640   34.2710 C.2   581  PXS581     -0.0046
     33  C33       14.6920  -37.5360   33.6960 C.2   581  PXS581     -0.0214
     34  C34       13.2540  -36.9780   33.6110 C.3   581  PXS581      0.0517
     35  C35       12.8360  -35.9820   34.7050 C.2   581  PXS581     -0.0260
     36  C36       11.8610  -36.4870   35.7780 C.2   581  PXS581     -0.0300
     37  C37       11.3780  -35.4310   36.7800 C.3   581  PXS581      0.0304
     38  O38       26.3550  -39.6570   35.3580 O.2   581  PXS581     -0.2501
     39  O39       23.0420  -44.0750   35.1680 O.2   581  PXS581     -0.2501
@<TRIPOS>BOND
     1    11    12    1
     2    11    10    1
     3    13    14    1
     4    13    12    1
     5     5     6    1
     6     5     4    1
     7    14    15    1
     8     7     8    1
     9     7     6    2
    10     9     8    2
    11     9    10    1
    12     3     4    1
    13     3     2    2
    14     1     2    1
    15    15    16    1
    16    25    26    1
    17    25    24    1
    18    28    29    1
    19    28    27    1
    20    34    33    1
    21    34    35    1
    22    33    32    2
    23    31    32    1
    24    31    30    2
    25    26    27    1
    26    24    23    1
    27    29    30    1
    28    35    36    2
    29    16    39    2
    30    16    17    1
    31    38    22    2
    32    23    22    1
    33    17    18    1
    34    36    37    1
    35    22    21    1
    36    18    19    1
    37    21    19    1
    38    19    20    1
