@<TRIPOS>MOLECULE
3a79_III_C_1.pdb
 49 48 0 0 0
SMALL
GASTEIGER

@<TRIPOS>ATOM
      1  N         28.5360  -42.2470   40.8770 N.3    11  CYS11      -0.1221
      2  CA        27.2200  -41.9280   41.4150 C.3    11  CYS11       0.1808
      3  C         27.2840  -42.1640   42.8990 C.2    11  CYS11       0.2602
      4  O         28.2450  -42.7450   43.3750 O.2    11  CYS11      -0.2717
      5  CB        26.1660  -42.8440   40.7980 C.3    11  CYS11       0.0970
      6  SG        26.2050  -42.9150   39.0060 S.3    11  CYS11      -0.0800
      7  N         26.2750  -41.7320   43.6420 N.am   12  SER12      -0.1938
      8  CA        26.2790  -42.0140   45.0710 C.3    12  SER12       0.2055
      9  C         25.0400  -42.7510   45.5450 C.2    12  SER12       0.2643
     10  O         23.9470  -42.5350   45.0320 O.2    12  SER12      -0.2714
     11  CB        26.4990  -40.7460   45.8950 C.3    12  SER12       0.2130
     12  OG        25.9130  -39.6290   45.2750 O.3    12  SER12      -0.2179
     13  N         25.2310  -43.6300   46.5240 N.am   13  LYS13      -0.1963
     14  CA        24.1270  -44.2970   47.1900 C.3    13  LYS13       0.1728
     15  C         23.4150  -43.2980   48.0970 C.2    13  LYS13       0.2616
     16  O         23.8510  -42.1550   48.2170 O.2    13  LYS13      -0.2715
     17  CB        24.6540  -45.4810   47.9850 C.3    13  LYS13       0.0311
     18  CG        25.3550  -46.5110   47.1160 C.3    13  LYS13       0.0038
     19  CD        26.4820  -47.1960   47.8770 C.3    13  LYS13       0.0206
     20  CE        27.6060  -46.2110   48.2240 C.3    13  LYS13       0.1093
     21  NZ        28.8590  -46.9030   48.6550 N.3    13  LYS13      -0.1314
     22  N         22.3230  -43.7170   48.7310 N.am   14  LYS14      -0.1963
     23  CA        21.4690  -42.7770   49.4590 C.3    14  LYS14       0.1728
     24  C         22.0630  -42.3090   50.7940 C.2    14  LYS14       0.2616
     25  O         23.1630  -41.7540   50.8300 O.2    14  LYS14      -0.2715
     26  CB        20.0640  -43.3530   49.6460 C.3    14  LYS14       0.0311
     27  CG        19.0240  -42.3560   50.1620 C.3    14  LYS14       0.0038
     28  CD        19.1750  -40.9740   49.5400 C.3    14  LYS14       0.0206
     29  CE        18.0620  -40.0390   50.0090 C.3    14  LYS14       0.1093
     30  NZ        18.4090  -38.5970   49.8220 N.3    14  LYS14      -0.1314
     31  N         21.3310  -42.5180   51.8860 N.am   15  LYS15      -0.1963
     32  CA        21.7600  -42.0250   53.1940 C.3    15  LYS15       0.1728
     33  C         21.5300  -43.0610   54.3090 C.2    15  LYS15       0.2617
     34  O         21.2350  -42.7000   55.4530 O.2    15  LYS15      -0.2715
     35  CB        21.0570  -40.6980   53.5300 C.3    15  LYS15       0.0311
     36  CG        20.8020  -39.7670   52.3330 C.3    15  LYS15       0.0038
     37  CD        22.0770  -39.1210   51.7830 C.3    15  LYS15       0.0206
     38  CE        22.5260  -37.9280   52.6240 C.3    15  LYS15       0.1093
     39  NZ        23.5620  -37.1000   51.9380 N.3    15  LYS15      -0.1314
     40  N         21.6670  -44.3430   53.9670 N.am   16  LYS16      -0.1942
     41  CA        21.5400  -45.4390   54.9360 C.3    16  LYS16       0.1978
     42  C         22.8260  -46.2630   55.0310 C.2    16  LYS16       0.3842
     43  O         22.9510  -47.1400   55.8840 O.co2  16  LYS16      -0.2437
     44  CB        20.3600  -46.3570   54.5840 C.3    16  LYS16       0.0333
     45  CG        18.9840  -45.7590   54.8590 C.3    16  LYS16       0.0039
     46  CD        17.8590  -46.7040   54.4430 C.3    16  LYS16       0.0206
     47  CE        16.4980  -46.0050   54.4730 C.3    16  LYS16       0.1093
     48  NZ        15.4040  -46.8470   53.9140 N.3    16  LYS16      -0.1314
     49  OXT       23.7690  -46.0800   54.2580 O.co2  16  LYS16      -0.2437
@<TRIPOS>BOND
     1     6     5    1
     2     5     2    1
     3     1     2    1
     4     2     3    1
     5     3     4    2
     6     3     7   am
     7     7     8    1
     8    10     9    2
     9     8     9    1
    10     8    11    1
    11    12    11    1
    12     9    13   am
    13    13    14    1
    14    18    19    1
    15    18    17    1
    16    14    17    1
    17    14    15    1
    18    19    20    1
    19    15    16    2
    20    15    22   am
    21    20    21    1
    22    22    23    1
    23    23    26    1
    24    23    24    1
    25    28    29    1
    26    28    27    1
    27    26    27    1
    28    30    29    1
    29    24    25    2
    30    24    31   am
    31    37    36    1
    32    37    38    1
    33    31    32    1
    34    39    38    1
    35    36    35    1
    36    32    35    1
    37    32    33    1
    38    48    47    1
    39    40    33   am
    40    40    41    1
    41    49    42   ar
    42    33    34    2
    43    46    47    1
    44    46    45    1
    45    44    45    1
    46    44    41    1
    47    41    42    1
    48    42    43   ar
