@<TRIPOS>MOLECULE
3a7a_AMP_A_1.pdb
 23 25 0 0 0
SMALL
GASTEIGER

@<TRIPOS>ATOM
      1  P        -15.2340  -12.8820   28.3770 P.3   402  AMP402      0.5327
      2  O1P      -16.5130  -13.0670   27.6500 O.2   402  AMP402     -0.2224
      3  O2P      -14.4950  -11.6010   28.2790 O.3   402  AMP402     -0.1145
      4  O3P      -14.3050  -14.1310   27.9970 O.3   402  AMP402     -0.1145
      5  O5'      -15.4720  -13.1430   29.9510 O.3   402  AMP402     -0.2675
      6  C5'      -14.7180  -12.4120   30.9320 C.3   402  AMP402      0.1860
      7  C4'      -15.4840  -12.3570   32.2560 C.3   402  AMP402      0.1823
      8  O4'      -16.0690  -13.6510   32.4960 O.3   402  AMP402     -0.3135
      9  C3'      -14.5400  -12.1710   33.4310 C.3   402  AMP402      0.2184
     10  O3'      -14.2520  -10.7800   33.6000 O.3   402  AMP402     -0.2174
     11  C2'      -15.4110  -12.6690   34.5760 C.3   402  AMP402      0.2570
     12  O2'      -16.3220  -11.6380   34.9510 O.3   402  AMP402     -0.2130
     13  C1'      -16.2140  -13.8050   33.9400 C.3   402  AMP402      0.3186
     14  N9       -15.6970  -15.1680   34.2530 N.pl3 402  AMP402     -0.1439
     15  C8       -14.5070  -15.4870   34.7690 C.3   402  AMP402      0.3377
     16  N7       -14.4170  -16.8150   34.8860 N.2   402  AMP402     -0.2095
     17  C5       -15.5520  -17.3410   34.4410 C.2   402  AMP402      0.2526
     18  C6       -16.0290  -18.6350   34.3170 C.2   402  AMP402      0.4393
     19  N6       -15.2900  -19.6790   34.6910 N.pl3 402  AMP402      0.2180
     20  N1       -17.2570  -18.8240   33.8120 N.2   402  AMP402      0.0021
     21  C2       -18.0060  -17.7990   33.4340 C.3   402  AMP402      0.5254
     22  N3       -17.5790  -16.5510   33.5390 N.2   402  AMP402     -0.0055
     23  C4       -16.3630  -16.2960   34.0370 C.2   402  AMP402      0.3518
@<TRIPOS>BOND
     1     2     1    2
     2     4     1    1
     3     3     1    1
     4     1     5    1
     5     5     6    1
     6     6     7    1
     7     7     8    1
     8     7     9    1
     9     8    13    1
    10     9    10    1
    11     9    11    1
    12    21    22    1
    13    21    20    1
    14    22    23    2
    15    20    18    2
    16    13    14    1
    17    13    11    1
    18    23    14    1
    19    23    17    1
    20    14    15    1
    21    18    17    1
    22    18    19    1
    23    17    16    2
    24    11    12    1
    25    15    16    1
