@<TRIPOS>MOLECULE
3a7d_FBN_A_1.pdb
 38 42 0 0 0
SMALL
GASTEIGER

@<TRIPOS>ATOM
      1  C1        30.7590   -2.4750   -9.0070 C.2   304  FBN304      0.3518
      2  N2        30.4510   -1.3210   -8.3640 N.2   304  FBN304     -0.0055
      3  C3        31.0740   -0.9870   -7.2180 C.3   304  FBN304      0.5254
      4  N4        32.0230   -1.7510   -6.6450 N.2   304  FBN304      0.0021
      5  C5        32.4360   -2.9230   -7.1800 C.2   304  FBN304      0.4393
      6  C6        31.7890   -3.3590   -8.4400 C.2   304  FBN304      0.2526
      7  N8        31.8880   -4.4170   -9.2700 N.2   304  FBN304     -0.2095
      8  C9        31.0040   -4.2220  -10.2890 C.3   304  FBN304      0.3377
      9  N10       30.3350   -3.0650  -10.1270 N.pl3 304  FBN304     -0.1439
     10  N11       33.3960   -3.6740   -6.5800 N.pl3 304  FBN304      0.2180
     11  C15       29.2890   -2.5140  -11.0150 C.3   304  FBN304      0.3186
     12  O16       28.2680   -3.4710  -11.2880 O.3   304  FBN304     -0.3147
     13  C17       27.5340   -2.9320  -12.3970 C.3   304  FBN304      0.1700
     14  C18       28.4860   -2.0520  -13.1700 C.3   304  FBN304      0.2174
     15  C19       29.7910   -2.1510  -12.4080 C.3   304  FBN304      0.2569
     16  O21       27.9060   -0.7560  -13.0870 O.3   304  FBN304     -0.2175
     17  O23       30.4970   -0.9120  -12.4350 O.3   304  FBN304     -0.2130
     18  C27       27.0400   -3.9790  -13.3560 C.3   304  FBN304      0.1281
     19  N29       27.9150   -5.1090  -13.2140 N.3   304  FBN304     -0.1608
     20  C32       27.7430   -6.1720  -12.4570 C.3   304  FBN304      0.1400
     21  C33       28.8480   -6.9510  -12.6590 C.2   304  FBN304      0.0968
     22  N34       29.6930   -6.3830  -13.5700 N.2   304  FBN304     -0.1522
     23  N35       29.1100   -5.1550  -13.9530 N.pl3 304  FBN304     -0.0630
     24  C37       28.8970   -8.2450  -11.9300 C.3   304  FBN304      0.1595
     25  N38       27.5060   -8.6090  -12.1120 N.am  304  FBN304     -0.1953
     26  C41       27.2470   -9.2110  -13.2560 C.2   304  FBN304      0.2684
     27  C42       25.9050   -9.7720  -13.6080 C.ar  304  FBN304      0.0988
     28  O43       28.1580   -9.3730  -14.0570 O.2   304  FBN304     -0.2682
     29  C45       24.6070   -9.4290  -12.9740 C.ar  304  FBN304      0.2387
     30  C46       23.4000  -10.1190  -13.4780 C.ar  304  FBN304      0.2361
     31  C47       23.5020  -11.0450  -14.5030 C.ar  304  FBN304      0.0694
     32  C48       24.7500  -11.3180  -15.0640 C.ar  304  FBN304      0.1464
     33  C49       25.9090  -10.7040  -14.6240 C.ar  304  FBN304      0.0321
     34  O52       24.4730   -8.5210  -11.9790 O.3   304  FBN304     -0.2830
     35  O53       22.2020   -9.8390  -12.9330 O.3   304  FBN304     -0.2831
     36  N54       24.8930  -12.2470  -16.0890 N.pl3 304  FBN304      0.0578
     37  O55       26.0170  -12.4970  -16.4970 O.2   304  FBN304     -0.1261
     38  O56       23.9170  -12.8110  -16.5510 O.2   304  FBN304     -0.1261
@<TRIPOS>BOND
     1    38    36    2
     2    37    36    2
     3    36    32    1
     4    32    33   ar
     5    32    31   ar
     6    33    27   ar
     7    31    30   ar
     8    28    26    2
     9    23    22    1
    10    23    19    1
    11    27    26    1
    12    27    29   ar
    13    22    21    2
    14    30    29   ar
    15    30    35    1
    16    18    19    1
    17    18    13    1
    18    26    25   am
    19    19    20    1
    20    14    16    1
    21    14    15    1
    22    14    13    1
    23    29    34    1
    24    21    20    1
    25    21    24    1
    26    17    15    1
    27    15    11    1
    28    13    12    1
    29    25    24    1
    30    12    11    1
    31    11     9    1
    32     8     9    1
    33     8     7    1
    34     9     1    1
    35     7     6    2
    36     1     6    1
    37     1     2    2
    38     6     5    1
    39     2     3    1
    40     3     4    1
    41     5     4    2
    42     5    10    1
