@<TRIPOS>MOLECULE
3a7e_DNC_A_1.pdb
 14 14 0 0 0
SMALL
GASTEIGER

@<TRIPOS>ATOM
      1  C1       -14.5710    9.2110   22.2240 C.ar  217  DNC217      0.2376
      2  O1       -15.8250    9.7400   22.1350 O.3   217  DNC217     -0.2830
      3  C2       -13.4380    9.8980   21.5720 C.ar  217  DNC217      0.2565
      4  O2       -13.6410   11.0560   20.8860 O.3   217  DNC217     -0.2813
      5  C3       -12.0900    9.2970   21.6920 C.ar  217  DNC217      0.1864
      6  N1       -10.9890    9.9030   21.0850 N.pl3 217  DNC217      0.0610
      7  O3       -10.0520    9.2250   20.7170 O.2   217  DNC217     -0.1260
      8  O4       -10.9690   11.1060   20.9050 O.2   217  DNC217     -0.1260
      9  C4       -11.9410    8.1150   22.4080 C.ar  217  DNC217      0.0517
     10  C5       -13.0370    7.4950   23.0140 C.ar  217  DNC217      0.1479
     11  N2       -12.8340    6.3020   23.7300 N.pl3 217  DNC217      0.0578
     12  O5       -12.1490    5.4130   23.2520 O.2   217  DNC217     -0.1261
     13  O6       -13.3400    6.1510   24.8300 O.2   217  DNC217     -0.1261
     14  C6       -14.3260    8.0340   22.9240 C.ar  217  DNC217      0.0695
@<TRIPOS>BOND
     1     7     6    2
     2     4     3    1
     3     8     6    2
     4     6     5    1
     5     3     5   ar
     6     3     1   ar
     7     5     9   ar
     8     2     1    1
     9     1    14   ar
    10     9    10   ar
    11    14    10   ar
    12    10    11    1
    13    12    11    2
    14    11    13    2
