@<TRIPOS>MOLECULE
3a7e_SAM_A_1.pdb
 27 29 0 0 0
SMALL
GASTEIGER

@<TRIPOS>ATOM
      1  N        -15.5810   14.3610   15.5700 N.3   216  SAM216     -0.1208
      2  CA       -15.7020   12.9420   15.1380 C.3   216  SAM216      0.1952
      3  C        -17.1160   12.4480   15.3970 C.2   216  SAM216      0.3819
      4  O        -17.6380   12.6230   16.4950 O.co2 216  SAM216     -0.2441
      5  OXT      -17.7690   11.8670   14.5310 O.co2 216  SAM216     -0.2441
      6  CB       -14.7350   12.0300   15.8870 C.3   216  SAM216      0.0414
      7  CG       -13.2710   12.4530   15.9690 C.3   216  SAM216      0.0503
      8  SD       -12.2810   11.1480   16.7460 S.3   216  SAM216     -0.1761
      9  CE       -12.8390   11.3210   18.4550 C.3   216  SAM216      0.0590
     10  C5'      -10.6300   11.8670   16.8380 C.3   216  SAM216      0.0806
     11  C4'      -10.1000   12.1820   15.4490 C.3   216  SAM216      0.1622
     12  O4'       -9.3360   13.3690   15.4850 O.3   216  SAM216     -0.3153
     13  C3'       -9.2120   11.0750   14.9060 C.3   216  SAM216      0.2168
     14  O3'       -9.7230   10.6520   13.6610 O.3   216  SAM216     -0.2175
     15  C2'       -7.8530   11.7200   14.7330 C.3   216  SAM216      0.2569
     16  O2'       -7.2830   11.3500   13.5030 O.3   216  SAM216     -0.2130
     17  C1'       -8.1430   13.2100   14.7520 C.3   216  SAM216      0.3185
     18  N9        -7.0910   13.9870   15.4250 N.pl3 216  SAM216     -0.1439
     19  C8        -6.3800   13.6440   16.5510 C.3   216  SAM216      0.3377
     20  N7        -5.5190   14.6470   16.8350 N.2   216  SAM216     -0.2095
     21  C5        -5.6770   15.6280   15.9120 C.2   216  SAM216      0.2526
     22  C6        -5.0610   16.8600   15.7320 C.2   216  SAM216      0.4393
     23  N6        -4.1150   17.2770   16.5670 N.pl3 216  SAM216      0.2180
     24  N1        -5.4420   17.6560   14.6770 N.2   216  SAM216      0.0021
     25  C2        -6.4280   17.2310   13.8040 C.3   216  SAM216      0.5254
     26  N3        -7.0410   16.0080   13.9840 N.2   216  SAM216     -0.0055
     27  C4        -6.6670   15.2240   15.0230 C.2   216  SAM216      0.3518
@<TRIPOS>BOND
     1    16    15    1
     2    14    13    1
     3    25    26    1
     4    25    24    1
     5    26    27    2
     6     5     3   ar
     7    24    22    2
     8    15    17    1
     9    15    13    1
    10    17    18    1
    11    17    12    1
    12    13    11    1
    13    27    18    1
    14    27    21    1
    15     2     3    1
    16     2     1    1
    17     2     6    1
    18     3     4   ar
    19    18    19    1
    20    11    12    1
    21    11    10    1
    22    22    21    1
    23    22    23    1
    24     6     7    1
    25    21    20    2
    26     7     8    1
    27    19    20    1
    28     8    10    1
    29     8     9    1
