@<TRIPOS>MOLECULE
3a7h_ATP_A_1.pdb
 27 29 0 0 0
SMALL
GASTEIGER

@<TRIPOS>ATOM
      1  PB         5.0280   23.7760   49.0870 P.3   400  ATP400      0.5373
      2  O1B        5.7610   23.2720   50.2960 O.3   400  ATP400     -0.1143
      3  O2B        5.0500   23.0970   47.8250 O.2   400  ATP400     -0.2221
      4  O3B        3.4450   24.0690   49.5360 O.3   400  ATP400     -0.1143
      5  PA         6.4410   26.2700   48.3860 P.3   400  ATP400      0.2231
      6  O1A        6.3480   27.5330   49.1280 O.3   400  ATP400     -0.4370
      7  O2A        7.7640   25.5480   48.4860 O.2   400  ATP400     -0.5169
      8  O3A        5.1880   25.3610   48.8620 O.3   400  ATP400     -0.2261
      9  O5'        6.2320   26.3400   46.7860 O.3   400  ATP400     -0.3111
     10  C5'        5.1500   25.9690   45.8760 C.3   400  ATP400      0.1813
     11  C4'        5.5310   26.7500   44.5940 C.3   400  ATP400      0.1821
     12  O4'        6.5570   27.7070   44.6630 O.3   400  ATP400     -0.3135
     13  C3'        6.0390   25.8150   43.4240 C.3   400  ATP400      0.2184
     14  O3'        5.1810   24.7250   43.1210 O.3   400  ATP400     -0.2174
     15  C2'        6.2770   26.9630   42.4660 C.3   400  ATP400      0.2570
     16  O2'        5.1020   27.5400   41.9060 O.3   400  ATP400     -0.2130
     17  C1'        7.1840   27.9480   43.3500 C.3   400  ATP400      0.3186
     18  N9         8.6350   27.3840   43.4840 N.pl3 400  ATP400     -0.1439
     19  C8         9.2380   26.6920   44.5650 C.3   400  ATP400      0.3377
     20  N7        10.4720   26.3200   44.4180 N.2   400  ATP400     -0.2095
     21  C5        10.7700   26.7850   43.1690 C.2   400  ATP400      0.2526
     22  C6        11.9670   26.7380   42.3720 C.2   400  ATP400      0.4393
     23  N6        13.0640   26.1410   42.8450 N.pl3 400  ATP400      0.2180
     24  N1        11.9480   27.3360   41.1230 N.2   400  ATP400      0.0021
     25  C2        10.8320   27.9480   40.6440 C.3   400  ATP400      0.5254
     26  N3         9.6480   28.0360   41.3090 N.2   400  ATP400     -0.0055
     27  C4         9.6690   27.4410   42.5670 C.2   400  ATP400      0.3518
@<TRIPOS>BOND
     1    25    24    1
     2    25    26    1
     3    24    22    2
     4    26    27    2
     5    16    15    1
     6    22    23    1
     7    22    21    1
     8    15    17    1
     9    15    13    1
    10    27    21    1
    11    27    18    1
    12    14    13    1
    13    21    20    2
    14    17    18    1
    15    17    12    1
    16    13    11    1
    17    18    19    1
    18    20    19    1
    19    11    12    1
    20    11    10    1
    21    10     9    1
    22     9     5    1
    23     3     1    2
    24     5     7    2
    25     5     8    1
    26     5     6    1
    27     8     1    1
    28     1     4    1
    29     1     2    1
