@<TRIPOS>MOLECULE
3a7i_ADE_A_1.pdb
 10 11 0 0 0
SMALL
GASTEIGER

@<TRIPOS>ATOM
      1  N9        -1.3910   27.3260   15.3840 N.2   500  ADE500     -0.1914
      2  C8        -0.3140   26.9170   16.1810 C.3   500  ADE500      0.2618
      3  N7        -0.3760   25.6860   16.6380 N.2   500  ADE500     -0.2267
      4  C5        -1.6020   25.2530   16.0960 C.2   500  ADE500      0.2303
      5  C6        -2.3030   24.0480   16.1660 C.2   500  ADE500      0.4393
      6  N6        -1.7530   23.0480   16.8740 N.pl3 500  ADE500      0.2185
      7  N1        -3.5440   23.9220   15.5010 N.2   500  ADE500     -0.0265
      8  C2        -4.0600   24.9800   14.7800 C.3   500  ADE500      0.4008
      9  N3        -3.4500   26.1640   14.6600 N.2   500  ADE500     -0.1640
     10  C4        -2.2280   26.2560   15.3310 C.1   500  ADE500      0.0579
@<TRIPOS>BOND
     1     9     8    1
     2     9    10    2
     3     8     7    1
     4    10     1    2
     5    10     4    1
     6     1     2    1
     7     7     5    2
     8     4     5    1
     9     4     3    2
    10     5     6    1
    11     2     3    1
