@<TRIPOS>MOLECULE
3a7j_ADP_A_1.pdb
 27 29 0 0 0
SMALL
GASTEIGER

@<TRIPOS>ATOM
      1  PB         4.4400   21.3990   21.7170 P.3   500  ADP500      0.5373
      2  O1B        5.5440   22.3680   21.9220 O.3   500  ADP500     -0.1143
      3  O2B        4.6470   20.0320   21.4050 O.2   500  ADP500     -0.2221
      4  O3B        3.3890   21.5410   23.0660 O.3   500  ADP500     -0.1143
      5  PA         3.4570   22.2730   18.7760 P.3   500  ADP500      0.2231
      6  O1A        3.8660   23.6970   18.5420 O.3   500  ADP500     -0.4370
      7  O2A        4.1780   21.2810   17.9320 O.2   500  ADP500     -0.5169
      8  O3A        3.4220   21.9930   20.4630 O.3   500  ADP500     -0.2261
      9  O5'        1.9030   21.9150   18.5050 O.3   500  ADP500     -0.3111
     10  C5'        1.2470   20.5810   18.6170 C.3   500  ADP500      0.1813
     11  C4'       -0.0210   20.7300   17.7840 C.3   500  ADP500      0.1821
     12  O4'       -0.8310   21.7920   18.0780 O.3   500  ADP500     -0.3135
     13  C3'        0.2670   20.9060   16.2610 C.3   500  ADP500      0.2184
     14  O3'        1.0070   19.8160   15.7650 O.3   500  ADP500     -0.2174
     15  C2'       -1.1550   21.1260   15.8780 C.3   500  ADP500      0.2570
     16  O2'       -1.8880   19.9460   15.7730 O.3   500  ADP500     -0.2130
     17  C1'       -1.6610   22.1710   16.9880 C.3   500  ADP500      0.3186
     18  N9        -1.1740   23.5470   16.6970 N.pl3 500  ADP500     -0.1439
     19  C8        -0.0690   24.2380   17.2040 C.3   500  ADP500      0.3377
     20  N7         0.0990   25.4040   16.7590 N.2   500  ADP500     -0.2095
     21  C5        -0.9700   25.5690   15.9150 C.2   500  ADP500      0.2526
     22  C6        -1.4040   26.6490   15.1070 C.2   500  ADP500      0.4393
     23  N6        -0.7390   27.8210   15.0380 N.pl3 500  ADP500      0.2180
     24  N1        -2.5470   26.4690   14.3910 N.2   500  ADP500      0.0021
     25  C2        -3.2490   25.3070   14.4210 C.3   500  ADP500      0.5254
     26  N3        -2.9280   24.2170   15.1210 N.2   500  ADP500     -0.0055
     27  C4        -1.7640   24.4230   15.8560 C.2   500  ADP500      0.3518
@<TRIPOS>BOND
     1    24    25    1
     2    24    22    2
     3    25    26    1
     4    23    22    1
     5    22    21    1
     6    26    27    2
     7    14    13    1
     8    16    15    1
     9    27    21    1
    10    27    18    1
    11    15    13    1
    12    15    17    1
    13    21    20    2
    14    13    11    1
    15    18    17    1
    16    18    19    1
    17    20    19    1
    18    17    12    1
    19    11    12    1
    20    11    10    1
    21     7     5    2
    22     9    10    1
    23     9     5    1
    24     6     5    1
    25     5     8    1
    26     8     1    1
    27     3     1    2
    28     1     2    1
    29     1     4    1
