@<TRIPOS>MOLECULE
3a7k_RET_A_1.pdb
 20 20 0 0 0
SMALL
GASTEIGER

@<TRIPOS>ATOM
      1  C1        40.7970   -5.6590   22.0910 C.3   292  RET292      0.0183
      2  C2        41.2340   -6.7230   21.0120 C.3   292  RET292      0.0044
      3  C3        41.6000   -6.2310   19.6940 C.3   292  RET292      0.0047
      4  C4        42.5570   -5.0510   19.7130 C.3   292  RET292      0.0217
      5  C5        42.2690   -3.9720   20.7620 C.2   292  RET292     -0.0479
      6  C6        41.4500   -4.1970   21.8920 C.2   292  RET292     -0.0307
      7  C7        41.2550   -3.0200   22.8670 C.2   292  RET292     -0.0052
      8  C8        40.4760   -2.9740   23.9760 C.2   292  RET292     -0.0046
      9  C9        40.3910   -1.9430   24.9960 C.2   292  RET292     -0.0219
     10  C10       39.4400   -2.1730   25.9570 C.2   292  RET292     -0.0043
     11  C11       39.1830   -1.3630   27.1240 C.2   292  RET292     -0.0007
     12  C12       38.1980   -1.7030   27.9520 C.2   292  RET292     -0.0046
     13  C13       37.8050   -0.9980   29.1840 C.2   292  RET292     -0.0261
     14  C14       36.6850   -1.4930   29.7820 C.2   292  RET292     -0.0300
     15  C15       35.9080   -0.9620   30.8980 C.3   292  RET292      0.0304
     16  C16       39.2620   -5.6310   21.9400 C.3   292  RET292      0.0043
     17  C17       41.1820   -6.3390   23.4220 C.3   292  RET292      0.0043
     18  C18       42.9670   -2.6460   20.4250 C.3   292  RET292      0.0260
     19  C19       41.3040   -0.7230   25.0000 C.3   292  RET292      0.0310
     20  C20       38.5590    0.2390   29.6640 C.3   292  RET292      0.0307
@<TRIPOS>BOND
     1     3     4    1
     2     3     2    1
     3     4     5    1
     4    18     5    1
     5     5     6    2
     6     2     1    1
     7     6     1    1
     8     6     7    1
     9    16     1    1
    10     1    17    1
    11     7     8    2
    12     8     9    1
    13     9    19    1
    14     9    10    2
    15    10    11    1
    16    11    12    2
    17    12    13    1
    18    13    20    1
    19    13    14    2
    20    14    15    1
