@<TRIPOS>MOLECULE
3a7n_FLC_A_1.pdb
 13 12 0 0 0
SMALL
GASTEIGER

@<TRIPOS>ATOM
      1  CAC       -3.1680   -9.6560    8.1340 C.2   228  FLC228      0.3680
      2  CA        -2.6170   -8.2410    8.0130 C.3   228  FLC228      0.1560
      3  CB        -2.1060   -7.8090    6.6280 C.3   228  FLC228      0.2402
      4  CBC       -3.2710   -7.2860    5.7960 C.2   228  FLC228      0.3927
      5  CG        -1.3120   -8.9270    5.9430 C.3   228  FLC228      0.1560
      6  CGC       -1.0940   -8.7730    4.4550 C.2   228  FLC228      0.3680
      7  OA1       -3.7760   -9.9580    9.1800 O.co2 228  FLC228     -0.2455
      8  OA2       -3.0120  -10.4930    7.2190 O.co2 228  FLC228     -0.2455
      9  OB1       -3.4160   -6.0400    5.7110 O.co2 228  FLC228     -0.2429
     10  OB2       -4.0600   -8.0820    5.2270 O.co2 228  FLC228     -0.2429
     11  OG1       -0.6940   -7.6860    3.9790 O.co2 228  FLC228     -0.2455
     12  OG2       -1.3290   -9.7720    3.7470 O.co2 228  FLC228     -0.2455
     13  OHB       -1.1820   -6.7340    6.8550 O.3   228  FLC228     -0.2129
@<TRIPOS>BOND
     1    12     6   ar
     2    11     6   ar
     3     6     5    1
     4    10     4   ar
     5     9     4   ar
     6     4     3    1
     7     5     3    1
     8     3    13    1
     9     3     2    1
    10     8     1   ar
    11     2     1    1
    12     1     7   ar
