@<TRIPOS>MOLECULE
3a7r_LAQ_A_1.pdb
 34 37 0 0 0
SMALL
GASTEIGER

@<TRIPOS>ATOM
      1  O2P      -17.2870  -40.2820    1.4650 O.2   401  LAQ401     -0.5082
      2  P        -17.8620  -39.1250    2.2000 P.3   401  LAQ401      0.2722
      3  O1P      -19.1630  -38.5940    1.7710 O.3   401  LAQ401     -0.4273
      4  O3P      -17.9120  -39.6380    3.7460 O.3   401  LAQ401     -0.4101
      5  C10      -18.4190  -38.8080    4.7000 C.2   401  LAQ401      0.3210
      6  C11      -18.6310  -39.5200    6.0490 C.3   401  LAQ401      0.1098
      7  C12      -19.1830  -38.6270    7.1710 C.3   401  LAQ401      0.0117
      8  C13      -19.1220  -39.4100    8.5100 C.3   401  LAQ401      0.0015
      9  C14      -19.5620  -38.5370    9.6950 C.3   401  LAQ401      0.0117
     10  C15      -19.3380  -39.2500   11.0530 C.3   401  LAQ401      0.0588
     11  S15      -17.5860  -39.7400   11.3580 S.3   401  LAQ401     -0.0830
     12  S17      -18.0310  -40.1610   13.3490 S.3   401  LAQ401     -0.0821
     13  C17      -19.4050  -38.9560   13.5710 C.3   401  LAQ401      0.0696
     14  C16      -19.5850  -38.2360   12.2010 C.3   401  LAQ401      0.0242
     15  O10      -18.5360  -37.5900    4.5770 O.2   401  LAQ401     -0.2498
     16  O5'      -16.7810  -37.9410    2.2210 O.3   401  LAQ401     -0.3024
     17  C5'      -15.3520  -38.1760    2.3570 C.3   401  LAQ401      0.1823
     18  C4'      -14.6100  -36.9070    1.9960 C.3   401  LAQ401      0.1822
     19  C3'      -13.1050  -37.0180    2.1770 C.3   401  LAQ401      0.2184
     20  O3'      -12.5240  -37.7090    1.0590 O.3   401  LAQ401     -0.2174
     21  C2'      -12.7370  -35.5340    2.2070 C.3   401  LAQ401      0.2570
     22  O2'      -12.8980  -34.9690    0.9000 O.3   401  LAQ401     -0.2130
     23  C1'      -13.8730  -34.9630    3.0750 C.3   401  LAQ401      0.3186
     24  O4'      -14.9830  -35.8530    2.9170 O.3   401  LAQ401     -0.3135
     25  N9       -13.5760  -34.9560    4.5140 N.pl3 401  LAQ401     -0.1439
     26  C8       -12.6030  -35.6450    5.1590 C.3   401  LAQ401      0.3377
     27  N7       -12.6860  -35.3860    6.4730 N.2   401  LAQ401     -0.2095
     28  C5       -13.7450  -34.5760    6.6610 C.2   401  LAQ401      0.2526
     29  C6       -14.3960  -34.0940    7.7860 C.2   401  LAQ401      0.4393
     30  N6       -13.8950  -34.3090    9.0180 N.pl3 401  LAQ401      0.2180
     31  N1       -15.4710  -33.3020    7.6150 N.2   401  LAQ401      0.0021
     32  C2       -15.9900  -33.0710    6.4070 C.3   401  LAQ401      0.5254
     33  N3       -15.4210  -33.5580    5.3130 N.2   401  LAQ401     -0.0055
     34  C4       -14.2900  -34.2860    5.4140 C.2   401  LAQ401      0.3518
@<TRIPOS>BOND
     1    22    21    1
     2    20    19    1
     3     1     2    2
     4     3     2    1
     5    18    19    1
     6    18    17    1
     7    18    24    1
     8    19    21    1
     9     2    16    1
    10     2     4    1
    11    21    23    1
    12    16    17    1
    13    24    23    1
    14    23    25    1
    15     4     5    1
    16    25    26    1
    17    25    34    1
    18    15     5    2
    19     5     6    1
    20    26    27    1
    21    33    34    2
    22    33    32    1
    23    34    28    1
    24     6     7    1
    25    32    31    1
    26    27    28    2
    27    28    29    1
    28     7     8    1
    29    31    29    2
    30    29    30    1
    31     8     9    1
    32     9    10    1
    33    10    11    1
    34    10    14    1
    35    11    12    1
    36    14    13    1
    37    12    13    1
