@<TRIPOS>MOLECULE
3a7t_4FZ_A_1.pdb
 11 11 0 0 0
SMALL
GASTEIGER

@<TRIPOS>ATOM
      1  O         -1.3720  -17.6590   13.3110 O.2     4  4FZ4       -0.2831
      2  C1        -2.1170  -13.6090   18.3080 C.2     4  4FZ4        0.4766
      3  N1        -1.7070  -12.3270   18.3890 N.pl3   4  4FZ4        0.2047
      4  C2        -1.7610  -14.4440   17.1130 C.ar    4  4FZ4        0.0975
      5  N2        -2.8080  -14.1200   19.2270 N.pl3   4  4FZ4        0.2047
      6  C3        -1.1480  -13.8340   16.0250 C.ar    4  4FZ4        0.0081
      7  C4        -0.8010  -14.5750   14.8990 C.ar    4  4FZ4        0.0035
      8  C5        -1.0810  -15.9360   14.8560 C.ar    4  4FZ4        0.0422
      9  C6        -0.7040  -16.6950   13.6470 C.2     4  4FZ4        0.2342
     10  C7        -1.6930  -16.5610   15.9410 C.ar    4  4FZ4        0.0035
     11  C8        -2.0320  -15.8180   17.0790 C.ar    4  4FZ4        0.0081
@<TRIPOS>BOND
     1     1     9    2
     2     9     8    1
     3     8     7   ar
     4     8    10   ar
     5     7     6   ar
     6    10    11   ar
     7     6     4   ar
     8    11     4   ar
     9     4     2    1
    10     2     3    2
    11     2     5    1
