@<TRIPOS>MOLECULE
3a7v_3FZ_A_1.pdb
 11 11 0 0 0
SMALL
GASTEIGER

@<TRIPOS>ATOM
      1  O         -1.6930  -18.9070   16.1480 O.2     4  3FZ4       -0.2831
      2  C1        -2.0600  -13.6080   18.3420 C.2     4  3FZ4        0.4766
      3  N1        -1.6530  -12.3320   18.4030 N.pl3   4  3FZ4        0.2047
      4  C2        -1.7690  -14.4340   17.1270 C.ar    4  3FZ4        0.0976
      5  N2        -2.6840  -14.1430   19.3030 N.pl3   4  3FZ4        0.2047
      6  C3        -1.0800  -13.9200   16.0280 C.ar    4  3FZ4        0.0080
      7  C4        -0.8330  -14.7290   14.9120 C.ar    4  3FZ4        0.0004
      8  C5        -1.2780  -16.0570   14.9200 C.ar    4  3FZ4        0.0033
      9  C6        -1.9560  -16.5560   16.0350 C.ar    4  3FZ4        0.0425
     10  C7        -2.4550  -17.9510   16.1270 C.2     4  3FZ4        0.2342
     11  C8        -2.1980  -15.7520   17.1300 C.ar    4  3FZ4        0.0113
@<TRIPOS>BOND
     1     7     8   ar
     2     7     6   ar
     3     8     9   ar
     4     6     4   ar
     5     9    10    1
     6     9    11   ar
     7    10     1    2
     8     4    11   ar
     9     4     2    1
    10     2     3    2
    11     2     5    1
