@<TRIPOS>MOLECULE
3a7w_O04_A_1.pdb
 18 19 0 0 0
SMALL
GASTEIGER

@<TRIPOS>ATOM
      1  C1        -2.1710  -13.6100   18.3720 C.2     3  O043        0.4766
      2  N1        -1.7920  -12.3260   18.4460 N.pl3   3  O043        0.2047
      3  O1        -0.4170  -18.4350   12.4020 O.2     3  O043       -0.3502
      4  C2        -1.8330  -14.4120   17.1490 C.ar    3  O043        0.0975
      5  N2        -0.7530  -17.7930   13.5530 N.2     3  O043       -0.0786
      6  O2         0.1640  -20.6960   11.9600 O.3     3  O043       -0.3190
      7  C3        -2.1030  -15.7850   17.0690 C.ar    3  O043        0.0080
      8  N3        -2.8070  -14.1340   19.3290 N.pl3   3  O043        0.2047
      9  C4        -1.7740  -16.4860   15.9020 C.ar    3  O043        0.0019
     10  C5        -1.1710  -15.8260   14.8300 C.ar    3  O043        0.0224
     11  C6        -0.8070  -16.5390   13.5860 C.2     3  O043        0.1401
     12  C7        -0.9110  -19.7730   12.2300 C.3     3  O043        0.3153
     13  C8         0.9950  -20.3490   10.8400 C.3     3  O043        0.1460
     14  C9         0.1760  -19.7890    9.6720 C.3     3  O043        0.0324
     15  C10       -1.3060  -20.1620    9.7620 C.3     3  O043        0.0091
     16  C11       -1.9430  -19.7830   11.1020 C.3     3  O043        0.0789
     17  C12       -0.8960  -14.4670   14.9190 C.ar    3  O043        0.0019
     18  C13       -1.2240  -13.7680   16.0760 C.ar    3  O043        0.0080
@<TRIPOS>BOND
     1    14    15    1
     2    14    13    1
     3    15    16    1
     4    13     6    1
     5    16    12    1
     6     6    12    1
     7    12     3    1
     8     3     5    1
     9     5    11    2
    10    11    10    1
    11    10    17   ar
    12    10     9   ar
    13    17    18   ar
    14     9     7   ar
    15    18     4   ar
    16     7     4   ar
    17     4     1    1
    18     1     2    2
    19     1     8    1
