@<TRIPOS>MOLECULE
3a7x_O09_A_1.pdb
 16 16 0 0 0
SMALL
GASTEIGER

@<TRIPOS>ATOM
      1  C1        -2.2470  -11.8620   18.3290 C.2     5  O095        0.4766
      2  N1        -1.9490  -10.5610   18.2650 N.pl3   5  O095        0.2047
      3  O1        -0.5310  -16.6460   12.2260 O.2     5  O095       -0.3648
      4  C2        -1.8630  -12.7370   17.1690 C.ar    5  O095        0.0975
      5  N2        -1.1110  -16.1040   13.3440 N.2     5  O095       -0.0807
      6  O2        -2.0960  -15.2420   10.5540 O.co2   5  O095       -0.2414
      7  C3        -0.9960  -12.2250   16.2120 C.ar    5  O095        0.0080
      8  N3        -2.8540  -12.3400   19.3440 N.pl3   5  O095        0.2047
      9  O3        -2.9300  -17.0750    9.6650 O.co2   5  O095       -0.2414
     10  C4        -0.6050  -12.9900   15.1200 C.ar    5  O095        0.0019
     11  C5        -1.0910  -14.2780   14.9650 C.ar    5  O095        0.0224
     12  C6        -0.6170  -15.0270   13.7770 C.2     5  O095        0.1400
     13  C7        -1.3210  -17.4500   11.3570 C.3     5  O095        0.3510
     14  C8        -2.1640  -16.5690   10.4700 C.2     5  O095        0.4114
     15  C9        -1.9530  -14.8100   15.9190 C.ar    5  O095        0.0019
     16  C10       -2.3510  -14.0350   17.0250 C.ar    5  O095        0.0080
@<TRIPOS>BOND
     1     9    14   ar
     2    14     6   ar
     3    14    13    1
     4    13     3    1
     5     3     5    1
     6     5    12    2
     7    12    11    1
     8    11    10   ar
     9    11    15   ar
    10    10     7   ar
    11    15    16   ar
    12     7     4   ar
    13    16     4   ar
    14     4     1    1
    15     2     1    2
    16     1     8    1
