@<TRIPOS>MOLECULE
3a7y_O13_A_1.pdb
 19 20 0 0 0
SMALL
GASTEIGER

@<TRIPOS>ATOM
      1  O         -0.4740  -18.2060   12.2020 O.2     3  O133       -0.3797
      2  C1        -2.1820  -13.5990   18.3240 C.2     3  O133        0.4766
      3  N1        -1.7820  -12.3250   18.4360 N.pl3   3  O133        0.2047
      4  C2        -1.8050  -14.3790   17.0970 C.ar    3  O133        0.0975
      5  N2        -0.9040  -17.6680   13.3710 N.2     3  O133       -0.0815
      6  C3        -2.1390  -15.7270   16.9690 C.ar    3  O133        0.0080
      7  N3        -2.2420  -19.8170   10.2970 N.3     3  O133       -0.2684
      8  C4        -1.7780  -16.4100   15.8090 C.ar    3  O133        0.0019
      9  N4        -2.8650  -14.1430   19.2360 N.pl3   3  O133        0.2047
     10  C5        -1.0800  -15.7560   14.7940 C.ar    3  O133        0.0224
     11  C6        -0.6710  -16.4510   13.5610 C.2     3  O133        0.1400
     12  C7        -0.5210  -19.6200   12.0490 C.3     3  O133        0.2122
     13  C8         0.4950  -20.0590   10.9870 C.3     3  O133        0.0493
     14  C9         0.0810  -19.5270    9.6230 C.3     3  O133        0.0212
     15  C10       -1.2690  -20.1210    9.2380 C.3     3  O133        0.0724
     16  C11       -3.5510  -19.3080    9.9010 C.3     3  O133        0.0897
     17  C12       -1.9540  -20.0620   11.7170 C.3     3  O133        0.1190
     18  C13       -0.7330  -14.4200   14.9250 C.ar    3  O133        0.0019
     19  C14       -1.1050  -13.7340   16.0790 C.ar    3  O133        0.0080
@<TRIPOS>BOND
     1    15    14    1
     2    15     7    1
     3    14    13    1
     4    16     7    1
     5     7    17    1
     6    13    12    1
     7    17    12    1
     8    12     1    1
     9     1     5    1
    10     5    11    2
    11    11    10    1
    12    10    18   ar
    13    10     8   ar
    14    18    19   ar
    15     8     6   ar
    16    19     4   ar
    17     6     4   ar
    18     4     2    1
    19     2     3    2
    20     2     9    1
