@<TRIPOS>MOLECULE
3a7z_O14_A_1.pdb
 19 20 0 0 0
SMALL
GASTEIGER

@<TRIPOS>ATOM
      1  O         -0.6550  -18.4290   12.2510 O.2     2  O142       -0.3811
      2  C1        -2.1570  -13.6010   18.3080 C.2     2  O142        0.4766
      3  N1        -2.8380  -14.1580   19.3060 N.pl3   2  O142        0.2047
      4  C2        -1.8070  -14.3980   17.0850 C.ar    2  O142        0.0975
      5  N2        -1.0130  -17.7710   13.3920 N.2     2  O142       -0.0815
      6  C3        -1.1010  -13.7780   16.0510 C.ar    2  O142        0.0080
      7  N3         0.7280  -20.5600   10.1010 N.3     2  O142       -0.2713
      8  C4        -0.7610  -14.4800   14.8970 C.ar    2  O142        0.0019
      9  N4        -1.8010  -12.3840   18.3860 N.pl3   2  O142        0.2047
     10  C5        -1.1210  -15.8200   14.7720 C.ar    2  O142        0.0224
     11  C6        -0.7440  -16.5470   13.5350 C.2     2  O142        0.1400
     12  C7        -1.2920  -19.6690   11.9010 C.3     2  O142        0.1991
     13  C8        -0.4100  -20.8670   12.2550 C.3     2  O142        0.0637
     14  C9         0.9340  -20.8570   11.5230 C.3     2  O142        0.0759
     15  C10        1.5590  -21.2540    9.1220 C.3     2  O142        0.0896
     16  C11       -0.2400  -19.5710    9.6120 C.3     2  O142        0.0759
     17  C12       -1.5430  -19.7210   10.3970 C.3     2  O142        0.0637
     18  C13       -1.8230  -16.4480   15.8040 C.ar    2  O142        0.0019
     19  C14       -2.1670  -15.7450   16.9670 C.ar    2  O142        0.0080
@<TRIPOS>BOND
     1    15     7    1
     2    16     7    1
     3    16    17    1
     4     7    14    1
     5    17    12    1
     6    14    13    1
     7    12     1    1
     8    12    13    1
     9     1     5    1
    10     5    11    2
    11    11    10    1
    12    10     8   ar
    13    10    18   ar
    14     8     6   ar
    15    18    19   ar
    16     6     4   ar
    17    19     4   ar
    18     4     2    1
    19     2     9    2
    20     2     3    1
