@<TRIPOS>MOLECULE
3a80_O15_A_1.pdb
 18 18 0 0 0
SMALL
GASTEIGER

@<TRIPOS>ATOM
      1  C1        -2.1760  -11.9270   18.3430 C.2     2  O152        0.4766
      2  N1        -2.8710  -12.3910   19.3880 N.pl3   2  O152        0.2047
      3  O1         0.8690  -17.0790   13.4110 O.2     2  O152       -0.3737
      4  C2        -1.7400  -12.8350   17.2320 C.ar    2  O152        0.0975
      5  N2         0.3590  -16.2420   14.3580 N.2     2  O152       -0.0811
      6  O2        -1.1280  -18.9600   13.3500 O.co2   2  O152       -0.2417
      7  C3        -1.6120  -14.2110   17.4490 C.ar    2  O152        0.0080
      8  N3        -1.8640  -10.7060   18.2590 N.pl3   2  O152        0.2047
      9  O3        -0.1310  -19.8790   15.0620 O.co2   2  O152       -0.2417
     10  C4        -1.1900  -15.0350   16.3910 C.ar    2  O152        0.0019
     11  C5        -0.9070  -14.4610   15.1460 C.ar    2  O152        0.0224
     12  C6        -0.4320  -15.3080   14.0410 C.2     2  O152        0.1400
     13  C7         1.2380  -18.4050   13.7950 C.3     2  O152        0.2530
     14  C8        -0.0460  -19.1410   14.1030 C.2     2  O152        0.4027
     15  C9         2.1220  -18.3540   15.0420 C.3     2  O152        0.0583
     16  C10        1.9750  -19.0740   12.6410 C.3     2  O152        0.0583
     17  C11       -1.0130  -13.0930   14.9420 C.ar    2  O152        0.0019
     18  C12       -1.4350  -12.2760   15.9870 C.ar    2  O152        0.0080
@<TRIPOS>BOND
     1    16    13    1
     2     6    14   ar
     3     3    13    1
     4     3     5    1
     5    13    14    1
     6    13    15    1
     7    12     5    2
     8    12    11    1
     9    14     9   ar
    10    17    11   ar
    11    17    18   ar
    12    11    10   ar
    13    18     4   ar
    14    10     7   ar
    15     4     7   ar
    16     4     1    1
    17     8     1    2
    18     1     2    1
