@<TRIPOS>MOLECULE
3a81_H06_A_1.pdb
 20 21 0 0 0
SMALL
GASTEIGER

@<TRIPOS>ATOM
      1  O         -3.4040  -20.4050   13.6050 O.2     5  H065       -0.2664
      2  C1        -2.0780  -13.5570   18.4150 C.2     5  H065        0.4766
      3  N1        -1.6920  -12.3440   18.4180 N.pl3   5  H065        0.2047
      4  C2        -1.8360  -14.4410   17.2300 C.ar    5  H065        0.0975
      5  N2        -2.7320  -14.0580   19.4660 N.pl3   5  H065        0.2047
      6  C3        -2.0420  -15.8130   17.3580 C.ar    5  H065        0.0080
      7  N3        -2.0540  -18.0460   13.7320 N.2     5  H065       -0.1543
      8  C4        -1.8350  -16.6560   16.2660 C.ar    5  H065        0.0019
      9  N4        -1.9460  -18.9230   12.7290 N.am    5  H065       -0.0753
     10  C5        -1.4240  -16.1440   15.0380 C.ar    5  H065        0.0208
     11  N5        -2.5270  -23.1880   10.5870 N.ar    5  H065       -0.2422
     12  C6        -1.2210  -17.0790   13.8960 C.2     5  H065        0.1197
     13  C7        -2.6360  -20.0780   12.7060 C.2     5  H065        0.2875
     14  C8        -2.4620  -21.0030   11.5280 C.ar    5  H065        0.0759
     15  C9        -2.6880  -22.3770   11.6520 C.ar    5  H065        0.1035
     16  C10       -2.1470  -22.7300    9.3870 C.ar    5  H065        0.0989
     17  C11       -1.9120  -21.3660    9.2010 C.ar    5  H065        0.0208
     18  C12       -2.0720  -20.4970   10.2860 C.ar    5  H065        0.0078
     19  C13       -1.2130  -14.7660   14.9080 C.ar    5  H065        0.0019
     20  C14       -1.4180  -13.9160   16.0030 C.ar    5  H065        0.0080
@<TRIPOS>BOND
     1    17    16   ar
     2    17    18   ar
     3    16    11   ar
     4    18    14   ar
     5    11    15   ar
     6    14    15   ar
     7    14    13    1
     8    13     9   am
     9    13     1    2
    10     9     7    1
    11     7    12    2
    12    12    10    1
    13    19    10   ar
    14    19    20   ar
    15    10     8   ar
    16    20     4   ar
    17     8     6   ar
    18     4     6   ar
    19     4     2    1
    20     2     3    2
    21     2     5    1
