@<TRIPOS>MOLECULE
3a82_O09_A_1.pdb
 16 16 0 0 0
SMALL
GASTEIGER

@<TRIPOS>ATOM
      1  C1        -2.1400  -13.4440   18.3750 C.2     5  O095        0.4766
      2  N1        -1.7660  -12.1580   18.4490 N.pl3   5  O095        0.2047
      3  O1        -0.6050  -18.0630   12.1200 O.2     5  O095       -0.3648
      4  C2        -1.7750  -14.2610   17.1680 C.ar    5  O095        0.0975
      5  N2        -1.0200  -17.5440   13.3100 N.2     5  O095       -0.0807
      6  O2        -1.7330  -17.9180    8.7660 O.co2   5  O095       -0.2414
      7  C3        -1.2760  -13.6050   16.0490 C.ar    5  O095        0.0080
      8  N3        -2.7970  -13.9640   19.3200 N.pl3   5  O095        0.2047
      9  O3        -2.0520  -16.3400   10.2470 O.co2   5  O095       -0.2414
     10  C4        -0.9290  -14.3130   14.9060 C.ar    5  O095        0.0019
     11  C5        -1.0820  -15.6900   14.8600 C.ar    5  O095        0.0224
     12  C6        -0.6840  -16.3700   13.6060 C.2     5  O095        0.1400
     13  C7        -1.5790  -18.5120   11.1680 C.3     5  O095        0.3510
     14  C8        -1.8030  -17.5160   10.0360 C.2     5  O095        0.4114
     15  C9        -1.5840  -16.3630   15.9750 C.ar    5  O095        0.0019
     16  C10       -1.9300  -15.6490   17.1360 C.ar    5  O095        0.0080
@<TRIPOS>BOND
     1     6    14   ar
     2    14     9   ar
     3    14    13    1
     4    13     3    1
     5     3     5    1
     6     5    12    2
     7    12    11    1
     8    11    10   ar
     9    11    15   ar
    10    10     7   ar
    11    15    16   ar
    12     7     4   ar
    13    16     4   ar
    14     4     1    1
    15     1     2    2
    16     1     8    1
