@<TRIPOS>MOLECULE
3a83_H06_A_1.pdb
 20 21 0 0 0
SMALL
GASTEIGER

@<TRIPOS>ATOM
      1  O         -3.1810  -20.2650   13.6850 O.2     3  H063       -0.2664
      2  C1        -2.1060  -13.6440   18.4410 C.2     3  H063        0.4766
      3  N1        -2.7310  -14.0940   19.5330 N.pl3   3  H063        0.2047
      4  C2        -1.8500  -14.5340   17.2510 C.ar    3  H063        0.0975
      5  N2        -1.7150  -12.4480   18.4240 N.pl3   3  H063        0.2047
      6  C3        -1.2550  -14.0120   16.0950 C.ar    3  H063        0.0080
      7  N3        -2.0200  -17.9120   13.5740 N.2     3  H063       -0.1543
      8  C4        -1.0110  -14.8290   14.9860 C.ar    3  H063        0.0019
      9  N4        -1.9330  -18.7810   12.5710 N.am    3  H063       -0.0753
     10  C5        -1.3590  -16.1830   15.0380 C.ar    3  H063        0.0208
     11  N5        -2.6360  -23.2390   10.7860 N.ar    3  H063       -0.2422
     12  C6        -1.1130  -17.0800   13.8790 C.2     3  H063        0.1197
     13  C7        -2.5250  -19.9790   12.6870 C.2     3  H063        0.2875
     14  C8        -2.3930  -20.9960   11.5760 C.ar    3  H063        0.0759
     15  C9        -2.7500  -22.3350   11.7810 C.ar    3  H063        0.1035
     16  C10       -2.1740  -22.8950    9.5750 C.ar    3  H063        0.0989
     17  C11       -1.8030  -21.5760    9.3080 C.ar    3  H063        0.0208
     18  C12       -1.9140  -20.6190   10.3190 C.ar    3  H063        0.0078
     19  C13       -1.9450  -16.7050   16.1960 C.ar    3  H063        0.0019
     20  C14       -2.1900  -15.8880   17.3010 C.ar    3  H063        0.0080
@<TRIPOS>BOND
     1    17    16   ar
     2    17    18   ar
     3    16    11   ar
     4    18    14   ar
     5    11    15   ar
     6    14    15   ar
     7    14    13    1
     8     9    13   am
     9     9     7    1
    10    13     1    2
    11     7    12    2
    12    12    10    1
    13     8    10   ar
    14     8     6   ar
    15    10    19   ar
    16     6     4   ar
    17    19    20   ar
    18     4    20   ar
    19     4     2    1
    20     5     2    2
    21     2     3    1
