@<TRIPOS>MOLECULE
3a84_O09_A_1.pdb
 16 16 0 0 0
SMALL
GASTEIGER

@<TRIPOS>ATOM
      1  C1        -2.1320  -13.4790   18.3240 C.2     3  O093        0.4766
      2  N1        -1.7830  -12.1910   18.3530 N.pl3   3  O093        0.2047
      3  O1        -0.6350  -18.1060   12.1320 O.2     3  O093       -0.3648
      4  C2        -1.7360  -14.3130   17.1430 C.ar    3  O093        0.0975
      5  N2        -1.1330  -17.5160   13.2590 N.2     3  O093       -0.0807
      6  O2        -1.9170  -16.4860   10.2720 O.co2   3  O093       -0.2414
      7  C3        -1.1630  -13.6800   16.0460 C.ar    3  O093        0.0080
      8  N3        -2.7750  -13.9890   19.2810 N.pl3   3  O093        0.2047
      9  O3        -2.4450  -18.2740    9.1090 O.co2   3  O093       -0.2414
     10  C4        -0.7780  -14.4070   14.9280 C.ar    3  O093        0.0019
     11  C5        -0.9630  -15.7830   14.9050 C.ar    3  O093        0.0224
     12  C6        -0.5240  -16.5150   13.7000 C.2     3  O093        0.1400
     13  C7        -1.5270  -18.7550   11.2270 C.3     3  O093        0.3510
     14  C8        -1.9860  -17.8080   10.1410 C.2     3  O093        0.4114
     15  C9        -1.5330  -16.4320   16.0020 C.ar    3  O093        0.0019
     16  C10       -1.9210  -15.6960   17.1320 C.ar    3  O093        0.0080
@<TRIPOS>BOND
     1     9    14   ar
     2    14     6   ar
     3    14    13    1
     4    13     3    1
     5     3     5    1
     6     5    12    2
     7    12    11    1
     8    11    10   ar
     9    11    15   ar
    10    10     7   ar
    11    15    16   ar
    12     7     4   ar
    13    16     4   ar
    14     4     1    1
    15     1     2    2
    16     1     8    1
