@<TRIPOS>MOLECULE
3a85_O09_A_1.pdb
 16 16 0 0 0
SMALL
GASTEIGER

@<TRIPOS>ATOM
      1  C1        -2.2020  -12.0590   18.3230 C.2     4  O094        0.4766
      2  N1        -1.8470  -10.7780   18.2640 N.pl3   4  O094        0.2047
      3  O1        -0.6860  -16.9590   12.3140 O.2     4  O094       -0.3648
      4  C2        -1.8040  -12.9620   17.1950 C.ar    4  O094        0.0975
      5  N2        -1.2080  -16.3360   13.4150 N.2     4  O094       -0.0807
      6  O2        -2.1160  -15.3630   10.6080 O.co2   4  O094       -0.2414
      7  C3        -1.3530  -12.3790   16.0110 C.ar    4  O094        0.0080
      8  N3        -2.8690  -12.4870   19.3080 N.pl3   4  O094        0.2047
      9  O3        -2.6610  -17.1110    9.3990 O.co2   4  O094       -0.2414
     10  C4        -0.9610  -13.1740   14.9440 C.ar    4  O094        0.0019
     11  C5        -1.0210  -14.5550   15.0410 C.ar    4  O094        0.0224
     12  C6        -0.5770  -15.3390   13.8640 C.2     4  O094        0.1400
     13  C7        -1.5700  -17.6380   11.4270 C.3     4  O094        0.3510
     14  C8        -2.1460  -16.6770   10.4160 C.2     4  O094        0.4114
     15  C9        -1.4560  -15.1530   16.2220 C.ar    4  O094        0.0019
     16  C10       -1.8500  -14.3490   17.3060 C.ar    4  O094        0.0080
@<TRIPOS>BOND
     1     9    14   ar
     2    14     6   ar
     3    14    13    1
     4    13     3    1
     5     3     5    1
     6     5    12    2
     7    12    11    1
     8    10    11   ar
     9    10     7   ar
    10    11    15   ar
    11     7     4   ar
    12    15    16   ar
    13     4    16   ar
    14     4     1    1
    15     2     1    2
    16     1     8    1
