@<TRIPOS>MOLECULE
3a86_O09_A_1.pdb
 16 16 0 0 0
SMALL
GASTEIGER

@<TRIPOS>ATOM
      1  C1        -2.2370  -11.8810   18.2990 C.2     6  O096        0.4766
      2  N1        -1.8980  -10.5860   18.2370 N.pl3   6  O096        0.2047
      3  O1        -0.5730  -16.7470   12.3190 O.2     6  O096       -0.3648
      4  C2        -1.8490  -12.7700   17.1530 C.ar    6  O096        0.0975
      5  N2        -1.0810  -16.1800   13.4530 N.2     6  O096       -0.0807
      6  O2        -2.0230  -15.2240   10.6000 O.co2   6  O096       -0.2414
      7  C3        -1.2130  -12.1810   16.0650 C.ar    6  O096        0.0080
      8  N3        -2.8820  -12.3370   19.2910 N.pl3   6  O096        0.2047
      9  O3        -2.6920  -17.0250    9.5150 O.co2   6  O096       -0.2414
     10  C4        -0.8230  -12.9510   14.9790 C.ar    6  O096        0.0019
     11  C5        -1.0750  -14.3110   14.9720 C.ar    6  O096        0.0224
     12  C6        -0.6230  -15.0550   13.7810 C.2     6  O096        0.1400
     13  C7        -1.4700  -17.4700   11.4830 C.3     6  O096        0.3510
     14  C8        -2.0970  -16.5480   10.4710 C.2     6  O096        0.4114
     15  C9        -1.7010  -14.9260   16.0580 C.ar    6  O096        0.0019
     16  C10       -2.0960  -14.1430   17.1570 C.ar    6  O096        0.0080
@<TRIPOS>BOND
     1     9    14   ar
     2    14     6   ar
     3    14    13    1
     4    13     3    1
     5     3     5    1
     6     5    12    2
     7    12    11    1
     8    11    10   ar
     9    11    15   ar
    10    10     7   ar
    11    15    16   ar
    12     7     4   ar
    13     4    16   ar
    14     4     1    1
    15     2     1    2
    16     1     8    1
