@<TRIPOS>MOLECULE
3a87_H06_A_1.pdb
 20 21 0 0 0
SMALL
GASTEIGER

@<TRIPOS>ATOM
      1  O         -2.2840  -20.4950   13.6450 O.2     5  H065       -0.2664
      2  C1        -2.0430  -13.5470   18.2010 C.2     5  H065        0.4766
      3  N1        -1.6460  -12.3410   18.2430 N.pl3   5  H065        0.2047
      4  C2        -1.6490  -14.4610   17.0620 C.ar    5  H065        0.0975
      5  N2        -2.8240  -13.9920   19.1810 N.pl3   5  H065        0.2047
      6  C3        -1.8000  -15.8480   17.1820 C.ar    5  H065        0.0080
      7  N3        -1.2920  -18.0280   13.5560 N.2     5  H065       -0.1543
      8  C4        -1.4350  -16.6810   16.1210 C.ar    5  H065        0.0019
      9  N4        -1.0820  -18.9130   12.5830 N.am    5  H065       -0.0753
     10  C5        -0.9250  -16.1450   14.9330 C.ar    5  H065        0.0208
     11  N5        -2.4050  -22.9680   10.2700 N.ar    5  H065       -0.2422
     12  C6        -0.5420  -17.0410   13.8080 C.2     5  H065        0.1197
     13  C7        -1.6660  -20.1270   12.6460 C.2     5  H065        0.2875
     14  C8        -1.5590  -21.0750   11.4730 C.ar    5  H065        0.0759
     15  C9        -2.4870  -22.1130   11.3090 C.ar    5  H065        0.1035
     16  C10       -1.4280  -22.8520    9.3530 C.ar    5  H065        0.0989
     17  C11       -0.4690  -21.8390    9.4620 C.ar    5  H065        0.0208
     18  C12       -0.5320  -20.9410   10.5330 C.ar    5  H065        0.0078
     19  C13       -0.7750  -14.7590   14.8100 C.ar    5  H065        0.0019
     20  C14       -1.1340  -13.9280   15.8730 C.ar    5  H065        0.0080
@<TRIPOS>BOND
     1    16    17   ar
     2    16    11   ar
     3    17    18   ar
     4    11    15   ar
     5    18    14   ar
     6    15    14   ar
     7    14    13    1
     8     9    13   am
     9     9     7    1
    10    13     1    2
    11     7    12    2
    12    12    10    1
    13    19    10   ar
    14    19    20   ar
    15    10     8   ar
    16    20     4   ar
    17     8     6   ar
    18     4     6   ar
    19     4     2    1
    20     2     3    2
    21     2     5    1
