@<TRIPOS>MOLECULE
3a88_H06_A_1.pdb
 20 21 0 0 0
SMALL
GASTEIGER

@<TRIPOS>ATOM
      1  O         -3.3250  -20.2900   13.5990 O.2     6  H066       -0.2664
      2  C1        -2.1170  -13.5580   18.4040 C.2     6  H066        0.4766
      3  N1        -1.7490  -12.3420   18.4160 N.pl3   6  H066        0.2047
      4  C2        -1.8450  -14.4350   17.2150 C.ar    6  H066        0.0975
      5  N2        -2.7620  -14.0610   19.4570 N.pl3   6  H066        0.2047
      6  C3        -2.0410  -15.8130   17.3220 C.ar    6  H066        0.0080
      7  N3        -1.9830  -17.9380   13.6680 N.2     6  H066       -0.1543
      8  C4        -1.8010  -16.6380   16.2210 C.ar    6  H066        0.0019
      9  N4        -1.9030  -18.8190   12.6680 N.am    6  H066       -0.0753
     10  C5        -1.3640  -16.0940   15.0110 C.ar    6  H066        0.0208
     11  N5        -2.5880  -23.1040   10.5830 N.ar    6  H066       -0.2422
     12  C6        -1.1290  -17.0040   13.8570 C.2     6  H066        0.1197
     13  C7        -2.5940  -19.9690   12.6690 C.2     6  H066        0.2875
     14  C8        -2.4680  -20.9040   11.4930 C.ar    6  H066        0.0759
     15  C9        -2.7000  -22.2740   11.6410 C.ar    6  H066        0.1035
     16  C10       -2.2510  -22.6580    9.3630 C.ar    6  H066        0.0989
     17  C11       -2.0080  -21.2980    9.1550 C.ar    6  H066        0.0208
     18  C12       -2.1230  -20.4140   10.2330 C.ar    6  H066        0.0078
     19  C13       -1.1630  -14.7130   14.9000 C.ar    6  H066        0.0019
     20  C14       -1.4040  -13.8870   16.0050 C.ar    6  H066        0.0080
@<TRIPOS>BOND
     1    17    16   ar
     2    17    18   ar
     3    16    11   ar
     4    18    14   ar
     5    11    15   ar
     6    14    15   ar
     7    14    13    1
     8     9    13   am
     9     9     7    1
    10    13     1    2
    11     7    12    2
    12    12    10    1
    13    19    10   ar
    14    19    20   ar
    15    10     8   ar
    16    20     4   ar
    17     8     6   ar
    18     4     6   ar
    19     4     2    1
    20     2     3    2
    21     2     5    1
