@<TRIPOS>MOLECULE
3a89_H06_A_1.pdb
 20 21 0 0 0
SMALL
GASTEIGER

@<TRIPOS>ATOM
      1  O         -3.4190  -20.3540   13.5660 O.2     5  H065       -0.2664
      2  C1        -2.0810  -13.5470   18.4220 C.2     5  H065        0.4766
      3  N1        -1.7160  -12.3320   18.4410 N.pl3   5  H065        0.2047
      4  C2        -1.8160  -14.4300   17.2370 C.ar    5  H065        0.0975
      5  N2        -2.7220  -14.0510   19.4810 N.pl3   5  H065        0.2047
      6  C3        -1.9780  -15.8080   17.3790 C.ar    5  H065        0.0080
      7  N3        -1.9770  -18.0390   13.7390 N.2     5  H065       -0.1543
      8  C4        -1.7440  -16.6540   16.2960 C.ar    5  H065        0.0019
      9  N4        -1.8680  -18.9340   12.7480 N.am    5  H065       -0.0753
     10  C5        -1.3500  -16.1440   15.0610 C.ar    5  H065        0.0208
     11  N5        -2.5050  -23.1580   10.5430 N.ar    5  H065       -0.2422
     12  C6        -1.1230  -17.0900   13.9270 C.2     5  H065        0.1197
     13  C7        -2.6080  -20.0560   12.6900 C.2     5  H065        0.2875
     14  C8        -2.4470  -20.9740   11.5010 C.ar    5  H065        0.0759
     15  C9        -2.6520  -22.3520   11.6170 C.ar    5  H065        0.1035
     16  C10       -2.1630  -22.6850    9.3360 C.ar    5  H065        0.0989
     17  C11       -1.9500  -21.3150    9.1580 C.ar    5  H065        0.0208
     18  C12       -2.0990  -20.4570   10.2530 C.ar    5  H065        0.0078
     19  C13       -1.1840  -14.7610   14.9140 C.ar    5  H065        0.0019
     20  C14       -1.4140  -13.9060   16.0020 C.ar    5  H065        0.0080
@<TRIPOS>BOND
     1    17    16   ar
     2    17    18   ar
     3    16    11   ar
     4    18    14   ar
     5    11    15   ar
     6    14    15   ar
     7    14    13    1
     8    13     9   am
     9    13     1    2
    10     9     7    1
    11     7    12    2
    12    12    10    1
    13    19    10   ar
    14    19    20   ar
    15    10     8   ar
    16    20     4   ar
    17     8     6   ar
    18     4     6   ar
    19     4     2    1
    20     2     3    2
    21     2     5    1
