@<TRIPOS>MOLECULE
3a8a_4FZ_A_1.pdb
 11 11 0 0 0
SMALL
GASTEIGER

@<TRIPOS>ATOM
      1  O         -1.5440  -17.5240   13.1830 O.2     7  4FZ7       -0.2831
      2  C1        -2.1450  -13.5490   18.2730 C.2     7  4FZ7        0.4766
      3  N1        -1.7920  -12.3380   18.3610 N.pl3   7  4FZ7        0.2047
      4  C2        -1.7750  -14.3700   17.0690 C.ar    7  4FZ7        0.0975
      5  N2        -2.8430  -14.0930   19.2680 N.pl3   7  4FZ7        0.2047
      6  C3        -2.2420  -15.6710   16.9440 C.ar    7  4FZ7        0.0081
      7  C4        -1.9060  -16.4370   15.8300 C.ar    7  4FZ7        0.0035
      8  C5        -1.0990  -15.9120   14.8260 C.ar    7  4FZ7        0.0422
      9  C6        -0.7410  -16.7230   13.6390 C.2     7  4FZ7        0.2342
     10  C7        -0.6280  -14.6110   14.9490 C.ar    7  4FZ7        0.0035
     11  C8        -0.9660  -13.8490   16.0630 C.ar    7  4FZ7        0.0081
@<TRIPOS>BOND
     1     1     9    2
     2     9     8    1
     3     8    10   ar
     4     8     7   ar
     5    10    11   ar
     6     7     6   ar
     7    11     4   ar
     8     6     4   ar
     9     4     2    1
    10     2     3    2
    11     2     5    1
