@<TRIPOS>MOLECULE
3a8b_BR6_A_1.pdb
 18 19 0 0 0
SMALL
GASTEIGER

@<TRIPOS>ATOM
      1 BR          3.0270  -21.3590   10.2720 Br     13  BR613      -0.0490
      2  C1         2.1320  -20.1730   11.4540 C.ar   13  BR613       0.0346
      3  N1         0.2530  -17.5200   14.0860 N.pl3  13  BR613      -0.2328
      4  C2         0.7440  -20.0310   11.3860 C.ar   13  BR613       0.0080
      5  N2        -1.7570  -12.1120   18.3740 N.pl3  13  BR613       0.2047
      6  C3         0.0930  -19.1480   12.2540 C.ar   13  BR613       0.0166
      7  N3        -2.7190  -13.9360   19.2870 N.pl3  13  BR613       0.2047
      8  C4         2.8730  -19.4510   12.3900 C.ar   13  BR613       0.0080
      9  C5         2.2270  -18.5700   13.2520 C.ar   13  BR613       0.0166
     10  C6         0.8400  -18.4240   13.1880 C.ar   13  BR613       0.0657
     11  C7        -0.5530  -16.5900   13.7710 C.3    13  BR613       0.1385
     12  C8        -0.9710  -15.7710   14.9250 C.ar   13  BR613      -0.0007
     13  C9        -1.5730  -16.3760   16.0240 C.ar   13  BR613      -0.0023
     14  C10       -1.9420  -15.6170   17.1370 C.ar   13  BR613       0.0077
     15  C11       -1.7020  -14.2410   17.1380 C.ar   13  BR613       0.0975
     16  C12       -2.0940  -13.4080   18.3230 C.2    13  BR613       0.4766
     17  C13       -1.0860  -13.6430   16.0350 C.ar   13  BR613       0.0077
     18  C14       -0.7180  -14.3960   14.9260 C.ar   13  BR613      -0.0023
@<TRIPOS>BOND
     1     1     2    1
     2     4     2   ar
     3     4     6   ar
     4     2     8   ar
     5     6    10   ar
     6     8     9   ar
     7    10     9   ar
     8    10     3    1
     9    11     3    1
    10    11    12    1
    11    12    18   ar
    12    12    13   ar
    13    18    17   ar
    14    13    14   ar
    15    17    15   ar
    16    14    15   ar
    17    15    16    1
    18    16     5    2
    19    16     7    1
