@<TRIPOS>MOLECULE
3a8c_O09_A_1.pdb
 16 16 0 0 0
SMALL
GASTEIGER

@<TRIPOS>ATOM
      1  C1        -2.2470  -11.9360   18.3550 C.2     2  O092        0.4766
      2  N1        -1.9040  -10.6520   18.3070 N.pl3   2  O092        0.2047
      3  O1        -0.5460  -16.6370   12.2070 O.2     2  O092       -0.3648
      4  C2        -1.9270  -12.7660   17.1430 C.ar    2  O092        0.0975
      5  N2        -0.9980  -16.0840   13.3710 N.2     2  O092       -0.0807
      6  O2        -3.0260  -17.0980    9.6290 O.co2   2  O092       -0.2414
      7  C3        -1.0030  -12.2400   16.2410 C.ar    2  O092        0.0080
      8  N3        -2.7980  -12.4150   19.3970 N.pl3   2  O092        0.2047
      9  O3        -2.0880  -15.3200   10.5730 O.co2   2  O092       -0.2414
     10  C4        -0.6410  -12.9300   15.0940 C.ar    2  O092        0.0019
     11  C5        -1.2110  -14.1630   14.8370 C.ar    2  O092        0.0224
     12  C6        -0.7810  -14.8610   13.6060 C.2     2  O092        0.1400
     13  C7        -1.4400  -17.4340   11.4510 C.3     2  O092        0.3510
     14  C8        -2.2080  -16.5420   10.5200 C.2     2  O092        0.4114
     15  C9        -2.1420  -14.7040   15.7280 C.ar    2  O092        0.0019
     16  C10       -2.5030  -14.0070   16.8910 C.ar    2  O092        0.0080
@<TRIPOS>BOND
     1     6    14   ar
     2    14     9   ar
     3    14    13    1
     4    13     3    1
     5     3     5    1
     6     5    12    2
     7    12    11    1
     8    11    10   ar
     9    11    15   ar
    10    10     7   ar
    11    15    16   ar
    12     7     4   ar
    13    16     4   ar
    14     4     1    1
    15     2     1    2
    16     1     8    1
