@<TRIPOS>MOLECULE
3a8d_O09_A_1.pdb
 16 16 0 0 0
SMALL
GASTEIGER

@<TRIPOS>ATOM
      1  C1        -2.2310  -11.9530   18.3600 C.2     7  O097        0.4766
      2  N1        -1.8990  -10.6590   18.3130 N.pl3   7  O097        0.2047
      3  O1        -0.5870  -16.6390   12.2380 O.2     7  O097       -0.3648
      4  C2        -1.8440  -12.8180   17.1980 C.ar    7  O097        0.0975
      5  N2        -1.1550  -16.0490   13.3320 N.2     7  O097       -0.0807
      6  O2        -3.0090  -17.1090    9.5710 O.co2   7  O097       -0.2414
      7  C3        -0.9780  -12.2740   16.2530 C.ar    7  O097        0.0080
      8  N3        -2.8490  -12.4310   19.3550 N.pl3   7  O097        0.2047
      9  O3        -2.0930  -15.3110   10.4780 O.co2   7  O097       -0.2414
     10  C4        -0.5700  -13.0110   15.1530 C.ar    7  O097        0.0019
     11  C5        -1.0430  -14.3010   14.9890 C.ar    7  O097        0.0224
     12  C6        -0.5630  -15.0420   13.8070 C.2     7  O097        0.1400
     13  C7        -1.4180  -17.4230   11.3890 C.3     7  O097        0.3510
     14  C8        -2.1930  -16.5360   10.4500 C.2     7  O097        0.4114
     15  C9        -1.9060  -14.8660   15.9280 C.ar    7  O097        0.0019
     16  C10       -2.3210  -14.1190   17.0460 C.ar    7  O097        0.0080
@<TRIPOS>BOND
     1     6    14   ar
     2    14     9   ar
     3    14    13    1
     4    13     3    1
     5     3     5    1
     6     5    12    2
     7    12    11    1
     8    11    10   ar
     9    11    15   ar
    10    10     7   ar
    11    15    16   ar
    12     7     4   ar
    13    16     4   ar
    14     4     1    1
    15     2     1    2
    16     1     8    1
