@<TRIPOS>MOLECULE
3a8i_C2F_A_1.pdb
 33 35 0 0 0
SMALL
GASTEIGER

@<TRIPOS>ATOM
      1  N1        -1.0430    4.8930    3.0840 N.2   401  C2F401     -0.2726
      2  C2        -2.1660    5.1870    2.4850 C.1   401  C2F401      0.2603
      3  NA2       -2.5210    6.4960    2.5160 N.pl3 401  C2F401     -0.0221
      4  N3        -2.9320    4.2200    1.8230 N.2   401  C2F401     -0.2515
      5  C4        -2.5380    2.9340    1.8180 C.1   401  C2F401      0.2218
      6  O4        -3.3160    1.9780    1.1970 O.2   401  C2F401     -0.2109
      7  C4A       -1.3130    2.5870    2.4130 C.3   401  C2F401      0.2763
      8  N5        -0.8360    1.2460    2.5560 N.3   401  C2F401     -0.2435
      9  C6         0.5760    0.9140    2.7750 C.3   401  C2F401      0.1062
     10  C7         0.9100    1.8080    3.9890 C.3   401  C2F401      0.1547
     11  N8         0.5460    3.2170    3.6700 N.2   401  C2F401     -0.2096
     12  C8A       -0.6060    3.5850    3.0560 C.1   401  C2F401      0.1050
     13  C9         1.1500    1.5440    1.5340 C.3   401  C2F401      0.1302
     14  N10        1.3870    0.6040    0.4730 N.pl3 401  C2F401     -0.2361
     15  C11       -1.7370    0.1200    2.7490 C.3   401  C2F401      0.0915
     16  C12        1.0950    2.3240   -3.2950 C.ar  401  C2F401      0.0551
     17  C13        1.5080    1.0080   -3.1360 C.ar  401  C2F401      0.0059
     18  C14        1.5990    0.3890   -1.9050 C.ar  401  C2F401      0.0162
     19  C15        1.3210    1.1380   -0.7710 C.ar  401  C2F401      0.0654
     20  C16        0.9280    2.4670   -0.9100 C.ar  401  C2F401      0.0162
     21  C17        0.8160    3.0600   -2.1740 C.ar  401  C2F401      0.0059
     22  C          1.0070    2.9450   -4.6590 C.2   401  C2F401      0.2652
     23  O          0.1560    3.7960   -4.9550 O.2   401  C2F401     -0.2684
     24  N          1.9360    2.5420   -5.5290 N.am  401  C2F401     -0.1918
     25  CA         1.9210    3.0950   -6.8880 C.3   401  C2F401      0.1986
     26  CB         2.9740    4.1980   -6.7890 C.3   401  C2F401      0.0451
     27  CG         2.8370    5.2660   -7.8660 C.3   401  C2F401      0.1164
     28  CD         3.5420    6.5390   -7.4330 C.2   401  C2F401      0.3649
     29  OE1        3.1210    7.6090   -7.9620 O.co2 401  C2F401     -0.2457
     30  OE2        4.4830    6.4980   -6.5900 O.co2 401  C2F401     -0.2457
     31  CT         2.1780    2.0800   -8.0110 C.2   401  C2F401      0.3842
     32  O1         2.7150    0.9640   -7.7380 O.co2 401  C2F401     -0.2437
     33  O2         1.8230    2.3890   -9.1900 O.co2 401  C2F401     -0.2437
@<TRIPOS>BOND
     1    33    31   ar
     2    31    32   ar
     3    31    25    1
     4    29    28   ar
     5    27    28    1
     6    27    26    1
     7    28    30   ar
     8    25    26    1
     9    25    24    1
    10    24    22   am
    11    23    22    2
    12    22    16    1
    13    16    17   ar
    14    16    21   ar
    15    17    18   ar
    16    21    20   ar
    17    18    19   ar
    18    20    19   ar
    19    19    14    1
    20    14    13    1
    21     6     5    2
    22    13     9    1
    23     5     4    2
    24     5     7    1
    25     4     2    2
    26     7     8    1
    27     7    12    1
    28     2     3    1
    29     2     1    2
    30     8    15    1
    31     8     9    1
    32     9    10    1
    33    12     1    2
    34    12    11    2
    35    11    10    1
