@<TRIPOS>MOLECULE
3a8t_ATP_A_1.pdb
 31 33 0 0 0
SMALL
GASTEIGER

@<TRIPOS>ATOM
      1  PG        28.3140   30.4150   18.3450 P.3   800  ATP800      0.5373
      2  O1G       29.5650   30.6430   17.5550 O.3   800  ATP800     -0.1143
      3  O2G       28.2890   31.5140   19.5490 O.3   800  ATP800     -0.1143
      4  O3G       27.0110   30.6420   17.4200 O.2   800  ATP800     -0.2221
      5  PB        29.5050   27.9710   18.7890 P.3   800  ATP800      0.2277
      6  O1B       29.4490   27.1290   17.6330 O.2   800  ATP800     -0.5168
      7  O2B       30.7530   28.8870   18.6640 O.3   800  ATP800     -0.4368
      8  O3B       28.1860   28.8600   18.9310 O.3   800  ATP800     -0.2258
      9  PA        28.4490   26.6990   21.0740 P.3   800  ATP800      0.2189
     10  O1A       27.1980   26.4090   20.3900 O.2   800  ATP800     -0.5170
     11  O2A       28.8360   25.3650   21.9150 O.3   800  ATP800     -0.4371
     12  O3A       29.7310   27.0160   20.0850 O.3   800  ATP800     -0.2700
     13  O5'       28.2870   27.8450   22.2160 O.3   800  ATP800     -0.3112
     14  C5'       27.4870   28.9250   21.8210 C.3   800  ATP800      0.1813
     15  C4'       26.9940   29.5870   23.0930 C.3   800  ATP800      0.1821
     16  O4'       26.2520   28.6260   23.8540 O.3   800  ATP800     -0.3135
     17  C3'       28.1130   30.0600   24.0530 C.3   800  ATP800      0.2184
     18  O3'       28.5460   31.3760   23.7190 O.3   800  ATP800     -0.2174
     19  C2'       27.4260   29.9680   25.4260 C.3   800  ATP800      0.2570
     20  O2'       26.7140   31.1280   25.6860 O.3   800  ATP800     -0.2130
     21  C1'       26.4880   28.7890   25.3080 C.3   800  ATP800      0.3186
     22  N9        27.1100   27.5640   25.8820 N.pl3 800  ATP800     -0.1439
     23  C8        27.7900   26.5690   25.1810 C.3   800  ATP800      0.3377
     24  N7        28.3010   25.6830   26.0110 N.2   800  ATP800     -0.2095
     25  C5        27.9880   26.0350   27.2900 C.2   800  ATP800      0.2526
     26  C6        28.2470   25.5070   28.6170 C.2   800  ATP800      0.4393
     27  N6        28.9850   24.3690   28.8260 N.pl3 800  ATP800      0.2180
     28  N1        27.7400   26.1760   29.6740 N.2   800  ATP800      0.0021
     29  C2        27.0230   27.2810   29.5190 C.3   800  ATP800      0.5254
     30  N3        26.7600   27.8100   28.3220 N.2   800  ATP800     -0.0055
     31  C4        27.2040   27.2520   27.2070 C.2   800  ATP800      0.3518
@<TRIPOS>BOND
     1     4     1    2
     2     2     1    1
     3     6     5    2
     4     1     8    1
     5     1     3    1
     6     7     5    1
     7     5     8    1
     8     5    12    1
     9    12     9    1
    10    10     9    2
    11     9    11    1
    12     9    13    1
    13    14    13    1
    14    14    15    1
    15    15    16    1
    16    15    17    1
    17    18    17    1
    18    16    21    1
    19    17    19    1
    20    23    22    1
    21    23    24    1
    22    21    19    1
    23    21    22    1
    24    19    20    1
    25    22    31    1
    26    24    25    2
    27    31    25    1
    28    31    30    2
    29    25    26    1
    30    30    29    1
    31    26    27    1
    32    26    28    2
    33    29    28    1
