@<TRIPOS>MOLECULE
3a8w_ATP_A_1.pdb
 31 33 0 0 0
SMALL
GASTEIGER

@<TRIPOS>ATOM
      1  PG         8.3010  -24.7620   -6.7090 P.3   601  ATP601      0.5373
      2  O1G        9.0300  -26.0320   -6.3660 O.3   601  ATP601     -0.1143
      3  O2G        7.1920  -24.4500   -5.7340 O.3   601  ATP601     -0.1143
      4  O3G        9.1960  -23.5660   -7.0050 O.2   601  ATP601     -0.2221
      5  PB         7.9640  -25.1310   -9.6150 P.3   601  ATP601      0.2277
      6  O1B        7.0730  -26.2150  -10.1310 O.2   601  ATP601     -0.5168
      7  O2B        9.4730  -25.3230   -9.7290 O.3   601  ATP601     -0.4368
      8  O3B        7.4780  -25.0250   -8.0820 O.3   601  ATP601     -0.2258
      9  PA         6.2000  -22.9420  -10.2360 P.3   601  ATP601      0.2189
     10  O1A        4.9620  -23.7930  -10.2770 O.2   601  ATP601     -0.5170
     11  O2A        6.2760  -21.9100   -9.1400 O.3   601  ATP601     -0.4371
     12  O3A        7.5640  -23.7880  -10.3890 O.3   601  ATP601     -0.2700
     13  O5'        6.2930  -22.1050  -11.5950 O.3   601  ATP601     -0.3112
     14  C5'        7.2520  -21.0680  -11.6760 C.3   601  ATP601      0.1813
     15  C4'        6.6030  -19.8760  -12.3490 C.3   601  ATP601      0.1821
     16  O4'        6.2470  -20.2340  -13.6850 O.3   601  ATP601     -0.3135
     17  C3'        5.3130  -19.4040  -11.7120 C.3   601  ATP601      0.2184
     18  O3'        5.5080  -18.5020  -10.6220 O.3   601  ATP601     -0.2174
     19  C2'        4.6570  -18.6910  -12.8690 C.3   601  ATP601      0.2570
     20  O2'        5.1740  -17.3530  -12.9810 O.3   601  ATP601     -0.2130
     21  C1'        5.0970  -19.5150  -14.0750 C.3   601  ATP601      0.3186
     22  N9         4.0190  -20.4940  -14.2810 N.pl3 601  ATP601     -0.1439
     23  C8         3.8380  -21.6610  -13.6410 C.3   601  ATP601      0.3377
     24  N7         2.7000  -22.2740  -14.0760 N.2   601  ATP601     -0.2095
     25  C5         2.1380  -21.4860  -15.0010 C.2   601  ATP601      0.2526
     26  C6         0.9460  -21.5230  -15.8590 C.2   601  ATP601      0.4393
     27  N6         0.0650  -22.5400  -15.7980 N.pl3 601  ATP601      0.2180
     28  N1         0.7420  -20.4860  -16.6910 N.2   601  ATP601      0.0021
     29  C2         1.5790  -19.4350  -16.7540 C.3   601  ATP601      0.5254
     30  N3         2.6950  -19.3460  -16.0090 N.2   601  ATP601     -0.0055
     31  C4         3.0170  -20.3190  -15.1370 C.2   601  ATP601      0.3518
@<TRIPOS>BOND
     1    29    28    1
     2    29    30    1
     3    28    26    2
     4    30    31    2
     5    26    27    1
     6    26    25    1
     7    31    25    1
     8    31    22    1
     9    25    24    2
    10    22    21    1
    11    22    23    1
    12    24    23    1
    13    21    16    1
    14    21    19    1
    15    16    15    1
    16    20    19    1
    17    19    17    1
    18    15    17    1
    19    15    14    1
    20    17    18    1
    21    14    13    1
    22    13     9    1
    23    12     9    1
    24    12     5    1
    25    10     9    2
    26     9    11    1
    27     6     5    2
    28     7     5    1
    29     5     8    1
    30     8     1    1
    31     4     1    2
    32     1     2    1
    33     1     3    1
