@<TRIPOS>MOLECULE
3a99_ANP_A_1.pdb
 31 33 0 0 0
SMALL
GASTEIGER

@<TRIPOS>ATOM
      1  PG       -14.7790   82.5050   -4.5700 P.3   501  ANP501      0.4884
      2  O1G      -14.3410   81.1630   -4.1740 O.3   501  ANP501     -0.1240
      3  O2G      -16.3650   82.5130   -4.8090 O.3   501  ANP501     -0.1240
      4  O3G      -14.0240   82.8930   -5.9270 O.2   501  ANP501     -0.2331
      5  PB       -14.4610   83.1590   -1.7970 P.3   501  ANP501      0.4669
      6  O1B      -15.3300   84.1400   -1.1040 O.3   501  ANP501     -0.1253
      7  O2B      -15.1310   81.7420   -1.5670 O.2   501  ANP501     -0.2351
      8  N3B      -14.3980   83.7080   -3.4060 N.3   501  ANP501     -0.0163
      9  PA       -11.9990   82.0660   -1.0040 P.3   501  ANP501      0.2220
     10  O1A      -11.8100   81.6690    0.4030 O.3   501  ANP501     -0.4370
     11  O2A      -12.5070   80.8470   -1.8740 O.2   501  ANP501     -0.5170
     12  O3A      -12.9970   83.3620   -1.1210 O.3   501  ANP501     -0.2360
     13  O5'      -10.6010   82.5490   -1.6210 O.3   501  ANP501     -0.3111
     14  C5'      -10.7970   82.8880   -2.9910 C.3   501  ANP501      0.1813
     15  C4'       -9.4580   83.3400   -3.5530 C.3   501  ANP501      0.1821
     16  O4'       -8.7900   84.3090   -2.6870 O.3   501  ANP501     -0.3135
     17  C3'       -8.5240   82.1260   -3.7500 C.3   501  ANP501      0.2184
     18  O3'       -8.7200   81.7180   -5.1030 O.3   501  ANP501     -0.2174
     19  C2'       -7.1500   82.7360   -3.4920 C.3   501  ANP501      0.2570
     20  O2'       -6.4560   83.0360   -4.7020 O.3   501  ANP501     -0.2130
     21  C1'       -7.3900   83.9530   -2.5710 C.3   501  ANP501      0.3186
     22  N9        -7.0710   83.6250   -1.1620 N.pl3 501  ANP501     -0.1439
     23  C8        -7.9600   83.2560   -0.1790 C.3   501  ANP501      0.3377
     24  N7        -7.3450   83.0630    0.9430 N.2   501  ANP501     -0.2095
     25  C5        -6.0250   83.2900    0.7730 C.2   501  ANP501      0.2526
     26  C6        -4.8840   83.2500    1.6160 C.2   501  ANP501      0.4393
     27  N6        -5.0090   82.9190    2.9500 N.pl3 501  ANP501      0.2180
     28  N1        -3.6730   83.5450    1.0870 N.2   501  ANP501      0.0021
     29  C2        -3.5300   83.8710   -0.2070 C.3   501  ANP501      0.5254
     30  N3        -4.5800   83.9250   -1.0320 N.2   501  ANP501     -0.0055
     31  C4        -5.8270   83.6470   -0.5890 C.2   501  ANP501      0.3518
@<TRIPOS>BOND
     1     4     1    2
     2    18    17    1
     3     3     1    1
     4    20    19    1
     5     1     2    1
     6     1     8    1
     7    17    15    1
     8    17    19    1
     9    15    14    1
    10    15    16    1
    11    19    21    1
    12     8     5    1
    13    14    13    1
    14    16    21    1
    15    21    22    1
    16    11     9    2
    17     5     7    2
    18     5    12    1
    19     5     6    1
    20    13     9    1
    21    22    31    1
    22    22    23    1
    23    12     9    1
    24    30    31    2
    25    30    29    1
    26     9    10    1
    27    31    25    1
    28    29    28    1
    29    23    24    1
    30    25    24    2
    31    25    26    1
    32    28    26    2
    33    26    27    1
