@<TRIPOS>MOLECULE
3a9b_BGC_A_1.pdb
 12 12 0 0 0
SMALL
GASTEIGER

@<TRIPOS>ATOM
      1  C2       -10.2940   -3.8430   -0.3320 C.3   1001  BGC1001     0.2434
      2  C3       -10.9260   -2.5810   -0.9180 C.3   1001  BGC1001     0.2199
      3  C4       -10.5810   -1.3370   -0.1010 C.3   1001  BGC1001     0.2144
      4  C5        -9.0890   -1.2770    0.2540 C.3   1001  BGC1001     0.1836
      5  C6        -8.7550   -0.1270    1.2030 C.3   1001  BGC1001     0.2142
      6  C1        -8.8120   -3.6210   -0.0530 C.3   1001  BGC1001     0.3024
      7  O1        -8.2460   -4.7930    0.5390 O.3   1001  BGC1001    -0.1869
      8  O2       -10.4560   -4.9270   -1.2510 O.3   1001  BGC1001    -0.2148
      9  O3       -12.3510   -2.7220   -0.9510 O.3   1001  BGC1001    -0.2174
     10  O4       -10.9920   -0.1820   -0.8500 O.3   1001  BGC1001    -0.2176
     11  O5        -8.6660   -2.5150    0.8440 O.3   1001  BGC1001    -0.3236
     12  O6        -9.4600   -0.2560    2.4550 O.3   1001  BGC1001    -0.2176
@<TRIPOS>BOND
     1     8     1    1
     2     9     2    1
     3     2     1    1
     4     2     3    1
     5    10     3    1
     6     1     6    1
     7     3     4    1
     8     6     7    1
     9     6    11    1
    10     4    11    1
    11     4     5    1
    12     5    12    1
