@<TRIPOS>MOLECULE
3a9b_CBI_A_1.pdb
 23 24 0 0 0
SMALL
GASTEIGER

@<TRIPOS>ATOM
      1  C1        -1.9700  -11.9360    2.8060 C.3   1002  CBI1002     0.2695
      2  C2        -3.4950  -12.0030    2.8660 C.3   1002  CBI1002     0.2406
      3  C3        -4.0940  -10.7420    2.2550 C.3   1002  CBI1002     0.2198
      4  C4        -3.5130   -9.4870    2.9020 C.3   1002  CBI1002     0.2144
      5  C5        -1.9840   -9.5330    2.9380 C.3   1002  CBI1002     0.1835
      6  C6        -1.4230   -8.4170    3.8050 C.3   1002  CBI1002     0.2142
      7  O2        -3.9570  -13.1490    2.1450 O.3   1002  CBI1002    -0.2149
      8  O3        -5.5130  -10.7530    2.4280 O.3   1002  CBI1002    -0.2174
      9  O4        -3.9580   -8.3390    2.1660 O.3   1002  CBI1002    -0.2176
     10  O5        -1.5340  -10.7670    3.5040 O.3   1002  CBI1002    -0.3256
     11  O6        -0.0010   -8.5540    3.8710 O.3   1002  CBI1002    -0.2176
     12  C1'        2.0790  -14.9420    4.5180 C.3   1002  CBI1002     0.3023
     13  C2'        2.0370  -13.4380    4.7920 C.3   1002  CBI1002     0.2433
     14  C3'        0.6280  -12.8890    4.6500 C.3   1002  CBI1002     0.2168
     15  C4'       -0.0390  -13.3090    3.3360 C.3   1002  CBI1002     0.1804
     16  C5'        0.1830  -14.7980    3.0280 C.3   1002  CBI1002     0.1804
     17  C6'       -0.2380  -15.1340    1.5970 C.3   1002  CBI1002     0.2141
     18  O1'        3.4380  -15.3910    4.5360 O.3   1002  CBI1002    -0.1869
     19  O2'        2.4660  -13.1260    6.1180 O.3   1002  CBI1002    -0.2148
     20  O3'        0.7080  -11.4610    4.7370 O.3   1002  CBI1002    -0.2175
     21  O4'       -1.4470  -13.0930    3.4570 O.3   1002  CBI1002    -0.3257
     22  O5'        1.5490  -15.1990    3.2160 O.3   1002  CBI1002    -0.3237
     23  O6'       -0.0950  -16.5380    1.3460 O.3   1002  CBI1002    -0.2176
@<TRIPOS>BOND
     1    23    17    1
     2    17    16    1
     3     7     2    1
     4     9     4    1
     5     3     8    1
     6     3     2    1
     7     3     4    1
     8     1     2    1
     9     1    21    1
    10     1    10    1
    11     4     5    1
    12     5    10    1
    13     5     6    1
    14    16    22    1
    15    16    15    1
    16    22    12    1
    17    15    21    1
    18    15    14    1
    19     6    11    1
    20    12    18    1
    21    12    13    1
    22    14    20    1
    23    14    13    1
    24    13    19    1
