@<TRIPOS>MOLECULE
3a9c_RUB_A_1.pdb
 18 17 0 0 0
SMALL
GASTEIGER

@<TRIPOS>ATOM
      1  C1        25.1850   19.7090    9.2220 C.3   401  RUB401      0.2203
      2  C2        25.6390   20.3400   10.5410 C.2   401  RUB401      0.2137
      3  C3        25.0940   21.7190   10.9190 C.3   401  RUB401      0.2438
      4  C4        23.7360   21.5430   11.6010 C.3   401  RUB401      0.2194
      5  C5        23.0640   22.8990   11.8170 C.3   401  RUB401      0.1896
      6  O1        25.9980   18.5940    8.8450 O.3   401  RUB401     -0.2621
      7  O2        26.4050   19.7440   11.2970 O.2   401  RUB401     -0.2906
      8  O3        25.9960   22.3740   11.8160 O.3   401  RUB401     -0.2122
      9  O4        22.9040   20.7170   10.7830 O.3   401  RUB401     -0.2172
     10  O5        23.0660   23.6410   10.5950 O.3   401  RUB401     -0.2674
     11  P1        25.6590   17.7590    7.5080 P.3   401  RUB401      0.5330
     12  P2        21.7380   24.4060   10.1050 P.3   401  RUB401      0.5327
     13  O1P       24.5260   16.8260    7.7030 O.3   401  RUB401     -0.1145
     14  O2P       25.3790   18.8240    6.3330 O.2   401  RUB401     -0.2224
     15  O3P       27.0210   17.0000    7.1090 O.3   401  RUB401     -0.1145
     16  O4P       20.5140   23.5840   10.2310 O.3   401  RUB401     -0.1145
     17  O5P       21.6520   25.7670   10.9620 O.3   401  RUB401     -0.1145
     18  O6P       22.0120   24.8500    8.5810 O.2   401  RUB401     -0.2224
@<TRIPOS>BOND
     1    14    11    2
     2    15    11    1
     3    11    13    1
     4    11     6    1
     5    18    12    2
     6     6     1    1
     7     1     2    1
     8    12    16    1
     9    12    10    1
    10    12    17    1
    11     2     3    1
    12     2     7    2
    13    10     5    1
    14     9     4    1
    15     3     4    1
    16     3     8    1
    17     4     5    1
