@<TRIPOS>MOLECULE
3a9e_754_A_1.pdb
 29 30 0 0 0
SMALL
GASTEIGER

@<TRIPOS>ATOM
      1  C1        47.5910   61.2920   -5.6560 C.ar    1  7541       -0.0266
      2  O1        50.8250   63.6150   -4.4780 O.3     1  7541       -0.4755
      3  C2        48.8510   60.7150   -5.5620 C.ar    1  7541       -0.0238
      4  O2        47.3270   67.6410  -11.8720 O.co2   1  7541       -0.2406
      5  C3        47.4260   62.6430   -5.3540 C.ar    1  7541       -0.0019
      6  O3        46.2290   69.4180  -11.2540 O.co2   1  7541       -0.2406
      7  C4        46.3760   60.5130   -6.0730 C.3     1  7541        0.0186
      8  C5        49.9320   61.4970   -5.1660 C.ar    1  7541        0.0323
      9  C6        49.1250   59.2670   -5.8630 C.3     1  7541        0.0187
     10  C7        49.7620   62.8410   -4.8620 C.ar    1  7541        0.1378
     11  C8        48.5150   63.4200   -4.9750 C.ar    1  7541        0.0294
     12  C9        46.5950   59.0110   -5.9580 C.3     1  7541        0.0044
     13  C10       47.9390   58.5640   -6.5100 C.3     1  7541        0.0044
     14  C11       48.3640   64.8700   -4.6180 C.2     1  7541       -0.0232
     15  C12       53.1580   64.0360   -4.1410 C.3     1  7541        0.0473
     16  C13       46.0290   60.8750   -7.5120 C.3     1  7541        0.0044
     17  C14       45.2250   60.9170   -5.1600 C.3     1  7541        0.0044
     18  C15       49.4610   58.5750   -4.5470 C.3     1  7541        0.0044
     19  C16       50.3290   59.1920   -6.7940 C.3     1  7541        0.0044
     20  C17       48.1260   65.8480   -5.5040 C.2     1  7541       -0.0299
     21  C18       48.4770   65.2540   -3.1730 C.3     1  7541        0.0308
     22  C19       47.9840   65.6960   -6.9480 C.3     1  7541        0.0300
     23  C20       47.7990   66.8380   -7.6070 C.3     1  7541        0.0269
     24  C21       47.6270   66.9400   -9.0680 C.2     1  7541       -0.0370
     25  C22       47.1330   68.0940   -9.5500 C.2     1  7541        0.0777
     26  C23       48.0050   65.7890   -9.9530 C.3     1  7541        0.0266
     27  C24       46.8870   68.3920  -10.9770 C.2     1  7541        0.3873
     28  C25       52.0280   63.0240   -3.9970 C.3     1  7541        0.2054
     29  C26       52.6320   65.4490   -4.0060 C.3     1  7541        0.0040
@<TRIPOS>BOND
     1     4    27   ar
     2     6    27   ar
     3    27    25    1
     4    26    24    1
     5    25    24    2
     6    24    23    1
     7    23    22    1
     8    16     7    1
     9    22    20    1
    10    19     9    1
    11    13    12    1
    12    13     9    1
    13     7    12    1
    14     7     1    1
    15     7    17    1
    16     9     3    1
    17     9    18    1
    18     1     3   ar
    19     1     5   ar
    20     3     8   ar
    21    20    14    2
    22     5    11   ar
    23     8    10   ar
    24    11    10   ar
    25    11    14    1
    26    10     2    1
    27    14    21    1
    28     2    28    1
    29    15    29    1
    30    15    28    1
