@<TRIPOS>MOLECULE
3a9e_REA_B_1.pdb
 22 22 0 0 0
SMALL
GASTEIGER

@<TRIPOS>ATOM
      1  C1        36.9920   49.0050   18.9620 C.3     1  REA1        0.0146
      2  C2        37.5830   47.7320   18.3770 C.3     1  REA1        0.0040
      3  C3        37.0420   46.5190   19.1190 C.3     1  REA1        0.0046
      4  C4        35.5470   46.3510   18.8860 C.3     1  REA1        0.0214
      5  C5        34.8240   47.6770   18.7970 C.2     1  REA1       -0.0518
      6  C6        35.4760   48.9030   18.9500 C.2     1  REA1       -0.0527
      7  C7        34.6870   50.1370   19.1030 C.3     1  REA1        0.0214
      8  C8        33.7930   50.2800   20.2590 C.3     1  REA1        0.0043
      9  C9        32.6410   51.1890   20.2310 C.3     1  REA1        0.0003
     10  C10       31.3420   50.6730   20.6770 C.3     1  REA1        0.0003
     11  C11       30.4990   51.4160   21.6210 C.3     1  REA1        0.0043
     12  C12       29.7410   50.6240   22.5960 C.3     1  REA1        0.0222
     13  C13       28.5160   51.1300   23.2240 C.2     1  REA1       -0.0374
     14  C14       27.7810   50.2450   24.0430 C.2     1  REA1        0.0777
     15  C15       26.7010   50.6780   24.9420 C.2     1  REA1        0.3873
     16  C16       37.4020   50.2120   18.1260 C.3     1  REA1        0.0040
     17  C17       37.4560   49.1810   20.4030 C.3     1  REA1        0.0040
     18  C18       33.3470   47.6560   18.5250 C.3     1  REA1        0.0257
     19  C19       32.7860   52.6050   19.7600 C.3     1  REA1        0.0000
     20  C20       28.0750   52.5450   22.9860 C.3     1  REA1        0.0266
     21  O1        26.4630   50.0200   25.9770 O.co2   1  REA1       -0.2406
     22  O2        26.0000   51.6820   24.6920 O.co2   1  REA1       -0.2406
@<TRIPOS>BOND
     1    16     1    1
     2     2     1    1
     3     2     3    1
     4    18     5    1
     5     5     4    1
     6     5     6    2
     7     4     3    1
     8     6     1    1
     9     6     7    1
    10     1    17    1
    11     7     8    1
    12    19     9    1
    13     9     8    1
    14     9    10    1
    15    10    11    1
    16    11    12    1
    17    12    13    1
    18    20    13    1
    19    13    14    2
    20    14    15    1
    21    22    15   ar
    22    15    21   ar
