@<TRIPOS>MOLECULE
3a9f_HEC_A_1.pdb
 43 50 0 0 0
SMALL
GASTEIGER

@<TRIPOS>ATOM
      1 FE         18.3500   32.0300   13.9350 Fe    207  HEC207      0.0000
      2  CHA       16.6570   30.0710   11.7190 C.2   207  HEC207      0.0000
      3  CHB       18.0220   29.5730   16.3240 C.2   207  HEC207      0.0000
      4  CHC       19.9970   33.9930   16.1800 C.2   207  HEC207      0.0000
      5  CHD       18.8110   34.4010   11.5350 C.2   207  HEC207      0.0000
      6  NA        17.5110   30.1990   14.0010 N.2   207  HEC207      0.0000
      7  C1A       16.8610   29.5520   12.9650 C.2   207  HEC207      0.0000
      8  C2A       16.4540   28.2330   13.3980 C.2   207  HEC207      0.0000
      9  C3A       16.8600   28.0960   14.6750 C.2   207  HEC207      0.0000
     10  C4A       17.4950   29.3240   15.0770 C.2   207  HEC207      0.0000
     11  CMA       16.6780   26.9000   15.6290 C.3   207  HEC207      0.0000
     12  CAA       15.7310   27.2070   12.5080 C.3   207  HEC207      0.0000
     13  CBA       16.7710   26.3860   11.7500 C.3   207  HEC207      0.0000
     14  CGA       16.1390   25.2520   10.9930 C.2   207  HEC207      0.0000
     15  O1A       15.0240   25.4170   10.4520 O.co2 207  HEC207      0.0000
     16  O2A       16.7620   24.1780   10.9330 O.co2 207  HEC207      0.0000
     17  NB        18.8520   31.8570   15.9070 N.ar  207  HEC207      0.0000
     18  C1B       18.6890   30.7210   16.6810 C.ar  207  HEC207      0.0000
     19  C2B       19.3830   30.9170   17.9320 C.ar  207  HEC207      0.0000
     20  C3B       19.9410   32.1380   17.8820 C.ar  207  HEC207      0.0000
     21  C4B       19.6210   32.7470   16.6230 C.ar  207  HEC207      0.0000
     22  CMB       19.4430   29.8290   19.0250 C.3   207  HEC207      0.0000
     23  CAB       20.8580   32.8690   18.8670 C.3   207  HEC207      0.0000
     24  CBB       22.2220   32.1310   18.9000 C.3   207  HEC207      0.0000
     25  NC        19.2220   33.8620   13.8660 N.2   207  HEC207      0.0000
     26  C1C       19.8230   34.5130   14.9220 C.2   207  HEC207      0.0000
     27  C2C       20.2480   35.8130   14.4820 C.2   207  HEC207      0.0000
     28  C3C       19.8840   35.9470   13.1850 C.2   207  HEC207      0.0000
     29  C4C       19.2770   34.7060   12.7810 C.2   207  HEC207      0.0000
     30  CMC       20.8720   36.8600   15.4100 C.3   207  HEC207      0.0000
     31  CAC       20.0610   37.1390   12.2170 C.3   207  HEC207      0.0000
     32  CBC       21.5260   37.6290   12.0960 C.3   207  HEC207      0.0000
     33  ND        17.8180   32.1990   11.9580 N.ar  207  HEC207      0.0000
     34  C1D       18.1560   33.2650   11.1390 C.ar  207  HEC207      0.0000
     35  C2D       17.6840   33.0180    9.7990 C.ar  207  HEC207      0.0000
     36  C3D       17.0190   31.6960    9.8580 C.ar  207  HEC207      0.0000
     37  C4D       17.1410   31.2430   11.2160 C.ar  207  HEC207      0.0000
     38  CMD       17.8840   33.9610    8.6260 C.3   207  HEC207      0.0000
     39  CAD       16.3470   30.9790    8.6860 C.3   207  HEC207      0.0000
     40  CBD       17.3830   30.2730    7.8190 C.3   207  HEC207      0.0000
     41  CGD       17.9170   29.0860    8.5630 C.2   207  HEC207      0.0000
     42  O1D       17.1360   28.1480    8.8560 O.co2 207  HEC207      0.0000
     43  O2D       19.1290   29.1060    8.8900 O.co2 207  HEC207      0.0000
@<TRIPOS>BOND
     1    40    41    1
     2    40    39    1
     3    41    42   ar
     4    41    43   ar
     5    38    35    1
     6    39    36    1
     7    35    36   ar
     8    35    34   ar
     9    36    37   ar
    10    15    14   ar
    11    16    14   ar
    12    14    13    1
    13    34     5    2
    14    34    33   ar
    15    37     2    2
    16    37    33   ar
    17     5    29    1
    18     2     7    1
    19    13    12    1
    20    33     1    1
    21    32    31    1
    22    31    28    1
    23    12     8    1
    24    29    28    1
    25    29    25    2
    26     7     8    1
    27     7     6    2
    28    28    27    2
    29     8     9    2
    30    25     1    1
    31    25    26    1
    32     1     6    1
    33     1    17    1
    34     6    10    1
    35    27    26    1
    36    27    30    1
    37     9    10    1
    38     9    11    1
    39    26     4    2
    40    10     3    2
    41    17    21   ar
    42    17    18   ar
    43     4    21    1
    44     3    18    1
    45    21    20   ar
    46    18    19   ar
    47    20    19   ar
    48    20    23    1
    49    19    22    1
    50    23    24    1
