@<TRIPOS>MOLECULE
3a9g_TRE_A_1.pdb
 23 24 0 0 0
SMALL
GASTEIGER

@<TRIPOS>ATOM
      1  C1         1.0610    8.4910    0.4520 C.3   2001  TRE2001     0.2713
      2  C2         1.9360    9.6580    0.9330 C.3   2001  TRE2001     0.2406
      3  C3         3.0780    9.1460    1.8040 C.3   2001  TRE2001     0.2198
      4  C4         2.5190    8.3400    2.9610 C.3   2001  TRE2001     0.2144
      5  C5         1.5150    7.2690    2.5220 C.3   2001  TRE2001     0.1835
      6  C6         0.7370    6.7730    3.7340 C.3   2001  TRE2001     0.2142
      7  O1         1.8410    7.6360   -0.3670 O.3   2001  TRE2001    -0.3016
      8  O2         2.4080   10.4320   -0.1930 O.3   2001  TRE2001    -0.2149
      9  O3         3.8450   10.2200    2.3690 O.3   2001  TRE2001    -0.2174
     10  O4         3.6200    7.7220    3.6360 O.3   2001  TRE2001    -0.2176
     11  O5         0.5620    7.7550    1.5650 O.3   2001  TRE2001    -0.3256
     12  O6         0.2670    5.4630    3.4100 O.3   2001  TRE2001    -0.2176
     13  C1P        1.1570    6.5910   -1.0240 C.3   2001  TRE2001     0.2713
     14  C2P        2.1660    5.5190   -1.4490 C.3   2001  TRE2001     0.2406
     15  C3P        3.1000    6.0760   -2.5120 C.3   2001  TRE2001     0.2198
     16  C4P        2.3030    6.5160   -3.7260 C.3   2001  TRE2001     0.2144
     17  C5P        1.1120    7.4310   -3.4020 C.3   2001  TRE2001     0.1835
     18  C6P        0.0050    7.0560   -4.3870 C.3   2001  TRE2001     0.2142
     19  O2P        2.9510    5.1030   -0.3280 O.3   2001  TRE2001    -0.2149
     20  O3P        4.0540    5.0990   -2.9080 O.3   2001  TRE2001    -0.2174
     21  O4P        3.1500    7.1820   -4.6570 O.3   2001  TRE2001    -0.2176
     22  O5P        0.4880    7.2110   -2.1270 O.3   2001  TRE2001    -0.3256
     23  O6P       -0.5500    8.2660   -4.8680 O.3   2001  TRE2001    -0.2176
@<TRIPOS>BOND
     1    23    18    1
     2    21    16    1
     3    18    17    1
     4    16    17    1
     5    16    15    1
     6    17    22    1
     7    20    15    1
     8    15    14    1
     9    22    13    1
    10    14    13    1
    11    14    19    1
    12    13     7    1
    13     7     1    1
    14     8     2    1
    15     1     2    1
    16     1    11    1
    17     2     3    1
    18    11     5    1
    19     3     9    1
    20     3     4    1
    21     5     4    1
    22     5     6    1
    23     4    10    1
    24    12     6    1
