@<TRIPOS>MOLECULE
3a9h_PQQ_A_1.pdb
 24 26 0 0 0
SMALL
GASTEIGER

@<TRIPOS>ATOM
      1  N1       -24.1420    2.2970   -5.6250 N.2   3001  PQQ3001    -0.3986
      2  C2       -23.2860    1.7340   -6.5310 C.2   3001  PQQ3001     0.2104
      3  C2X      -23.6400    0.5710   -7.4150 C.2   3001  PQQ3001     0.4168
      4  O2A      -24.7220   -0.0020   -7.1800 O.co2 3001  PQQ3001    -0.2377
      5  O2B      -22.8530    0.0970   -8.2720 O.co2 3001  PQQ3001    -0.2377
      6  C3       -22.0410    2.3510   -6.4670 C.2   3001  PQQ3001     0.0444
      7  C3A      -22.1810    3.3510   -5.4370 C.2   3001  PQQ3001     0.0711
      8  C1A      -23.5500    3.2730   -4.9180 C.2   3001  PQQ3001     0.1232
      9  C4       -21.2530    4.3860   -4.8630 C.2   3001  PQQ3001     0.2387
     10  O4       -20.0800    4.5060   -5.2580 O.2   3001  PQQ3001    -0.2830
     11  C5       -21.7340    5.2800   -3.7840 C.2   3001  PQQ3001     0.2601
     12  O5       -20.9790    6.1420   -3.2570 O.2   3001  PQQ3001    -0.2807
     13  C6A      -23.1400    5.1230   -3.3260 C.2   3001  PQQ3001     0.1617
     14  N6       -23.5850    5.9410   -2.3610 N.2   3001  PQQ3001    -0.3954
     15  C7       -24.8470    5.8750   -1.8850 C.2   3001  PQQ3001     0.2103
     16  C7X      -25.2140    6.8140   -0.7840 C.2   3001  PQQ3001     0.4168
     17  O7A      -24.4280    7.7260   -0.4690 O.co2 3001  PQQ3001    -0.2377
     18  O7B      -26.2790    6.6080   -0.1620 O.co2 3001  PQQ3001    -0.2377
     19  C8       -25.7820    4.9620   -2.3620 C.2   3001  PQQ3001     0.0420
     20  C9       -25.4430    4.0660   -3.3680 C.2   3001  PQQ3001     0.0734
     21  C9X      -26.5030    3.1310   -3.8220 C.2   3001  PQQ3001     0.3847
     22  O9A      -27.6620    3.5560   -3.9260 O.co2 3001  PQQ3001    -0.2409
     23  O9B      -26.2410    1.9680   -4.1040 O.co2 3001  PQQ3001    -0.2409
     24  C9A      -24.0530    4.0970   -3.9150 C.3   3001  PQQ3001     0.1366
@<TRIPOS>BOND
     1     5     3   ar
     2     3     4   ar
     3     3     2    1
     4     2     6    1
     5     2     1    2
     6     6     7    2
     7     1     8    2
     8     7     8    1
     9     7     9    1
    10    10     9    2
    11     8    24    1
    12     9    11    1
    13    23    21   ar
    14    22    21   ar
    15    24    20    1
    16    24    13    1
    17    21    20    1
    18    11    13    1
    19    11    12    2
    20    20    19    2
    21    13    14    2
    22    19    15    1
    23    14    15    2
    24    15    16    1
    25    16    17   ar
    26    16    18   ar
