@<TRIPOS>MOLECULE
3a9h_TRE_A_1.pdb
 23 24 0 0 0
SMALL
GASTEIGER

@<TRIPOS>ATOM
      1  C1         1.2140    8.3840    0.4890 C.3   2001  TRE2001     0.2713
      2  C2         2.0300    9.5940    0.9840 C.3   2001  TRE2001     0.2406
      3  C3         3.1670    9.0880    1.8750 C.3   2001  TRE2001     0.2198
      4  C4         2.6240    8.2830    3.0420 C.3   2001  TRE2001     0.2144
      5  C5         1.6160    7.2180    2.6020 C.3   2001  TRE2001     0.1835
      6  C6         0.8370    6.6490    3.7800 C.3   2001  TRE2001     0.2142
      7  O1         2.0250    7.4850   -0.2520 O.3   2001  TRE2001    -0.3016
      8  O2         2.5050   10.4120   -0.1100 O.3   2001  TRE2001    -0.2149
      9  O3         3.9730   10.1480    2.3930 O.3   2001  TRE2001    -0.2174
     10  O4         3.7490    7.6230    3.6320 O.3   2001  TRE2001    -0.2176
     11  O5         0.6780    7.6510    1.5950 O.3   2001  TRE2001    -0.3256
     12  O6         0.3990    5.3390    3.4010 O.3   2001  TRE2001    -0.2176
     13  C1P        1.3120    6.4870   -0.9730 C.3   2001  TRE2001     0.2713
     14  C2P        2.3260    5.3960   -1.3790 C.3   2001  TRE2001     0.2406
     15  C3P        3.2470    5.8820   -2.5000 C.3   2001  TRE2001     0.2198
     16  C4P        2.4340    6.4460   -3.6550 C.3   2001  TRE2001     0.2144
     17  C5P        1.5080    7.5790   -3.1790 C.3   2001  TRE2001     0.1835
     18  C6P        0.6330    8.1480   -4.3100 C.3   2001  TRE2001     0.2142
     19  O2P        3.1020    4.9810   -0.2340 O.3   2001  TRE2001    -0.2149
     20  O3P        4.0560    4.8290   -3.0160 O.3   2001  TRE2001    -0.2174
     21  O4P        3.3520    6.9020   -4.6480 O.3   2001  TRE2001    -0.2176
     22  O5P        0.6670    7.1160   -2.0950 O.3   2001  TRE2001    -0.3256
     23  O6P       -0.4640    7.2590   -4.6040 O.3   2001  TRE2001    -0.2176
@<TRIPOS>BOND
     1    21    16    1
     2    23    18    1
     3    18    17    1
     4    16    17    1
     5    16    15    1
     6    17    22    1
     7    20    15    1
     8    15    14    1
     9    22    13    1
    10    14    13    1
    11    14    19    1
    12    13     7    1
    13     7     1    1
    14     8     2    1
    15     1     2    1
    16     1    11    1
    17     2     3    1
    18    11     5    1
    19     3     9    1
    20     3     4    1
    21     5     4    1
    22     5     6    1
    23     4    10    1
    24    12     6    1
