@<TRIPOS>MOLECULE
3a9i_LYS_A_1.pdb
 10 9 0 0 0
SMALL
GASTEIGER

@<TRIPOS>ATOM
      1  N         24.4720   17.8700    1.6860 N.3   378  LYS378     -0.1208
      2  CA        25.8430   18.4940    1.5890 C.3   378  LYS378      0.1943
      3  C         26.5720   17.8450    0.4150 C.2   378  LYS378      0.3819
      4  O         26.1970   16.7640   -0.0490 O.co2 378  LYS378     -0.2441
      5  CB        26.6050   18.2300    2.8790 C.3   378  LYS378      0.0307
      6  CG        27.9560   18.9190    3.0110 C.3   378  LYS378      0.0036
      7  CD        28.6080   18.4330    4.3100 C.3   378  LYS378      0.0206
      8  CE        29.8120   19.2760    4.6620 C.3   378  LYS378      0.1093
      9  NZ        30.2730   18.9510    6.0650 N.3   378  LYS378     -0.1314
     10  OXT       27.5510   18.4080   -0.0920 O.co2 378  LYS378     -0.2441
@<TRIPOS>BOND
     1    10     3   ar
     2     4     3   ar
     3     3     2    1
     4     2     1    1
     5     2     5    1
     6     5     6    1
     7     6     7    1
     8     7     8    1
     9     8     9    1
