@<TRIPOS>MOLECULE
3a9m_HEM_A_1.pdb
 43 50 0 0 0
SMALL
GASTEIGER

@<TRIPOS>ATOM
      1  CHA       34.1540   43.3610    1.4240 C.2   153  HEM153      0.0000
      2  CHB       32.1880   39.0880    2.7250 C.2   153  HEM153      0.0000
      3  CHC       35.2380   38.7840    6.4910 C.2   153  HEM153      0.0000
      4  CHD       36.9840   43.2030    5.4340 C.2   153  HEM153      0.0000
      5  C1A       33.3090   42.2350    1.4100 C.ar  153  HEM153      0.0000
      6  C2A       32.1850   41.9190    0.4940 C.ar  153  HEM153      0.0000
      7  C3A       31.6550   40.7370    0.8750 C.ar  153  HEM153      0.0000
      8  C4A       32.4150   40.2610    2.0320 C.ar  153  HEM153      0.0000
      9  CMA       30.4790   39.9690    0.2230 C.3   153  HEM153      0.0000
     10  CAA       31.6490   42.8070   -0.6840 C.3   153  HEM153      0.0000
     11  CBA       32.4980   42.7710   -1.9330 C.3   153  HEM153      0.0000
     12  CGA       33.9000   43.0650   -1.4990 C.2   153  HEM153      0.0000
     13  O1A       34.6030   42.0660   -1.1750 O.co2 153  HEM153      0.0000
     14  O2A       34.3030   44.2730   -1.4620 O.co2 153  HEM153      0.0000
     15  C1B       32.8390   38.6080    3.8310 C.2   153  HEM153      0.0000
     16  C2B       32.6280   37.3320    4.5000 C.2   153  HEM153      0.0000
     17  C3B       33.4950   37.2290    5.5140 C.2   153  HEM153      0.0000
     18  C4B       34.2810   38.4500    5.5680 C.2   153  HEM153      0.0000
     19  CMB       31.6160   36.2760    4.0200 C.3   153  HEM153      0.0000
     20  CAB       33.6550   36.0680    6.5140 C.2   153  HEM153      0.0000
     21  CBB       34.8960   35.6040    6.7190 C.2   153  HEM153      0.0000
     22  C1C       35.8590   40.0190    6.6420 C.ar  153  HEM153      0.0000
     23  C2C       36.5870   40.5080    7.8150 C.ar  153  HEM153      0.0000
     24  C3C       37.0820   41.7430    7.5250 C.ar  153  HEM153      0.0000
     25  C4C       36.6700   42.0720    6.1760 C.ar  153  HEM153      0.0000
     26  CMC       36.7510   39.7510    9.1440 C.3   153  HEM153      0.0000
     27  CAC       37.9220   42.6350    8.4880 C.3   153  HEM153      0.0000
     28  CBC       38.7040   42.3860   10.0450 C.3   153  HEM153      0.0000
     29  C1D       36.3770   43.6840    4.3080 C.2   153  HEM153      0.0000
     30  C2D       36.4280   45.0750    3.8690 C.2   153  HEM153      0.0000
     31  C3D       35.5390   45.1800    2.6020 C.2   153  HEM153      0.0000
     32  C4D       35.0290   43.8090    2.4160 C.2   153  HEM153      0.0000
     33  CMD       37.2400   46.1830    4.5740 C.3   153  HEM153      0.0000
     34  CAD       35.2180   46.5010    1.7940 C.3   153  HEM153      0.0000
     35  CBD       34.4340   47.4340    2.7910 C.3   153  HEM153      0.0000
     36  CGD       33.5350   48.5960    2.3260 C.2   153  HEM153      0.0000
     37  O1D       32.2770   48.4720    2.1530 O.co2 153  HEM153      0.0000
     38  O2D       34.0470   49.7420    2.1730 O.co2 153  HEM153      0.0000
     39  NA        33.3990   41.1960    2.3310 N.ar  153  HEM153      0.0000
     40  NB        33.8530   39.2250    4.5140 N.2   153  HEM153      0.0000
     41  NC        35.9280   41.0050    5.6900 N.ar  153  HEM153      0.0000
     42  ND        35.5490   42.9850    3.4400 N.2   153  HEM153      0.0000
     43 FE         34.5940   41.1310    4.0940 Fe    153  HEM153      0.0000
@<TRIPOS>BOND
     1    11    12    1
     2    11    10    1
     3    12    14   ar
     4    12    13   ar
     5    10     6    1
     6     9     7    1
     7     6     7   ar
     8     6     5   ar
     9     7     8   ar
    10     5     1    2
    11     5    39   ar
    12     1    32    1
    13    34    31    1
    14    34    35    1
    15     8    39   ar
    16     8     2    2
    17    37    36   ar
    18    38    36   ar
    19    36    35    1
    20    39    43    1
    21    32    31    1
    22    32    42    2
    23    31    30    2
    24     2    15    1
    25    42    43    1
    26    42    29    1
    27    15    16    1
    28    15    40    2
    29    30    29    1
    30    30    33    1
    31    19    16    1
    32    43    40    1
    33    43    41    1
    34    29     4    2
    35    16    17    2
    36    40    18    1
    37     4    25    1
    38    17    18    1
    39    17    20    1
    40    18     3    2
    41    41    25   ar
    42    41    22   ar
    43    25    24   ar
    44     3    22    1
    45    20    21    2
    46    22    23   ar
    47    24    23   ar
    48    24    27    1
    49    23    26    1
    50    27    28    1
