@<TRIPOS>MOLECULE
3a9t_FOC_A_1.pdb
 11 10 0 0 0
SMALL
GASTEIGER

@<TRIPOS>ATOM
      1  C1        10.4540   14.3220  -16.8270 C.3   601  FOC601      0.2175
      2  O1         9.6480   15.0660  -15.9310 O.3   601  FOC601     -0.2175
      3  C2        10.4810   14.9590  -18.2070 C.3   601  FOC601      0.2175
      4  O2        10.5770   16.3740  -18.0920 O.3   601  FOC601     -0.2175
      5  C3        11.6390   14.4280  -19.0450 C.3   601  FOC601      0.2174
      6  O3        12.8590   14.8730  -18.4810 O.3   601  FOC601     -0.2175
      7  C4        11.5440   14.9030  -20.4880 C.3   601  FOC601      0.2148
      8  O4        10.2240   14.7170  -20.9750 O.3   601  FOC601     -0.2176
      9  C5        12.5340   14.1350  -21.3620 C.3   601  FOC601      0.1849
     10  O5        12.3160   12.7340  -21.2390 O.3   601  FOC601     -0.2203
     11  C6        12.4370   14.5440  -22.8280 C.3   601  FOC601      0.0383
@<TRIPOS>BOND
     1    11     9    1
     2     9    10    1
     3     9     7    1
     4     8     7    1
     5     7     5    1
     6     5     6    1
     7     5     3    1
     8     3     4    1
     9     3     1    1
    10     1     2    1
