@<TRIPOS>MOLECULE
3a9v_AMP_A_1.pdb
 23 25 0 0 0
SMALL
GASTEIGER

@<TRIPOS>ATOM
      1  P        -22.2020   -9.7070   14.7700 P.3   551  AMP551      0.5327
      2  O1P      -21.1160  -10.0890   13.8240 O.2   551  AMP551     -0.2224
      3  O2P      -22.2660  -10.6960   16.0210 O.3   551  AMP551     -0.1145
      4  O3P      -22.2240   -8.3280   15.2880 O.3   551  AMP551     -0.1145
      5  O5'      -23.5960   -9.9950   14.1190 O.3   551  AMP551     -0.2675
      6  C5'      -24.0210   -9.2320   12.9780 C.3   551  AMP551      0.1860
      7  C4'      -25.2310   -9.8200   12.3440 C.3   551  AMP551      0.1823
      8  O4'      -26.3530   -9.4330   13.1740 O.3   551  AMP551     -0.3135
      9  C3'      -25.5540   -9.2670   10.9820 C.3   551  AMP551      0.2184
     10  O3'      -24.8190  -10.0200   10.0170 O.3   551  AMP551     -0.2174
     11  C2'      -27.0370   -9.4490   10.9600 C.3   551  AMP551      0.2570
     12  O2'      -27.4390  -10.7750   10.6560 O.3   551  AMP551     -0.2130
     13  C1'      -27.4950   -9.0980   12.3660 C.3   551  AMP551      0.3186
     14  N9       -27.8260   -7.6520   12.5250 N.pl3 551  AMP551     -0.1439
     15  C8       -27.0520   -6.6120   12.9900 C.3   551  AMP551      0.3377
     16  N7       -27.6410   -5.4530   13.0070 N.2   551  AMP551     -0.2095
     17  C5       -28.9010   -5.7470   12.5160 C.2   551  AMP551      0.2526
     18  C6       -30.0600   -4.9450   12.2680 C.2   551  AMP551      0.4393
     19  N6       -30.0600   -3.6410   12.5150 N.pl3 551  AMP551      0.2180
     20  N1       -31.1740   -5.5440   11.7690 N.2   551  AMP551      0.0021
     21  C2       -31.1620   -6.8570   11.5230 C.3   551  AMP551      0.5254
     22  N3       -30.1530   -7.7220   11.7070 N.2   551  AMP551     -0.0055
     23  C4       -29.0290   -7.0840   12.2170 C.2   551  AMP551      0.3518
@<TRIPOS>BOND
     1    10     9    1
     2    12    11    1
     3    11     9    1
     4    11    13    1
     5     9     7    1
     6    21    22    1
     7    21    20    1
     8    22    23    2
     9    20    18    2
    10    23    17    1
    11    23    14    1
    12    18    19    1
    13    18    17    1
    14     7     6    1
    15     7     8    1
    16    13    14    1
    17    13     8    1
    18    17    16    2
    19    14    15    1
    20     6     5    1
    21    15    16    1
    22     2     1    2
    23     5     1    1
    24     1     4    1
    25     1     3    1
