@<TRIPOS>MOLECULE
3a9w_NAD_A_1.pdb
 44 48 0 0 0
SMALL
GASTEIGER

@<TRIPOS>ATOM
      1  PA         9.1360   32.0440   28.0590 P.3   3001  NAD3001     0.2189
      2  O1A       10.5380   31.8410   28.4150 O.2   3001  NAD3001    -0.5170
      3  O2A        8.1290   32.0200   29.2040 O.3   3001  NAD3001    -0.4371
      4  O5B        9.0570   33.4120   27.2280 O.3   3001  NAD3001    -0.3112
      5  C5B        7.8110   33.9070   26.8010 C.3   3001  NAD3001     0.1813
      6  C4B        7.9780   35.3490   26.3030 C.3   3001  NAD3001     0.1821
      7  O4B        6.6580   35.7790   26.0130 O.3   3001  NAD3001    -0.3135
      8  C3B        8.5190   36.2780   27.4080 C.3   3001  NAD3001     0.2184
      9  O3B        9.7300   36.9240   27.0240 O.3   3001  NAD3001    -0.2174
     10  C2B        7.3510   37.2200   27.6670 C.3   3001  NAD3001     0.2570
     11  O2B        7.6860   38.5210   28.0970 O.3   3001  NAD3001    -0.2130
     12  C1B        6.6600   37.1570   26.3360 C.3   3001  NAD3001     0.3186
     13  N9A        5.2800   37.7000   26.2650 N.pl3 3001  NAD3001    -0.1439
     14  C8A        4.2450   37.4960   27.1490 C.3   3001  NAD3001     0.3377
     15  N7A        3.1690   38.1730   26.7300 N.2   3001  NAD3001    -0.2095
     16  C5A        3.4830   38.8200   25.5900 C.2   3001  NAD3001     0.2526
     17  C6A        2.7680   39.6560   24.7190 C.2   3001  NAD3001     0.4393
     18  N6A        1.5030   39.9750   24.9710 N.pl3 3001  NAD3001     0.2180
     19  N1A        3.4010   40.1690   23.5870 N.2   3001  NAD3001     0.0021
     20  C2A        4.7300   39.8460   23.3140 C.3   3001  NAD3001     0.5254
     21  N3A        5.4470   39.0210   24.1690 N.2   3001  NAD3001    -0.0055
     22  C4A        4.8190   38.5160   25.2770 C.2   3001  NAD3001     0.3518
     23  O3         8.6630   30.9540   26.9680 O.3   3001  NAD3001    -0.2703
     24  PN         9.5950   30.0760   25.9960 P.3   3001  NAD3001     0.2189
     25  O1N       10.6880   30.8920   25.4340 O.2   3001  NAD3001    -0.5170
     26  O2N        9.9460   28.8750   26.7890 O.3   3001  NAD3001    -0.4371
     27  O5D        8.5820   29.5960   24.8660 O.3   3001  NAD3001    -0.3112
     28  C5D        8.0990   30.4820   23.9020 C.3   3001  NAD3001     0.1813
     29  C4D        7.1470   29.7450   22.9580 C.3   3001  NAD3001     0.1799
     30  O4D        7.5310   28.3600   22.8280 O.3   3001  NAD3001    -0.3327
     31  C3D        5.7230   29.7430   23.4740 C.3   3001  NAD3001     0.2158
     32  O3D        4.7990   29.9530   22.4160 O.3   3001  NAD3001    -0.2175
     33  C2D        5.5980   28.3950   24.1330 C.3   3001  NAD3001     0.2309
     34  O2D        4.2800   27.9640   24.3200 O.3   3001  NAD3001    -0.2158
     35  C1D        6.4490   27.5310   23.2130 C.3   3001  NAD3001     0.2263
     36  N1N        6.9180   26.2650   23.8620 N.pl3 3001  NAD3001    -0.2787
     37  C2N        8.0050   26.3100   24.7360 C.3   3001  NAD3001     0.1244
     38  C3N        8.4320   25.1230   25.3730 C.2   3001  NAD3001     0.0544
     39  C7N        9.5970   25.1520   26.3160 C.2   3001  NAD3001     0.2818
     40  O7N        9.9580   23.9750   26.9090 O.2   3001  NAD3001    -0.2670
     41  N7N       10.2830   26.2380   26.6050 N.am  3001  NAD3001    -0.0839
     42  C4N        7.7410   23.9120   25.1020 C.2   3001  NAD3001     0.0033
     43  C5N        6.6510   23.8900   24.2170 C.2   3001  NAD3001     0.0157
     44  C6N        6.2460   25.0780   23.6000 C.2   3001  NAD3001     0.0633
@<TRIPOS>BOND
     1    32    31    1
     2    30    29    1
     3    30    35    1
     4    29    31    1
     5    29    28    1
     6    35    36    1
     7    35    33    1
     8    20    19    1
     9    20    21    1
    10    31    33    1
    11    19    17    2
    12    44    36    1
    13    44    43    2
    14    36    37    1
    15    28    27    1
    16    33    34    1
    17    21    22    2
    18    43    42    1
    19    17    18    1
    20    17    16    1
    21    37    38    1
    22    27    24    1
    23    42    38    2
    24    22    16    1
    25    22    13    1
    26    38    39    1
    27    25    24    2
    28    16    15    2
    29    24    26    1
    30    24    23    1
    31     7     6    1
    32     7    12    1
    33    13    12    1
    34    13    14    1
    35     6     5    1
    36     6     8    1
    37    39    41   am
    38    39    40    2
    39    12    10    1
    40    15    14    1
    41     5     4    1
    42    23     1    1
    43     9     8    1
    44     4     1    1
    45     8    10    1
    46    10    11    1
    47     1     2    2
    48     1     3    1
