@<TRIPOS>MOLECULE
3a9x_PLP_A_1.pdb
 15 15 0 0 0
SMALL
GASTEIGER

@<TRIPOS>ATOM
      1  N1        10.4350   14.7790   62.7460 N.ar  501  PLP501     -0.2452
      2  C2        11.1290   16.0110   62.7230 C.ar  501  PLP501      0.0978
      3  C2A       10.5030   17.2290   61.8930 C.3   501  PLP501      0.0555
      4  C3        12.2840   16.1170   63.4670 C.ar  501  PLP501      0.2049
      5  O3        13.0210   17.2650   63.4570 O.3   501  PLP501     -0.2857
      6  C4        12.7750   15.0200   64.2510 C.ar  501  PLP501      0.0182
      7  C4A       14.0400   15.1880   65.1240 C.3   501  PLP501      0.0342
      8  C5        12.0480   13.8270   64.2580 C.ar  501  PLP501      0.0261
      9  C6        10.9110   13.7450   63.5080 C.ar  501  PLP501      0.0965
     10  C5A       12.4810   12.5490   65.0920 C.3   501  PLP501      0.1815
     11  O4P       13.7190   11.8850   64.7700 O.3   501  PLP501     -0.2653
     12  P         14.4440   10.9790   65.9060 P.3   501  PLP501      0.5329
     13  O1P       14.5040   11.8520   67.0450 O.3   501  PLP501     -0.1145
     14  O2P       13.5650    9.8550   66.1130 O.3   501  PLP501     -0.1145
     15  O3P       15.7870   10.6130   65.4560 O.2   501  PLP501     -0.2224
@<TRIPOS>BOND
     1     3     2    1
     2     2     1   ar
     3     2     4   ar
     4     1     9   ar
     5     5     4    1
     6     4     6   ar
     7     9     8   ar
     8     6     8   ar
     9     6     7    1
    10     8    10    1
    11    11    10    1
    12    11    12    1
    13    15    12    2
    14    12    14    1
    15    12    13    1
