@<TRIPOS>MOLECULE
3a9y_PLP_A_1.pdb
 15 15 0 0 0
SMALL
GASTEIGER

@<TRIPOS>ATOM
      1  N1        10.7300  -11.8980   77.8570 N.ar  501  PLP501     -0.2452
      2  C2        10.9020  -12.3030   79.1620 C.ar  501  PLP501      0.0978
      3  C2A       10.8930  -13.7880   79.4860 C.3   501  PLP501      0.0555
      4  C3        11.0820  -11.3470   80.1710 C.ar  501  PLP501      0.2049
      5  O3        11.2480  -11.7580   81.4790 O.3   501  PLP501     -0.2857
      6  C4        11.0850   -9.9640   79.8200 C.ar  501  PLP501      0.0182
      7  C4A       11.2960   -8.8750   80.8860 C.3   501  PLP501      0.0342
      8  C5        10.9030   -9.5890   78.4670 C.ar  501  PLP501      0.0261
      9  C6        10.7270  -10.5660   77.5080 C.ar  501  PLP501      0.0965
     10  C5A       10.8990   -8.1250   78.0440 C.3   501  PLP501      0.1815
     11  O4P        9.9780   -7.2270   78.6440 O.3   501  PLP501     -0.2653
     12  P          9.9190   -5.7910   78.7450 P.3   501  PLP501      0.5329
     13  O1P        9.8820   -5.1470   77.2660 O.2   501  PLP501     -0.2224
     14  O2P       11.1960   -5.2490   79.5280 O.3   501  PLP501     -0.1145
     15  O3P        8.6000   -5.3750   79.5280 O.3   501  PLP501     -0.1145
@<TRIPOS>BOND
     1    13    12    2
     2     9     1   ar
     3     9     8   ar
     4     1     2   ar
     5    10     8    1
     6    10    11    1
     7     8     6   ar
     8    11    12    1
     9    12    14    1
    10    12    15    1
    11     2     3    1
    12     2     4   ar
    13     6     4   ar
    14     6     7    1
    15     4     5    1
