@<TRIPOS>MOLECULE
3a9z_PLP_A_1.pdb
 15 15 0 0 0
SMALL
GASTEIGER

@<TRIPOS>ATOM
      1  N1        10.7960   62.3900   20.4730 N.ar  501  PLP501     -0.2452
      2  C2        10.8990   62.8120   19.1910 C.ar  501  PLP501      0.0978
      3  C2A       10.8320   64.3310   18.9490 C.3   501  PLP501      0.0555
      4  C3        11.0570   61.8740   18.1570 C.ar  501  PLP501      0.2049
      5  O3        11.1500   62.3250   16.8980 O.3   501  PLP501     -0.2857
      6  C4        11.1040   60.5140   18.4750 C.ar  501  PLP501      0.0182
      7  C4A       11.3040   59.4230   17.4290 C.3   501  PLP501      0.0342
      8  C5        10.9550   60.1330   19.8030 C.ar  501  PLP501      0.0261
      9  C6        10.8050   61.1050   20.7930 C.ar  501  PLP501      0.0965
     10  C5A       10.9400   58.6940   20.2230 C.3   501  PLP501      0.1815
     11  O4P        9.9490   57.8890   19.6800 O.3   501  PLP501     -0.2653
     12  P          9.9560   56.3600   19.6370 P.3   501  PLP501      0.5329
     13  O1P        9.9810   55.7920   21.2050 O.3   501  PLP501     -0.1145
     14  O2P       11.2630   55.8860   18.9020 O.3   501  PLP501     -0.1145
     15  O3P        8.6550   55.8370   18.8690 O.2   501  PLP501     -0.2224
@<TRIPOS>BOND
     1     5     4    1
     2     7     6    1
     3     4     6   ar
     4     4     2   ar
     5     6     8   ar
     6    15    12    2
     7    14    12    1
     8     3     2    1
     9     2     1   ar
    10    12    11    1
    11    12    13    1
    12    11    10    1
    13     8    10    1
    14     8     9   ar
    15     1     9   ar
