@<TRIPOS>MOLECULE
3aaq_ARU_A_1.pdb
 37 39 0 0 0
SMALL
GASTEIGER

@<TRIPOS>ATOM
      1  N1        35.3140   25.8890   32.6230 N.2     1  ARU1       -0.0056
      2  C2        34.0220   25.7170   32.6470 C.3     1  ARU1        0.5252
      3  N3        33.1840   26.6220   32.2680 N.2     1  ARU1       -0.0055
      4  C4        33.6440   27.7830   31.8360 C.2     1  ARU1        0.3515
      5  C5        34.9900   28.0300   31.8010 C.2     1  ARU1        0.2442
      6  C6        35.8430   27.0340   32.2190 C.2     1  ARU1        0.3483
      7  N6        37.1500   27.1810   32.2020 N.pl3   1  ARU1       -0.1891
      8  N7        35.1490   29.2470   31.3380 N.2     1  ARU1       -0.2098
      9  C8        33.9480   29.7430   31.1090 C.3     1  ARU1        0.3377
     10  N9        33.0320   28.8490   31.4130 N.pl3   1  ARU1       -0.1439
     11  C1'       31.6010   28.9560   31.2930 C.3     1  ARU1        0.3186
     12  C2'       30.9810   30.3220   31.4030 C.3     1  ARU1        0.2570
     13  O2'       30.8570   30.7030   32.7310 O.3     1  ARU1       -0.2130
     14  C3'       29.6330   30.1110   30.7420 C.3     1  ARU1        0.2184
     15  O3'       28.6010   29.8920   31.6860 O.3     1  ARU1       -0.2174
     16  C4'       29.8520   28.8270   29.9770 C.3     1  ARU1        0.1821
     17  O4'       31.2570   28.6560   29.9660 O.3     1  ARU1       -0.3135
     18  C5'       29.2850   29.1790   28.6680 C.3     1  ARU1        0.1813
     19  O5'       30.2360   29.8450   28.0060 O.3     1  ARU1       -0.3111
     20  CAA       37.7680   28.7510   30.4740 C.3     1  ARU1        0.0551
     21  CAB       37.7410   28.4930   31.9600 C.3     1  ARU1        0.2025
     22  CAD       38.0140   26.0220   32.3780 C.3     1  ARU1        0.2025
     23  CAE       39.3240   26.4220   33.0400 C.3     1  ARU1        0.0551
     24  OAF       27.4530   35.8250   25.7750 O.2     1  ARU1       -0.4579
     25 BRAG       27.7700   33.7750   29.5010 Br      1  ARU1       -0.0507
     26  OAH       28.0770   32.8980   25.4370 O.2     1  ARU1       -0.2530
     27  OAI       31.0640   31.5270   26.5360 O.3     1  ARU1       -0.4371
     28  OAJ       27.7730   36.8310   27.8070 O.3     1  ARU1       -0.3557
     29  PAK       27.2550   35.7550   27.1390 P.3     1  ARU1        0.1475
     30  CAL       28.1780   34.2130   27.7110 C.3     1  ARU1        0.2351
     31  PAM       27.7120   32.6580   26.7770 P.3     1  ARU1        0.3988
     32  OAN       28.5940   31.6460   27.5230 O.3     1  ARU1       -0.2472
     33  PAO       29.8700   30.8620   26.9250 P.3     1  ARU1        0.2209
     34  OAV       25.9190   35.4960   27.4740 O.3     1  ARU1       -0.3557
     35 BRAW       30.0770   34.6190   27.5150 Br      1  ARU1       -0.0507
     36  OAX       26.3620   32.3520   26.9140 O.3     1  ARU1       -0.1377
     37  OAY       29.2110   29.9860   25.8300 O.2     1  ARU1       -0.5170
@<TRIPOS>BOND
     1    26    31    2
     2    24    29    2
     3    37    33    2
     4    27    33    1
     5    31    36    1
     6    31    32    1
     7    31    30    1
     8    33    32    1
     9    33    19    1
    10    29    34    1
    11    29    30    1
    12    29    28    1
    13    35    30    1
    14    30    25    1
    15    19    18    1
    16    18    16    1
    17    17    16    1
    18    17    11    1
    19    16    14    1
    20    20    21    1
    21    14    12    1
    22    14    15    1
    23     9     8    1
    24     9    10    1
    25    11    12    1
    26    11    10    1
    27     8     5    2
    28    12    13    1
    29    10     4    1
    30     5     4    1
    31     5     6    1
    32     4     3    2
    33    21     7    1
    34     7     6    1
    35     7    22    1
    36     6     1    2
    37     3     2    1
    38    22    23    1
    39     1     2    1
