@<TRIPOS>MOLECULE
3aar_ANP_A_1.pdb
 31 33 0 0 0
SMALL
GASTEIGER

@<TRIPOS>ATOM
      1  PG        30.4500   37.7760   28.8000 P.3     1  ANP1        0.4884
      2  O1G       29.4670   37.2780   29.7560 O.3     1  ANP1       -0.1240
      3  O2G       30.4060   39.4100   28.7130 O.3     1  ANP1       -0.1240
      4  O3G       30.1180   37.2740   27.3400 O.2     1  ANP1       -0.2331
      5  PB        33.1170   36.7070   28.3130 P.3     1  ANP1        0.4669
      6  O1B       34.4160   36.7320   28.8800 O.3     1  ANP1       -0.1253
      7  O2B       33.0010   37.1220   26.8990 O.2     1  ANP1       -0.2351
      8  N3B       31.9190   37.1670   29.3010 N.3     1  ANP1       -0.0163
      9  PA        32.7690   34.2060   26.9560 P.3     1  ANP1        0.2220
     10  O1A       33.9730   34.2740   26.1980 O.3     1  ANP1       -0.4370
     11  O2A       31.4820   34.3730   26.1970 O.2     1  ANP1       -0.5170
     12  O3A       32.7130   35.0860   28.2370 O.3     1  ANP1       -0.2360
     13  O5'       32.5390   32.6910   27.5230 O.3     1  ANP1       -0.3111
     14  C5'       31.2640   32.1350   27.8860 C.3     1  ANP1        0.1813
     15  C4'       31.2510   31.6780   29.3550 C.3     1  ANP1        0.1821
     16  O4'       32.4010   30.7920   29.7100 O.3     1  ANP1       -0.3135
     17  C3'       31.3950   32.8780   30.3180 C.3     1  ANP1        0.2184
     18  O3'       30.4710   32.6790   31.3450 O.3     1  ANP1       -0.2174
     19  C2'       32.8140   32.7510   30.9090 C.3     1  ANP1        0.2570
     20  O2'       32.7920   33.1330   32.2470 O.3     1  ANP1       -0.2130
     21  C1'       33.0220   31.2460   30.9030 C.3     1  ANP1        0.3186
     22  N9        34.3720   30.6720   31.3000 N.pl3   1  ANP1       -0.1439
     23  C8        35.5580   31.2810   31.3760 C.3     1  ANP1        0.3377
     24  N7        36.4940   30.4380   31.7940 N.2     1  ANP1       -0.2095
     25  C5        35.9020   29.2660   32.0190 C.2     1  ANP1        0.2526
     26  C6        36.3370   28.0090   32.4710 C.2     1  ANP1        0.4393
     27  N6        37.6060   27.7820   32.7880 N.pl3   1  ANP1        0.2180
     28  N1        35.4290   27.0470   32.5640 N.2     1  ANP1        0.0021
     29  C2        34.1570   27.2340   32.2510 C.3     1  ANP1        0.5254
     30  N3        33.7200   28.3950   31.8510 N.2     1  ANP1       -0.0055
     31  C4        34.5530   29.4220   31.7230 C.2     1  ANP1        0.3518
@<TRIPOS>BOND
     1    11     9    2
     2    10     9    1
     3     7     5    2
     4     9    13    1
     5     9    12    1
     6     4     1    2
     7    13    14    1
     8    14    15    1
     9    12     5    1
    10     5     6    1
    11     5     8    1
    12     3     1    1
    13     1     8    1
    14     1     2    1
    15    15    16    1
    16    15    17    1
    17    16    21    1
    18    17    19    1
    19    17    18    1
    20    21    19    1
    21    21    22    1
    22    19    20    1
    23    22    23    1
    24    22    31    1
    25    23    24    1
    26    31    30    2
    27    31    25    1
    28    24    25    2
    29    30    29    1
    30    25    26    1
    31    29    28    1
    32    26    28    2
    33    26    27    1
