@<TRIPOS>MOLECULE
3aas_GUS_A_1.pdb
 18 18 0 0 0
SMALL
GASTEIGER

@<TRIPOS>ATOM
      1  C         -0.5740   18.8000   21.2800 C.2   1001  GUS1001     0.3866
      2  N         -1.1730   16.8280   19.9230 N.2   1001  GUS1001    -0.2593
      3  O         -0.8440   19.9350   21.7300 O.co2 1001  GUS1001    -0.2435
      4  CA        -1.5760   18.1920   20.2970 C.3   1001  GUS1001     0.2057
      5  CB        -2.9600   18.1480   20.9460 C.3   1001  GUS1001     0.0385
      6  NAA       -2.5540   14.2610   14.1580 N.pl3 1001  GUS1001     0.1358
      7  CAB       -2.5980   13.0080   14.5990 C.cat 1001  GUS1001     0.5393
      8  NAC       -2.4520   12.6960   15.8630 N.pl3 1001  GUS1001    -0.0605
      9  CAD       -1.8830   13.1190   16.9890 C.ar  1001  GUS1001     0.1594
     10  CAE       -0.9960   12.3240   17.7080 C.ar  1001  GUS1001     0.0404
     11  CAF       -0.3940   12.8190   18.8590 C.ar  1001  GUS1001     0.0451
     12  NAG       -2.8080   12.0190   13.7330 N.pl3 1001  GUS1001     0.1358
     13  CAH       -2.1650   14.4030   17.4370 C.ar  1001  GUS1001     0.0418
     14  CAI       -1.5660   14.9020   18.5850 C.ar  1001  GUS1001     0.0605
     15  CAJ       -0.6740   14.1070   19.2990 C.ar  1001  GUS1001     0.1973
     16  OAK       -0.0680   14.5850   20.4190 O.3   1001  GUS1001    -0.2865
     17  CAL       -1.8480   16.2090   18.9750 C.2   1001  GUS1001     0.0970
     18  OXT        0.4390   18.1220   21.5590 O.co2 1001  GUS1001    -0.2435
@<TRIPOS>BOND
     1    12     7    1
     2     6     7    1
     3     7     8    2
     4     8     9    1
     5     9    13   ar
     6     9    10   ar
     7    13    14   ar
     8    10    11   ar
     9    14    17    1
    10    14    15   ar
    11    11    15   ar
    12    17     2    2
    13    15    16    1
    14     2     4    1
    15     4     5    1
    16     4     1    1
    17     1    18   ar
    18     1     3   ar
