@<TRIPOS>MOLECULE
3aat_PLP_A_1.pdb
 15 15 0 0 0
SMALL
GASTEIGER

@<TRIPOS>ATOM
      1  N1       129.4770   38.4700   25.2130 N.ar  410  PLP410     -0.2452
      2  C2       129.7860   37.6940   24.2070 C.ar  410  PLP410      0.0978
      3  C2A      128.9340   37.5740   23.0110 C.3   410  PLP410      0.0555
      4  C3       130.9780   36.9790   24.2890 C.ar  410  PLP410      0.2049
      5  O3       131.3150   36.1820   23.3090 O.3   410  PLP410     -0.2857
      6  C4       131.7890   37.1070   25.4100 C.ar  410  PLP410      0.0182
      7  C4A      133.0150   36.3450   25.4160 C.3   410  PLP410      0.0342
      8  C5       131.4130   37.9400   26.4140 C.ar  410  PLP410      0.0261
      9  C6       130.2370   38.6540   26.3040 C.ar  410  PLP410      0.0965
     10  C5A      132.2680   38.1540   27.5860 C.3   410  PLP410      0.1815
     11  O4P      131.8590   38.9290   28.6920 O.3   410  PLP410     -0.2653
     12  P        133.0090   39.1850   29.7240 P.3   410  PLP410      0.5329
     13  O1P      132.6090   39.2690   31.1430 O.3   410  PLP410     -0.1145
     14  O2P      133.7530   40.2290   28.9760 O.2   410  PLP410     -0.2224
     15  O3P      133.8040   37.8130   29.7120 O.3   410  PLP410     -0.1145
@<TRIPOS>BOND
     1     3     2    1
     2     5     4    1
     3     2     4   ar
     4     2     1   ar
     5     4     6   ar
     6     1     9   ar
     7     6     7    1
     8     6     8   ar
     9     9     8   ar
    10     8    10    1
    11    10    11    1
    12    11    12    1
    13    14    12    2
    14    15    12    1
    15    12    13    1
