@<TRIPOS>MOLECULE
3aau_GZC_A_1.pdb
 28 29 0 0 0
SMALL
GASTEIGER

@<TRIPOS>ATOM
      1  NAA       -0.0670   21.6430   29.2130 N.pl3 3001  GZC3001     0.1358
      2  CAB        0.5650   20.5600   28.7720 C.cat 3001  GZC3001     0.5393
      3  NAC        1.3320   20.3610   27.7490 N.pl3 3001  GZC3001    -0.0605
      4  CAD        0.9210   19.6980   26.6710 C.ar  3001  GZC3001     0.1594
      5  CAE        1.1060   18.3200   26.6360 C.ar  3001  GZC3001     0.0404
      6  CAF        0.7560   17.5950   25.5060 C.ar  3001  GZC3001     0.0451
      7  CAG       -0.0950   14.7450   19.4760 C.ar  3001  GZC3001     0.0448
      8  CAH       -0.4160   14.0240   18.3320 C.ar  3001  GZC3001     0.0404
      9  CAI       -1.2890   14.5700   17.3960 C.ar  3001  GZC3001     0.1591
     10  NAJ       -1.6040   13.8400   16.3290 N.pl3 3001  GZC3001    -0.0605
     11  CAK       -2.2460   14.3050   15.2590 C.cat 3001  GZC3001     0.5393
     12  NAL       -2.7650   13.4470   14.3840 N.pl3 3001  GZC3001     0.1358
     13  NAM        0.3850   19.4020   29.3990 N.pl3 3001  GZC3001     0.1358
     14  CAN        0.3710   20.3410   25.5660 C.ar  3001  GZC3001     0.0418
     15  CAO        0.0130   19.6200   24.4350 C.ar  3001  GZC3001     0.0605
     16  CAP        0.2210   18.2480   24.4030 C.ar  3001  GZC3001     0.1973
     17  OAQ       -0.0140   17.5430   23.2670 O.3   3001  GZC3001    -0.2865
     18  OAR       -0.3200   16.6930   20.8150 O.3   3001  GZC3001    -0.2868
     19  CAS       -0.6460   16.0030   19.6890 C.ar  3001  GZC3001     0.1938
     20  CAT       -1.5260   16.5610   18.7650 C.ar  3001  GZC3001     0.0439
     21  CAU       -1.8320   15.8300   17.6220 C.ar  3001  GZC3001     0.0379
     22  NAV       -2.3430   15.6110   15.0300 N.pl3 3001  GZC3001     0.1358
     23  CAW       -0.6570   20.2320   23.3820 C.2   3001  GZC3001     0.0968
     24  NAX       -1.1070   19.9810   22.2900 N.2   3001  GZC3001    -0.2623
     25  CAY       -1.7000   20.7590   21.1910 C.3   3001  GZC3001     0.1717
     26  CAZ       -2.2710   19.8780   20.2810 C.2   3001  GZC3001     0.0936
     27  NBA       -1.5880   18.8410   19.8260 N.2   3001  GZC3001    -0.2665
     28  CBB       -2.2400   17.9060   18.9260 C.3   3001  GZC3001     0.1548
@<TRIPOS>BOND
     1    12    11    1
     2    22    11    1
     3    11    10    2
     4    10     9    1
     5     9    21   ar
     6     9     8   ar
     7    21    20   ar
     8     8     7   ar
     9    20    28    1
    10    20    19   ar
    11    28    27    1
    12     7    19   ar
    13    19    18    1
    14    27    26    2
    15    26    25    1
    16    25    24    1
    17    24    23    2
    18    17    16    1
    19    23    15    1
    20    16    15   ar
    21    16     6   ar
    22    15    14   ar
    23     6     5   ar
    24    14     4   ar
    25     5     4   ar
    26     4     3    1
    27     3     2    2
    28     2     1    1
    29     2    13    1
