@<TRIPOS>MOLECULE
3aav_A2C_A_1.pdb
 26 27 0 0 0
SMALL
GASTEIGER

@<TRIPOS>ATOM
      1  NAA      -17.0910   44.0060    1.2030 N.pl3 1001  A2C1001     0.2047
      2  CAB      -17.6250   42.7870    1.1520 C.2   1001  A2C1001     0.4766
      3  CAC      -17.3710   41.9680    0.0590 C.ar  1001  A2C1001     0.0974
      4  CAD      -16.4330   42.3620   -0.8870 C.ar  1001  A2C1001     0.0113
      5  CAE      -16.1780   41.5530   -1.9910 C.ar  1001  A2C1001     0.0420
      6  CAF      -18.3210   37.3380   -7.9560 C.ar  1001  A2C1001     0.0420
      7  CAG      -19.1130   36.5870   -8.8180 C.ar  1001  A2C1001     0.0113
      8  CAH      -19.1960   35.2090   -8.6460 C.ar  1001  A2C1001     0.0974
      9  CAI      -19.2690   34.5300   -9.7820 C.2   1001  A2C1001     0.4766
     10  NAJ      -19.6320   35.1940  -10.8330 N.pl3 1001  A2C1001     0.2047
     11  NAK      -18.3950   42.3580    2.1480 N.pl3 1001  A2C1001     0.2047
     12  CAL      -18.0580   40.7670   -0.0950 C.ar  1001  A2C1001     0.0083
     13  CAM      -17.8040   39.9640   -1.2000 C.ar  1001  A2C1001     0.0344
     14  CAN      -16.8620   40.3530   -2.1460 C.ar  1001  A2C1001     0.1931
     15  OAO      -16.5920   39.5530   -3.2110 O.3   1001  A2C1001    -0.2869
     16  OAP      -17.7310   37.4170   -5.7700 O.3   1001  A2C1001    -0.2868
     17  CAQ      -17.6240   36.7310   -6.9370 C.ar  1001  A2C1001     0.1936
     18  CAR      -17.6890   35.3370   -6.7610 C.ar  1001  A2C1001     0.0412
     19  CAS      -18.3940   34.6600   -7.6440 C.ar  1001  A2C1001     0.0088
     20  NAT      -18.9010   33.2580   -9.6560 N.pl3 1001  A2C1001     0.2047
     21  CAU      -18.5290   38.7940   -1.3940 C.3   1001  A2C1001     0.1186
     22  NAV      -18.3740   37.9940   -2.4010 N.3   1001  A2C1001    -0.2067
     23  CAW      -17.6060   36.7450   -2.3200 C.3   1001  A2C1001     0.1353
     24  CAX      -17.8580   35.8710   -3.3710 C.2   1001  A2C1001     0.0861
     25  NAY      -16.9980   35.3460   -4.5970 N.2   1001  A2C1001    -0.2671
     26  CAZ      -16.9110   34.5570   -5.7000 C.3   1001  A2C1001     0.1547
@<TRIPOS>BOND
     1    10     9    2
     2     9    20    1
     3     9     8    1
     4     7     8   ar
     5     7     6   ar
     6     8    19   ar
     7     6    17   ar
     8    19    18   ar
     9    17    18   ar
    10    17    16    1
    11    18    26    1
    12    26    25    1
    13    25    24    2
    14    24    23    1
    15    15    14    1
    16    22    23    1
    17    22    21    1
    18    14     5   ar
    19    14    13   ar
    20     5     4   ar
    21    21    13    1
    22    13    12   ar
    23     4     3   ar
    24    12     3   ar
    25     3     2    1
    26     2     1    2
    27     2    11    1
