@<TRIPOS>MOLECULE
3aaw_LYS_A_1.pdb
 10 9 0 0 0
SMALL
GASTEIGER

@<TRIPOS>ATOM
      1  N        -42.9500   21.0930 -106.6610 N.3   601  LYS601     -0.1208
      2  CA       -42.0180   19.9290 -106.6450 C.3   601  LYS601      0.1943
      3  C        -42.6850   18.7250 -107.2800 C.2   601  LYS601      0.3819
      4  O        -43.8290   18.8320 -107.7150 O.co2 601  LYS601     -0.2441
      5  CB       -41.5760   19.5950 -105.2070 C.3   601  LYS601      0.0307
      6  CG       -42.7200   19.2140 -104.2560 C.3   601  LYS601      0.0036
      7  CD       -42.2180   18.8330 -102.8610 C.3   601  LYS601      0.0206
      8  CE       -41.7850   20.0510 -102.0320 C.3   601  LYS601      0.1093
      9  NZ       -42.9070   20.9800 -101.6970 N.3   601  LYS601     -0.1314
     10  OXT      -42.1030   17.6350 -107.3600 O.co2 601  LYS601     -0.2441
@<TRIPOS>BOND
     1     4     3   ar
     2    10     3   ar
     3     3     2    1
     4     1     2    1
     5     2     5    1
     6     5     6    1
     7     6     7    1
     8     7     8    1
     9     8     9    1
