@<TRIPOS>MOLECULE
3ab3_GDP_A_1.pdb
 28 30 0 0 0
SMALL
GASTEIGER

@<TRIPOS>ATOM
      1  PB         2.3420    5.2210   -1.3480 P.3   401  GDP401      0.5373
      2  O1B        3.7680    5.0060   -1.2870 O.3   401  GDP401     -0.1143
      3  O2B        1.7880    5.8950    0.0210 O.3   401  GDP401     -0.1143
      4  O3B        1.7420    5.6710   -2.6640 O.2   401  GDP401     -0.2221
      5  O3A        1.8270    3.7000   -1.2320 O.3   401  GDP401     -0.2261
      6  PA         1.2040    2.8460   -2.4130 P.3   401  GDP401      0.2231
      7  O1A       -0.0540    3.4940   -2.8750 O.3   401  GDP401     -0.4370
      8  O2A        2.2440    2.7440   -3.6220 O.2   401  GDP401     -0.5169
      9  O5'        0.8810    1.3770   -1.8220 O.3   401  GDP401     -0.3111
     10  C5'        2.1360    0.7280   -1.4800 C.3   401  GDP401      0.1813
     11  C4'        1.9380   -0.7920   -1.5290 C.3   401  GDP401      0.1799
     12  O4'        0.9910   -1.2630   -0.5290 O.3   401  GDP401     -0.3326
     13  C3'        1.3760   -1.3320   -2.8430 C.3   401  GDP401      0.2158
     14  O3'        1.8060   -2.4730   -3.5820 O.3   401  GDP401     -0.2175
     15  C2'       -0.1510   -1.2050   -2.5870 C.3   401  GDP401      0.2310
     16  O2'       -0.8490   -2.1560   -3.4000 O.3   401  GDP401     -0.2158
     17  C1'       -0.1950   -1.8050   -1.2140 C.3   401  GDP401      0.2293
     18  N9        -1.3300   -1.4040   -0.4160 N.pl3 401  GDP401     -0.2354
     19  C8        -1.8060   -0.1250   -0.2020 C.3   401  GDP401      0.2246
     20  N7        -2.8270   -0.1650    0.5870 N.2   401  GDP401     -0.2322
     21  C5        -3.0660   -1.4590    0.9290 C.2   401  GDP401      0.2182
     22  C6        -4.0220   -2.1260    1.7600 C.1   401  GDP401      0.2372
     23  O6        -4.8800   -1.4870    2.3660 O.2   401  GDP401     -0.2069
     24  N1        -3.9460   -3.4930    1.8560 N.2   401  GDP401     -0.2485
     25  C2        -2.9680   -4.1900    1.1660 C.1   401  GDP401      0.2531
     26  N2        -2.8990   -5.5510    1.2520 N.pl3 401  GDP401     -0.0226
     27  N3        -2.0940   -3.5690    0.4170 N.2   401  GDP401     -0.3074
     28  C4        -2.1010   -2.2530    0.2740 C.2   401  GDP401      0.2300
@<TRIPOS>BOND
     1     8     6    2
     2    14    13    1
     3    16    15    1
     4     7     6    1
     5    13    15    1
     6    13    11    1
     7     4     1    2
     8    15    17    1
     9     6     9    1
    10     6     5    1
    11     9    10    1
    12    11    10    1
    13    11    12    1
    14     1     2    1
    15     1     5    1
    16     1     3    1
    17    17    12    1
    18    17    18    1
    19    18    19    1
    20    18    28    1
    21    19    20    1
    22    28    27    2
    23    28    21    1
    24    27    25    2
    25    20    21    2
    26    21    22    1
    27    25    26    1
    28    25    24    2
    29    22    24    2
    30    22    23    2
