@<TRIPOS>MOLECULE
3ab4_LYS_A_1.pdb
 10 9 0 0 0
SMALL
GASTEIGER

@<TRIPOS>ATOM
      1  N        -32.7290   36.9440   34.5920 N.3   601  LYS601     -0.1208
      2  CA       -32.6360   35.5920   33.9820 C.3   601  LYS601      0.1943
      3  C        -33.1800   34.5540   34.9510 C.2   601  LYS601      0.3819
      4  O        -33.7850   34.9190   35.9680 O.co2 601  LYS601     -0.2441
      5  CB       -31.1950   35.2820   33.5840 C.3   601  LYS601      0.0307
      6  CG       -30.3530   34.5890   34.6420 C.3   601  LYS601      0.0036
      7  CD       -29.0560   35.2800   34.9440 C.3   601  LYS601      0.0206
      8  CE       -28.1280   35.4260   33.7600 C.3   601  LYS601      0.1093
      9  NZ       -27.3810   36.7230   33.9140 N.3   601  LYS601     -0.1314
     10  OXT      -33.0180   33.3460   34.7220 O.co2 601  LYS601     -0.2441
@<TRIPOS>BOND
     1     5     2    1
     2     5     6    1
     3     8     9    1
     4     8     7    1
     5     2     1    1
     6     2     3    1
     7     6     7    1
     8    10     3   ar
     9     3     4   ar
