@<TRIPOS>MOLECULE
3ab8_ATP_A_1.pdb
 31 33 0 0 0
SMALL
GASTEIGER

@<TRIPOS>ATOM
      1  PG        30.1400   40.3880   11.0200 P.3   510  ATP510      0.5373
      2  O1G       31.0780   39.8150   12.0170 O.3   510  ATP510     -0.1143
      3  O2G       30.9910   41.1190    9.8850 O.2   510  ATP510     -0.2221
      4  O3G       29.2670   39.2270   10.3590 O.3   510  ATP510     -0.1143
      5  PB        27.6430   41.3070   11.7870 P.3   510  ATP510      0.2277
      6  O1B       27.2340   39.8820   11.8670 O.2   510  ATP510     -0.5168
      7  O2B       27.1050   42.0430   13.1010 O.3   510  ATP510     -0.4368
      8  O3B       29.2540   41.5340   11.7690 O.3   510  ATP510     -0.2258
      9  PA        26.5420   41.2890    9.2200 P.3   510  ATP510      0.2189
     10  O1A       27.1640   41.9540    8.0510 O.2   510  ATP510     -0.5170
     11  O2A       26.9500   39.7530    9.2860 O.3   510  ATP510     -0.4371
     12  O3A       26.9450   42.1220   10.5570 O.3   510  ATP510     -0.2700
     13  O5'       24.9230   41.3110    9.1720 O.3   510  ATP510     -0.3112
     14  C5'       24.4030   42.3840    8.3910 C.3   510  ATP510      0.1813
     15  C4'       23.1430   41.8620    7.6860 C.3   510  ATP510      0.1821
     16  O4'       23.5560   40.8410    6.7240 O.3   510  ATP510     -0.3135
     17  C3'       22.1650   41.1250    8.6390 C.3   510  ATP510      0.2184
     18  O3'       21.2730   42.0020    9.3510 O.3   510  ATP510     -0.2174
     19  C2'       21.4520   40.1890    7.6790 C.3   510  ATP510      0.2570
     20  O2'       20.3750   40.8770    7.0330 O.3   510  ATP510     -0.2130
     21  C1'       22.5630   39.7740    6.6900 C.3   510  ATP510      0.3186
     22  N9        23.1690   38.4980    7.1320 N.pl3 510  ATP510     -0.1439
     23  C8        24.3090   38.3380    7.8860 C.3   510  ATP510      0.3377
     24  N7        24.5440   37.0800    8.0940 N.2   510  ATP510     -0.2095
     25  C5        23.5830   36.3460    7.4960 C.2   510  ATP510      0.2526
     26  C6        23.3060   34.9590    7.3800 C.2   510  ATP510      0.4393
     27  N6        24.1310   34.0300    7.9720 N.pl3 510  ATP510      0.2180
     28  N1        22.2200   34.5690    6.6820 N.2   510  ATP510      0.0021
     29  C2        21.4010   35.4540    6.0970 C.3   510  ATP510      0.5254
     30  N3        21.6230   36.7690    6.1830 N.2   510  ATP510     -0.0055
     31  C4        22.6870   37.2490    6.8640 C.2   510  ATP510      0.3518
@<TRIPOS>BOND
     1    29    30    1
     2    29    28    1
     3    30    31    2
     4    28    26    2
     5    21    16    1
     6    21    22    1
     7    21    19    1
     8    16    15    1
     9    31    22    1
    10    31    25    1
    11    20    19    1
    12    22    23    1
    13    26    25    1
    14    26    27    1
    15    25    24    2
    16    19    17    1
    17    15    14    1
    18    15    17    1
    19    23    24    1
    20    10     9    2
    21    14    13    1
    22    17    18    1
    23    13     9    1
    24     9    11    1
    25     9    12    1
    26     3     1    2
    27     4     1    1
    28    12     5    1
    29     1     8    1
    30     1     2    1
    31     8     5    1
    32     5     6    2
    33     5     7    1
