@<TRIPOS>MOLECULE
3aba_FLI_A_1.pdb
 44 44 0 0 0
SMALL
GASTEIGER

@<TRIPOS>ATOM
      1  C1         1.9400   42.5430   22.5140 C.2   404  FLI404      0.3188
      2  O1         1.0690   43.4240   22.3790 O.2   404  FLI404     -0.2500
      3  C2         1.9570   41.6250   23.7430 C.3   404  FLI404      0.1294
      4  C3         2.0280   42.4260   25.0730 C.3   404  FLI404      0.1650
      5  C4         3.2410   43.4370   25.1120 C.3   404  FLI404      0.0664
      6  C5         3.2940   44.1820   26.4850 C.3   404  FLI404      0.1571
      7  C6         4.5070   45.1370   26.4930 C.3   404  FLI404      0.0659
      8  C7         4.5480   45.9140   27.8390 C.3   404  FLI404      0.1571
      9  C8         5.3730   47.2180   27.6030 C.3   404  FLI404      0.0659
     10  C9         5.3900   48.0660   28.9050 C.3   404  FLI404      0.1571
     11  C10        6.2770   49.3400   28.6700 C.3   404  FLI404      0.0659
     12  C11        6.1330   50.3140   29.9350 C.3   404  FLI404      0.1571
     13  C12        6.9760   51.6010   29.7550 C.3   404  FLI404      0.0659
     14  C13        6.2200   52.6600   28.9370 C.3   404  FLI404      0.1574
     15  C14        7.1640   53.8620   28.5750 C.3   404  FLI404      0.0701
     16  C15        8.4410   53.6060   27.6830 C.3   404  FLI404      0.1729
     17  C16        7.9280   52.9930   26.3640 C.2   404  FLI404     -0.0141
     18  C17        7.9040   51.6010   26.2230 C.2   404  FLI404     -0.0061
     19  C18        7.2540   50.9610   25.1330 C.2   404  FLI404     -0.0006
     20  C19        7.2590   49.5800   24.9690 C.2   404  FLI404     -0.0000
     21  C1P        0.7080   40.7400   23.6630 C.3   404  FLI404      0.0137
     22  C20        6.6340   48.9000   23.9030 C.2   404  FLI404     -0.0000
     23  C21        6.6770   47.4750   23.8040 C.2   404  FLI404     -0.0000
     24  C22        5.9580   46.8570   22.7570 C.2   404  FLI404     -0.0000
     25  C23        5.9620   45.5100   22.4590 C.2   404  FLI404     -0.0003
     26  C24        5.2300   45.0970   21.3010 C.2   404  FLI404     -0.0045
     27  C25        5.0510   43.7270   21.0380 C.2   404  FLI404     -0.0224
     28  C26        4.3200   43.2670   19.8820 C.3   404  FLI404      0.0696
     29  C27        2.8370   43.2720   20.3190 C.3   404  FLI404      0.1733
     30  C28        1.9130   42.5720   19.3160 C.3   404  FLI404      0.0477
     31  C29        7.3020   53.9790   25.2980 C.3   404  FLI404      0.0289
     32  C2P        0.5250   39.9790   22.2850 C.3   404  FLI404      0.0006
     33  O30        2.8570   42.3610   21.5060 O.3   404  FLI404     -0.4519
     34  C3P       -0.7230   39.1320   22.1900 C.3   404  FLI404      0.0000
     35  C4P       -0.7180   38.4850   20.8040 C.3   404  FLI404      0.0000
     36  C5P       -1.9440   37.6070   20.4160 C.3   404  FLI404      0.0000
     37  C6P       -3.0180   38.4750   19.6890 C.3   404  FLI404      0.0000
     38  OA3        2.1770   41.4280   26.1190 O.3   404  FLI404     -0.2225
     39  OA5        3.5200   43.1780   27.5510 O.3   404  FLI404     -0.2230
     40  OA7        5.2390   45.0570   28.8230 O.3   404  FLI404     -0.2230
     41  OA9        6.0010   47.2440   29.9010 O.3   404  FLI404     -0.2230
     42  OB1        6.6100   49.6320   31.1310 O.3   404  FLI404     -0.2230
     43  OB3        5.0090   53.0470   29.6200 O.3   404  FLI404     -0.2230
     44  OB5        8.9690   54.9770   27.5480 O.3   404  FLI404     -0.2186
@<TRIPOS>BOND
     1    30    29    1
     2    37    36    1
     3    28    29    1
     4    28    27    1
     5    29    33    1
     6    36    35    1
     7    35    34    1
     8    27    26    2
     9    26    25    1
    10    33     1    1
    11    34    32    1
    12    32    21    1
    13     2     1    2
    14    25    24    2
    15     1     3    1
    16    24    23    1
    17    21     3    1
    18     3     4    1
    19    23    22    2
    20    22    20    1
    21    20    19    2
    22     4     5    1
    23     4    38    1
    24     5     6    1
    25    19    18    1
    26    31    17    1
    27    18    17    2
    28    17    16    1
    29     6     7    1
    30     6    39    1
    31     7     8    1
    32    44    16    1
    33     9     8    1
    34     9    10    1
    35    16    15    1
    36     8    40    1
    37    15    14    1
    38    11    10    1
    39    11    12    1
    40    10    41    1
    41    14    43    1
    42    14    13    1
    43    13    12    1
    44    12    42    1
