@<TRIPOS>MOLECULE
3aba_HEM_A_1.pdb
 43 50 0 0 0
SMALL
GASTEIGER

@<TRIPOS>ATOM
      1  CHA        0.4110   44.5250   16.3850 C.2   1408  HEM1408     0.0000
      2  CHB        2.0280   40.0190   15.8240 C.2   1408  HEM1408     0.0000
      3  CHC        6.0630   41.8750   13.6970 C.2   1408  HEM1408     0.0000
      4  CHD        4.6720   46.3660   14.8520 C.2   1408  HEM1408     0.0000
      5  C1A        0.4800   43.1750   16.3180 C.2   1408  HEM1408     0.0000
      6  C2A       -0.5600   42.2800   16.8230 C.2   1408  HEM1408     0.0000
      7  C3A       -0.1070   41.0120   16.6510 C.2   1408  HEM1408     0.0000
      8  C4A        1.2140   41.1020   16.0990 C.2   1408  HEM1408     0.0000
      9  CMA       -0.7410   39.6870   17.0390 C.3   1408  HEM1408     0.0000
     10  CAA       -1.9460   42.6970   17.3470 C.3   1408  HEM1408     0.0000
     11  CBA       -1.9820   42.6710   18.9190 C.3   1408  HEM1408     0.0000
     12  CGA       -3.4280   42.8810   19.4180 C.2   1408  HEM1408     0.0000
     13  O1A       -4.3940   42.8630   18.6260 O.co2 1408  HEM1408     0.0000
     14  O2A       -3.6390   43.0980   20.6390 O.co2 1408  HEM1408     0.0000
     15  C1B        3.2520   40.1410   15.1700 C.ar  1408  HEM1408     0.0000
     16  C2B        4.0800   39.0090   14.7320 C.ar  1408  HEM1408     0.0000
     17  C3B        5.1390   39.5510   14.1260 C.ar  1408  HEM1408     0.0000
     18  C4B        5.0860   40.9900   14.2170 C.ar  1408  HEM1408     0.0000
     19  CMB        3.7580   37.4850   14.8440 C.3   1408  HEM1408     0.0000
     20  CAB        6.3450   38.8320   13.5000 C.2   1408  HEM1408     0.0000
     21  CBB        6.2480   37.7270   12.7820 C.2   1408  HEM1408     0.0000
     22  C1C        6.0280   43.2470   13.7430 C.2   1408  HEM1408     0.0000
     23  C2C        7.0270   44.1350   13.1920 C.2   1408  HEM1408     0.0000
     24  C3C        6.5980   45.3290   13.5410 C.2   1408  HEM1408     0.0000
     25  C4C        5.4110   45.2810   14.3100 C.2   1408  HEM1408     0.0000
     26  CMC        8.2770   43.7280   12.3100 C.3   1408  HEM1408     0.0000
     27  CAC        7.1790   46.7030   13.2870 C.2   1408  HEM1408     0.0000
     28  CBC        7.9350   47.0270   12.2520 C.2   1408  HEM1408     0.0000
     29  C1D        3.4200   46.2250   15.4550 C.ar  1408  HEM1408     0.0000
     30  C2D        2.6490   47.3710   15.9660 C.ar  1408  HEM1408     0.0000
     31  C3D        1.3360   46.8040   16.4210 C.ar  1408  HEM1408     0.0000
     32  C4D        1.4220   45.4110   16.1910 C.ar  1408  HEM1408     0.0000
     33  CMD        3.1480   48.8210   16.0070 C.3   1408  HEM1408     0.0000
     34  CAD        0.1850   47.6120   17.0240 C.3   1408  HEM1408     0.0000
     35  CBD       -0.7650   47.9940   15.8370 C.3   1408  HEM1408     0.0000
     36  CGD       -2.0770   48.6640   16.3780 C.2   1408  HEM1408     0.0000
     37  O1D       -2.8690   49.3190   15.6280 O.co2 1408  HEM1408     0.0000
     38  O2D       -2.3220   48.5090   17.5890 O.co2 1408  HEM1408     0.0000
     39  NA         1.5890   42.4020   15.9610 N.2   1408  HEM1408     0.0000
     40  NB         3.9030   41.3130   14.8910 N.ar  1408  HEM1408     0.0000
     41  NC         5.0630   43.9750   14.4530 N.2   1408  HEM1408     0.0000
     42  ND         2.6380   45.1240   15.6360 N.ar  1408  HEM1408     0.0000
     43 FE          3.2140   43.1980   15.0160 Fe    1408  HEM1408     0.0000
@<TRIPOS>BOND
     1    28    27    2
     2    26    23    1
     3    21    20    2
     4    23    24    2
     5    23    22    1
     6    27    24    1
     7    20    17    1
     8    24    25    1
     9     3    22    2
    10     3    18    1
    11    22    41    1
    12    17    18   ar
    13    17    16   ar
    14    18    40   ar
    15    25    41    2
    16    25     4    1
    17    41    43    1
    18    16    19    1
    19    16    15   ar
    20     4    29    2
    21    40    43    1
    22    40    15   ar
    23    43    42    1
    24    43    39    1
    25    15     2    1
    26    29    42   ar
    27    29    30   ar
    28    37    36   ar
    29    42    32   ar
    30     2     8    2
    31    35    36    1
    32    35    34    1
    33    39     8    1
    34    39     5    2
    35    30    33    1
    36    30    31   ar
    37     8     7    1
    38    32     1    2
    39    32    31   ar
    40     5     1    1
    41     5     6    1
    42    36    38   ar
    43    31    34    1
    44     7     6    2
    45     7     9    1
    46     6    10    1
    47    10    11    1
    48    13    12   ar
    49    11    12    1
    50    12    14   ar
