@<TRIPOS>MOLECULE
3abb_HEM_A_1.pdb
 43 50 0 0 0
SMALL
GASTEIGER

@<TRIPOS>ATOM
      1  CHA      -24.4950   24.0130   18.3720 C.2   1430  HEM1430     0.0000
      2  CHB      -20.0170   24.6620   20.1710 C.2   1430  HEM1430     0.0000
      3  CHC      -20.0720   20.1210   21.7380 C.2   1430  HEM1430     0.0000
      4  CHD      -24.3030   19.2980   19.5950 C.2   1430  HEM1430     0.0000
      5  C1A      -23.3240   24.6060   18.7600 C.2   1430  HEM1430     0.0000
      6  C2A      -22.9490   25.9730   18.5100 C.2   1430  HEM1430     0.0000
      7  C3A      -21.7140   26.1560   19.0050 C.2   1430  HEM1430     0.0000
      8  C4A      -21.2710   24.8980   19.5750 C.2   1430  HEM1430     0.0000
      9  CMA      -20.8660   27.4490   18.9660 C.3   1430  HEM1430     0.0000
     10  CAA      -23.7890   27.0420   17.8070 C.3   1430  HEM1430     0.0000
     11  CBA      -24.0470   26.7840   16.3180 C.3   1430  HEM1430     0.0000
     12  CGA      -24.8180   27.9340   15.6790 C.2   1430  HEM1430     0.0000
     13  O1A      -24.8360   27.9290   14.4320 O.co2 1430  HEM1430     0.0000
     14  O2A      -25.3780   28.8750   16.3850 O.co2 1430  HEM1430     0.0000
     15  C1B      -19.6100   23.4970   20.7730 C.ar  1430  HEM1430     0.0000
     16  C2B      -18.3880   23.2730   21.4830 C.ar  1430  HEM1430     0.0000
     17  C3B      -18.4120   22.0080   21.9210 C.ar  1430  HEM1430     0.0000
     18  C4B      -19.6630   21.4040   21.4620 C.ar  1430  HEM1430     0.0000
     19  CMB      -17.2720   24.3410   21.7200 C.3   1430  HEM1430     0.0000
     20  CAB      -17.3310   21.2270   22.7450 C.2   1430  HEM1430     0.0000
     21  CBB      -16.5280   21.8520   23.6330 C.2   1430  HEM1430     0.0000
     22  C1C      -21.2200   19.4900   21.3870 C.2   1430  HEM1430     0.0000
     23  C2C      -21.6060   18.1480   21.7500 C.2   1430  HEM1430     0.0000
     24  C3C      -22.8100   17.9550   21.1580 C.2   1430  HEM1430     0.0000
     25  C4C      -23.1710   19.1270   20.3670 C.2   1430  HEM1430     0.0000
     26  CMC      -20.8490   17.1550   22.6860 C.3   1430  HEM1430     0.0000
     27  CAC      -23.6760   16.6990   21.1280 C.2   1430  HEM1430     0.0000
     28  CBC      -23.8410   15.7790   22.0590 C.2   1430  HEM1430     0.0000
     29  C1D      -24.7420   20.4730   19.0580 C.ar  1430  HEM1430     0.0000
     30  C2D      -25.9750   20.6160   18.3430 C.ar  1430  HEM1430     0.0000
     31  C3D      -26.0680   22.0950   17.9300 C.ar  1430  HEM1430     0.0000
     32  C4D      -24.8300   22.6830   18.4510 C.ar  1430  HEM1430     0.0000
     33  CMD      -26.9800   19.5150   18.0430 C.3   1430  HEM1430     0.0000
     34  CAD      -27.2410   22.7680   17.1730 C.3   1430  HEM1430     0.0000
     35  CBD      -28.3600   23.0810   18.2060 C.3   1430  HEM1430     0.0000
     36  CGD      -29.4410   23.8260   17.4480 C.2   1430  HEM1430     0.0000
     37  O1D      -29.2010   24.1350   16.2410 O.co2 1430  HEM1430     0.0000
     38  O2D      -30.5320   24.1190   18.0200 O.co2 1430  HEM1430     0.0000
     39  NA       -22.2780   23.9590   19.3920 N.2   1430  HEM1430     0.0000
     40  NB       -20.3600   22.3530   20.7730 N.ar  1430  HEM1430     0.0000
     41  NC       -22.2030   20.0450   20.5450 N.2   1430  HEM1430     0.0000
     42  ND       -24.0850   21.6970   19.1100 N.ar  1430  HEM1430     0.0000
     43 FE        -22.2760   22.0200   20.1340 Fe    1430  HEM1430     0.0000
@<TRIPOS>BOND
     1    13    12   ar
     2    12    11    1
     3    12    14   ar
     4    37    36   ar
     5    11    10    1
     6    34    31    1
     7    34    35    1
     8    36    38   ar
     9    36    35    1
    10    10     6    1
    11    31    30   ar
    12    31    32   ar
    13    33    30    1
    14    30    29   ar
    15     1    32    2
    16     1     5    1
    17    32    42   ar
    18     6     5    1
    19     6     7    2
    20     5    39    2
    21     9     7    1
    22     7     8    1
    23    29    42   ar
    24    29     4    2
    25    42    43    1
    26    39     8    1
    27    39    43    1
    28     8     2    2
    29     4    25    1
    30    43    41    1
    31    43    40    1
    32     2    15    1
    33    25    41    2
    34    25    24    1
    35    41    22    1
    36    15    40   ar
    37    15    16   ar
    38    40    18   ar
    39    27    24    1
    40    27    28    2
    41    24    23    2
    42    22     3    2
    43    22    23    1
    44    18     3    1
    45    18    17   ar
    46    16    19    1
    47    16    17   ar
    48    23    26    1
    49    17    20    1
    50    20    21    2
