@<TRIPOS>MOLECULE
3abi_NAD_A_1.pdb
 44 48 0 0 0
SMALL
GASTEIGER

@<TRIPOS>ATOM
      1  PA         0.2690   15.3880  128.0090 P.3   1001  NAD1001     0.2189
      2  O1A       -0.1060   16.6100  128.8350 O.3   1001  NAD1001    -0.4371
      3  O2A        0.6200   15.2830  126.4800 O.2   1001  NAD1001    -0.5170
      4  O5B        1.5140   14.7890  128.6900 O.3   1001  NAD1001    -0.3112
      5  C5B        1.7080   13.4880  128.1200 C.3   1001  NAD1001     0.1813
      6  C4B        2.7720   13.0770  129.3380 C.3   1001  NAD1001     0.1821
      7  O4B        3.3600   11.8010  128.8320 O.3   1001  NAD1001    -0.3135
      8  C3B        4.0930   14.1300  129.0770 C.3   1001  NAD1001     0.2184
      9  O3B        4.7760   14.4330  130.3490 O.3   1001  NAD1001    -0.2174
     10  C2B        5.0490   13.3400  128.2420 C.3   1001  NAD1001     0.2570
     11  O2B        6.4720   13.5500  128.5880 O.3   1001  NAD1001    -0.2130
     12  C1B        4.8430   12.0000  128.9980 C.3   1001  NAD1001     0.3186
     13  N9A        5.5670   11.2370  127.8600 N.pl3 1001  NAD1001    -0.1439
     14  C8A        5.4000   11.3250  126.3440 C.3   1001  NAD1001     0.3377
     15  N7A        6.1040   10.1590  125.7420 N.2   1001  NAD1001    -0.2095
     16  C5A        6.7130    9.5670  126.7790 C.2   1001  NAD1001     0.2526
     17  C6A        7.6140    8.5280  126.8050 C.2   1001  NAD1001     0.4393
     18  N6A        8.1400    7.8530  125.6950 N.pl3 1001  NAD1001     0.2180
     19  N1A        8.0810    7.9850  127.9950 N.2   1001  NAD1001     0.0021
     20  C2A        7.7270    8.4840  129.3160 C.3   1001  NAD1001     0.5254
     21  N3A        6.8800    9.6580  129.1980 N.2   1001  NAD1001    -0.0055
     22  C4A        6.3840   10.1530  128.0070 C.2   1001  NAD1001     0.3518
     23  O3        -1.0120   14.2810  128.2820 O.3   1001  NAD1001    -0.2703
     24  PN        -2.0970   14.6740  129.2790 P.3   1001  NAD1001     0.2189
     25  O1N       -2.8710   15.7490  128.7380 O.2   1001  NAD1001    -0.5170
     26  O2N       -1.7000   14.5460  130.7570 O.3   1001  NAD1001    -0.4371
     27  O5D       -3.0830   13.1600  129.2010 O.3   1001  NAD1001    -0.3112
     28  C5D       -2.3450   12.0370  128.8550 C.3   1001  NAD1001     0.1813
     29  C4D       -3.3030   10.9900  128.2520 C.3   1001  NAD1001     0.1799
     30  O4D       -4.6680   11.2890  128.8170 O.3   1001  NAD1001    -0.3327
     31  C3D       -3.4220   11.3870  126.8560 C.3   1001  NAD1001     0.2158
     32  O3D       -3.6600   10.1280  126.1400 O.3   1001  NAD1001    -0.2175
     33  C2D       -4.7000   12.1220  126.7920 C.3   1001  NAD1001     0.2309
     34  O2D       -5.2120   11.9080  125.4390 O.3   1001  NAD1001    -0.2158
     35  C1D       -5.6040   11.3770  127.7440 C.3   1001  NAD1001     0.2263
     36  N1N       -6.6120   12.3680  128.1560 N.pl3 1001  NAD1001    -0.2787
     37  C2N       -7.9090   11.8470  128.0760 C.3   1001  NAD1001     0.1244
     38  C3N       -9.0130   12.6100  128.3850 C.2   1001  NAD1001     0.0544
     39  C7N      -10.4240   12.0470  128.5430 C.2   1001  NAD1001     0.2818
     40  O7N      -11.1970   13.1010  128.9500 O.2   1001  NAD1001    -0.2670
     41  N7N      -10.7270   10.7790  128.4930 N.am  1001  NAD1001    -0.0839
     42  C4N       -8.8160   13.9350  128.8240 C.2   1001  NAD1001     0.0033
     43  C5N       -7.5750   14.5290  128.8530 C.2   1001  NAD1001     0.0157
     44  C6N       -6.4450   13.7100  128.5060 C.2   1001  NAD1001     0.0633
@<TRIPOS>BOND
     1    34    33    1
     2    18    17    1
     3    15    14    1
     4    15    16    2
     5    32    31    1
     6    14    13    1
     7     3     1    2
     8    16    17    1
     9    16    22    1
    10    33    31    1
    11    33    35    1
    12    17    19    2
    13    31    29    1
    14    35    36    1
    15    35    30    1
    16    13    22    1
    17    13    12    1
    18    19    20    1
    19    22    21    2
    20     1    23    1
    21     1     4    1
    22     1     2    1
    23    37    36    1
    24    37    38    1
    25     5     4    1
    26     5     6    1
    27    36    44    1
    28    10    11    1
    29    10    12    1
    30    10     8    1
    31    29    30    1
    32    29    28    1
    33    23    24    1
    34    38    39    1
    35    38    42    2
    36    41    39   am
    37    44    43    2
    38    39    40    2
    39    25    24    2
    40    42    43    1
    41     7    12    1
    42     7     6    1
    43    28    27    1
    44     8     6    1
    45     8     9    1
    46    21    20    1
    47    27    24    1
    48    24    26    1
