@<TRIPOS>MOLECULE
3abk_DMU_C_1.pdb
 33 34 0 0 0
SMALL
GASTEIGER

@<TRIPOS>ATOM
      1  C1        73.2920  346.2540  190.7450 C.2   272  DMU272      0.3077
      2  C2        73.5130  347.5740  189.9480 C.2   272  DMU272      0.2743
      3  C3        72.3060  348.2160  189.2650 C.2   272  DMU272      0.2108
      4  C4        70.9690  347.6060  189.2990 C.3   272  DMU272      0.2615
      5  O5        70.8030  346.3430  190.0640 O.2   272  DMU272     -0.4388
      6  C6        71.9030  345.6510  190.7810 C.2   272  DMU272      0.3364
      7  O7        72.4120  349.6020  188.8130 O.2   272  DMU272     -0.4187
      8  O16       71.5500  344.6780  191.8670 O.2   272  DMU272     -0.4458
      9  C18       72.3190  343.4630  192.1260 C.3   272  DMU272      0.2087
     10  C19       72.0800  342.7150  193.4150 C.3   272  DMU272      0.0475
     11  C22       71.5220  341.3050  193.2410 C.3   272  DMU272      0.0038
     12  C25       71.3220  340.5380  194.5750 C.3   272  DMU272      0.0001
     13  C28       71.8050  339.0780  194.6200 C.3   272  DMU272      0.0000
     14  C31       71.2310  338.1050  195.6850 C.3   272  DMU272      0.0000
     15  C34       72.2470  336.9580  195.9950 C.3   272  DMU272      0.0000
     16  C37       71.7150  335.6300  196.6180 C.3   272  DMU272      0.0000
     17  C40       72.5250  335.0100  197.7970 C.3   272  DMU272      0.0000
     18  C43       72.6100  333.4910  197.9350 C.3   272  DMU272      0.0000
     19  O49       73.8000  346.4420  192.0770 O.2   272  DMU272     -0.2762
     20  O55       74.3050  348.4600  190.7690 O.2   272  DMU272     -0.2798
     21  C57       69.8100  348.3650  188.5610 C.3   272  DMU272      0.2335
     22  O61       68.6610  347.7230  187.9690 O.3   272  DMU272     -0.2159
     23  C5        73.8520  350.1380  186.8520 C.2   272  DMU272      0.3083
     24  C7        73.9700  351.2130  185.7420 C.2   272  DMU272      0.2787
     25  C8        72.7060  351.9310  185.2270 C.2   272  DMU272      0.2575
     26  C9        71.3740  351.4870  185.7860 C.3   272  DMU272      0.2659
     27  O1        71.2430  350.4780  186.8380 O.2   272  DMU272     -0.4384
     28  C10       72.4590  349.8350  187.3690 C.2   272  DMU272      0.3409
     29  O2        72.8650  353.3000  185.6070 O.2   272  DMU272     -0.2839
     30  O3        74.4750  348.9130  186.4570 O.2   272  DMU272     -0.2762
     31  O4        74.6190  350.6780  184.5830 O.2   272  DMU272     -0.2797
     32  C11       70.1140  352.1670  185.2680 C.3   272  DMU272      0.2336
     33  O6        69.4150  351.3730  184.3140 O.3   272  DMU272     -0.2159
@<TRIPOS>BOND
     1    33    32    1
     2    31    24    1
     3    25    29    1
     4    25    24    2
     5    25    26    1
     6    32    26    1
     7    24    23    1
     8    26    27    1
     9    30    23    1
    10    27    28    1
    11    23    28    2
    12    28     7    1
    13    22    21    1
    14    21     4    1
    15     7     3    1
    16     3     4    1
    17     3     2    2
    18     4     5    1
    19     2     1    1
    20     2    20    1
    21     5     6    1
    22     1     6    2
    23     1    19    1
    24     6     8    1
    25     8     9    1
    26     9    10    1
    27    11    10    1
    28    11    12    1
    29    12    13    1
    30    13    14    1
    31    14    15    1
    32    15    16    1
    33    16    17    1
    34    17    18    1
