@<TRIPOS>MOLECULE
3abl_DMU_C_1.pdb
 33 34 0 0 0
SMALL
GASTEIGER

@<TRIPOS>ATOM
      1  C1        74.2930  346.1470  190.0930 C.2   272  DMU272      0.3077
      2  C2        74.4560  347.4460  189.2670 C.2   272  DMU272      0.2743
      3  C3        73.2370  347.8960  188.4780 C.2   272  DMU272      0.2108
      4  C4        71.9890  347.1160  188.4430 C.3   272  DMU272      0.2615
      5  O5        71.8570  345.8810  189.2130 O.2   272  DMU272     -0.4388
      6  C6        72.9820  345.3840  190.0080 C.2   272  DMU272      0.3364
      7  O7        73.2990  349.2060  187.8300 O.2   272  DMU272     -0.4187
      8  O16       72.6610  344.3990  191.0570 O.2   272  DMU272     -0.4458
      9  C18       73.2240  343.0460  191.1120 C.3   272  DMU272      0.2087
     10  C19       72.7370  342.2170  192.2990 C.3   272  DMU272      0.0475
     11  C22       73.3080  340.7960  192.4890 C.3   272  DMU272      0.0038
     12  C25       72.2630  339.9550  193.2440 C.3   272  DMU272      0.0001
     13  C28       72.7330  338.7650  194.0920 C.3   272  DMU272      0.0000
     14  C31       71.5470  338.0760  194.8080 C.3   272  DMU272      0.0000
     15  C34       71.8810  336.8590  195.7110 C.3   272  DMU272      0.0000
     16  C37       72.9570  335.9080  195.1270 C.3   272  DMU272      0.0000
     17  C40       73.8750  335.0970  196.0790 C.3   272  DMU272      0.0000
     18  C43       73.2790  333.9020  196.8030 C.3   272  DMU272      0.0000
     19  O49       74.5640  346.5010  191.4560 O.2   272  DMU272     -0.2762
     20  O55       75.0450  348.4690  190.0940 O.2   272  DMU272     -0.2798
     21  C57       70.8100  347.6320  187.6100 C.3   272  DMU272      0.2335
     22  O61       69.7800  346.6970  187.2570 O.3   272  DMU272     -0.2159
     23  C5        74.6550  349.4750  185.6940 C.2   272  DMU272      0.3083
     24  C7        74.5670  350.3450  184.3970 C.2   272  DMU272      0.2787
     25  C8        73.1840  350.7260  183.8030 C.2   272  DMU272      0.2575
     26  C9        71.9490  350.3020  184.5860 C.3   272  DMU272      0.2659
     27  O1        72.0270  349.5260  185.8020 O.2   272  DMU272     -0.4384
     28  C10       73.3260  349.1620  186.3660 C.2   272  DMU272      0.3409
     29  O2        73.1640  352.1250  183.5090 O.2   272  DMU272     -0.2839
     30  O3        75.3550  348.2320  185.5020 O.2   272  DMU272     -0.2762
     31  O4        75.4350  349.9890  183.3120 O.2   272  DMU272     -0.2797
     32  C11       70.5480  350.6520  184.1050 C.3   272  DMU272      0.2336
     33  O6        69.5450  350.1150  184.9690 O.3   272  DMU272     -0.2159
@<TRIPOS>BOND
     1    31    24    1
     2    29    25    1
     3    25    24    2
     4    25    26    1
     5    32    26    1
     6    32    33    1
     7    24    23    1
     8    26    27    1
     9    30    23    1
    10    23    28    2
    11    27    28    1
    12    28     7    1
    13    22    21    1
    14    21     4    1
    15     7     3    1
    16     4     3    1
    17     4     5    1
    18     3     2    2
    19     5     6    1
    20     2     1    1
    21     2    20    1
    22     6     1    2
    23     6     8    1
    24     1    19    1
    25     8     9    1
    26     9    10    1
    27    10    11    1
    28    11    12    1
    29    12    13    1
    30    13    14    1
    31    14    15    1
    32    16    15    1
    33    16    17    1
    34    17    18    1
