@<TRIPOS>MOLECULE
3abm_DMU_G_1.pdb
 33 34 0 0 0
SMALL
GASTEIGER

@<TRIPOS>ATOM
      1  C1        74.0530  345.5340  190.0260 C.2   272  DMU272      0.3077
      2  C2        74.1120  346.7710  189.0600 C.2   272  DMU272      0.2743
      3  C3        72.8120  347.1560  188.3870 C.2   272  DMU272      0.2108
      4  C4        71.5820  346.3880  188.5850 C.3   272  DMU272      0.2615
      5  O5        71.5480  345.2210  189.4880 O.2   272  DMU272     -0.4388
      6  C6        72.7570  344.7660  190.1780 C.2   272  DMU272      0.3364
      7  O7        72.6690  348.5100  187.8740 O.2   272  DMU272     -0.4187
      8  O16       72.5830  343.7950  191.2810 O.2   272  DMU272     -0.4458
      9  C18       73.2230  342.4720  191.3930 C.3   272  DMU272      0.2087
     10  C19       72.5480  341.5100  192.3700 C.3   272  DMU272      0.0475
     11  C22       73.2810  340.2300  192.8080 C.3   272  DMU272      0.0038
     12  C25       72.3500  339.3870  193.7010 C.3   272  DMU272      0.0001
     13  C28       72.8090  338.0230  194.2710 C.3   272  DMU272      0.0000
     14  C31       71.6160  337.1970  194.8160 C.3   272  DMU272      0.0000
     15  C34       71.7440  336.4440  196.1510 C.3   272  DMU272      0.0000
     16  C37       71.7940  334.9050  196.1840 C.3   272  DMU272      0.0000
     17  C40       73.2270  334.3090  196.2660 C.3   272  DMU272      0.0000
     18  C43       73.3930  333.0900  197.1670 C.3   272  DMU272      0.0000
     19  O49       74.4860  345.9230  191.3390 O.2   272  DMU272     -0.2762
     20  O55       74.7570  347.9120  189.6660 O.2   272  DMU272     -0.2798
     21  C57       70.3420  346.9090  187.8380 C.3   272  DMU272      0.2335
     22  O61       69.3590  345.9920  187.3690 O.3   272  DMU272     -0.2159
     23  C5        73.9510  349.1610  185.8860 C.2   272  DMU272      0.3083
     24  C7        73.8780  350.1590  184.7020 C.2   272  DMU272      0.2787
     25  C8        72.5130  350.4860  184.0590 C.2   272  DMU272      0.2575
     26  C9        71.2650  349.8560  184.6780 C.3   272  DMU272      0.2659
     27  O1        71.3370  348.9360  185.8060 O.2   272  DMU272     -0.4384
     28  C10       72.6440  348.6410  186.4160 C.2   272  DMU272      0.3409
     29  O2        72.4110  351.9110  183.9080 O.2   272  DMU272     -0.2839
     30  O3        74.6860  347.9820  185.5600 O.2   272  DMU272     -0.2762
     31  O4        74.7960  349.9070  183.6330 O.2   272  DMU272     -0.2797
     32  C11       69.9040  350.1850  184.0640 C.3   272  DMU272      0.2336
     33  O6        68.8040  349.6520  184.8160 O.3   272  DMU272     -0.2159
@<TRIPOS>BOND
     1    31    24    1
     2    29    25    1
     3    25    26    1
     4    25    24    2
     5    32    26    1
     6    32    33    1
     7    26    27    1
     8    24    23    1
     9    30    23    1
    10    27    28    1
    11    23    28    2
    12    28     7    1
    13    22    21    1
    14    21     4    1
    15     7     3    1
    16     3     4    1
    17     3     2    2
    18     4     5    1
    19     2    20    1
    20     2     1    1
    21     5     6    1
    22     1     6    2
    23     1    19    1
    24     6     8    1
    25     8     9    1
    26     9    10    1
    27    10    11    1
    28    11    12    1
    29    12    13    1
    30    13    14    1
    31    14    15    1
    32    15    16    1
    33    16    17    1
    34    17    18    1
