@<TRIPOS>MOLECULE
3abv_F6A_B_1.pdb
 25 27 0 0 0
SMALL
GASTEIGER

@<TRIPOS>ATOM
      1  N        -21.1470  -24.5420   60.8860 N.am  1201  F6A1201    -0.1755
      2  O        -21.2190  -26.7860   60.9360 O.2   1201  F6A1201    -0.2680
      3  C1       -23.6740  -27.2490   59.0550 C.3   1201  F6A1201     0.4187
      4  F1       -22.5360  -26.7870   58.5720 F     1201  F6A1201    -0.1659
      5  C2       -24.1910  -26.3790   60.1620 C.ar  1201  F6A1201     0.0759
      6  F2       -23.4910  -28.4540   59.5600 F     1201  F6A1201    -0.1659
      7  C3       -23.2830  -25.6480   61.0950 C.ar  1201  F6A1201     0.0593
      8  F3       -24.5500  -27.2880   58.0670 F     1201  F6A1201    -0.1659
      9  C4       -23.8480  -24.8600   62.0920 C.ar  1201  F6A1201     0.0045
     10  C5       -25.2320  -24.7750   62.2140 C.ar  1201  F6A1201     0.0001
     11  C6       -26.0810  -25.4680   61.3490 C.ar  1201  F6A1201    -0.0001
     12  C7       -25.5680  -26.2640   60.3300 C.ar  1201  F6A1201     0.0040
     13  C8       -21.7880  -25.7070   60.9770 C.2   1201  F6A1201     0.2689
     14  C9       -19.9290  -24.2680   61.4110 C.ar  1201  F6A1201     0.0737
     15  C10      -19.3190  -23.0740   61.0330 C.ar  1201  F6A1201     0.0166
     16  C11      -18.0640  -22.7300   61.5300 C.ar  1201  F6A1201     0.0013
     17  C12      -17.4230  -23.5850   62.4290 C.ar  1201  F6A1201     0.0001
     18  C13      -18.0270  -24.7800   62.8150 C.ar  1201  F6A1201     0.0013
     19  C14      -19.2790  -25.1210   62.3070 C.ar  1201  F6A1201     0.0166
     20  C15      -17.4500  -21.4360   61.1090 C.ar  1201  F6A1201     0.0000
     21  C16      -16.8120  -20.6170   62.0540 C.ar  1201  F6A1201     0.0000
     22  C17      -16.2510  -19.3980   61.6700 C.ar  1201  F6A1201     0.0000
     23  C18      -16.3310  -18.9890   60.3350 C.ar  1201  F6A1201     0.0000
     24  C19      -16.9680  -19.7970   59.3880 C.ar  1201  F6A1201     0.0000
     25  C20      -17.5280  -21.0190   59.7750 C.ar  1201  F6A1201     0.0000
@<TRIPOS>BOND
     1     8     3    1
     2     4     3    1
     3     3     6    1
     4     3     5    1
     5    24    25   ar
     6    24    23   ar
     7    25    20   ar
     8     5    12   ar
     9     5     7   ar
    10    12    11   ar
    11    23    22   ar
    12     1    13   am
    13     1    14    1
    14     2    13    2
    15    13     7    1
    16    15    14   ar
    17    15    16   ar
    18     7     9   ar
    19    20    16    1
    20    20    21   ar
    21    11    10   ar
    22    14    19   ar
    23    16    17   ar
    24    22    21   ar
    25     9    10   ar
    26    19    18   ar
    27    17    18   ar
