@<TRIPOS>MOLECULE
3abv_EPH_D_1.pdb
 44 43 0 0 0
SMALL
GASTEIGER

@<TRIPOS>ATOM
      1  C1       -44.7610  -20.9400   85.7040 C.3   1306  EPH1306     0.2543
      2  C2       -46.0850  -21.6800   85.4980 C.3   1306  EPH1306     0.2420
      3  C4       -43.1870  -21.0890   83.7460 C.2   1306  EPH1306     0.3171
      4  O2       -43.6760  -21.5790   85.0300 O.3   1306  EPH1306    -0.4444
      5  O4       -43.9790  -20.5570   82.9830 O.2   1306  EPH1306    -0.2501
      6  C18      -41.7220  -21.2460   83.3770 C.3   1306  EPH1306     0.1096
      7  C19      -41.4500  -20.9800   81.8920 C.3   1306  EPH1306     0.0116
      8  C20      -40.9490  -22.2130   81.1400 C.3   1306  EPH1306     0.0006
      9  C21      -39.4980  -22.5440   81.4920 C.3   1306  EPH1306     0.0000
     10  C22      -38.9810  -23.7960   80.7850 C.3   1306  EPH1306     0.0000
     11  C23      -39.1890  -25.0620   81.6120 C.3   1306  EPH1306     0.0000
     12  C24      -37.9760  -25.4030   82.4720 C.3   1306  EPH1306     0.0000
     13  C25      -37.4460  -26.7930   82.1360 C.3   1306  EPH1306     0.0000
     14  C26      -37.6120  -27.7620   83.3020 C.3   1306  EPH1306     0.0000
     15  C27      -37.2510  -29.1890   82.9010 C.3   1306  EPH1306     0.0000
     16  C28      -38.5050  -30.0100   82.6200 C.3   1306  EPH1306     0.0000
     17  C29      -38.2970  -30.9420   81.4300 C.3   1306  EPH1306     0.0000
     18  C30      -39.1800  -30.5280   80.2550 C.3   1306  EPH1306     0.0000
     19  C31      -39.4510  -31.7130   79.3460 C.3   1306  EPH1306     0.0000
     20  C37      -46.7310  -21.8450   86.8680 C.3   1306  EPH1306     0.1964
     21  O5       -47.6570  -20.7800   87.0610 O.3   1306  EPH1306    -0.3100
     22  C3       -47.0060  -23.4410   84.0350 C.2   1306  EPH1306     0.3171
     23  O1       -45.9090  -22.9690   84.8900 O.3   1306  EPH1306    -0.4457
     24  O3       -48.1260  -22.9680   84.1560 O.2   1306  EPH1306    -0.2501
     25  C5       -46.7740  -24.5280   83.0010 C.3   1306  EPH1306     0.1096
     26  C6       -45.4700  -24.2980   82.2400 C.3   1306  EPH1306     0.0116
     27  C7       -45.4970  -24.9100   80.8430 C.3   1306  EPH1306     0.0006
     28  C8       -44.2170  -24.5760   80.0810 C.3   1306  EPH1306     0.0000
     29  C9       -43.8130  -25.6770   79.1040 C.3   1306  EPH1306     0.0000
     30  C10      -42.4010  -26.1980   79.3860 C.3   1306  EPH1306     0.0000
     31  C11      -41.5840  -26.4270   78.1090 C.3   1306  EPH1306     0.0000
     32  C12      -40.5690  -27.5620   78.2660 C.3   1306  EPH1306     0.0000
     33  C13      -39.2300  -27.2760   77.5810 C.3   1306  EPH1306     0.0000
     34  C14      -38.0520  -27.5100   78.5290 C.3   1306  EPH1306     0.0000
     35  C15      -36.7180  -27.7000   77.8070 C.3   1306  EPH1306     0.0000
     36  C16      -35.7520  -28.5540   78.6300 C.3   1306  EPH1306     0.0000
     37  C17      -34.5420  -27.7830   79.1200 C.3   1306  EPH1306     0.0000
     38  P1       -49.2330  -21.0790   87.2550 P.3   1306  EPH1306     0.2141
     39  O6       -49.7290  -22.2290   86.2210 O.2   1306  EPH1306    -0.5172
     40  O7       -49.5030  -21.4890   88.7740 O.3   1306  EPH1306    -0.4373
     41  O8       -49.9570  -19.6710   86.8870 O.3   1306  EPH1306    -0.3125
     42  C38      -50.3590  -19.3450   85.5520 C.3   1306  EPH1306     0.1696
     43  C39      -51.8290  -18.9430   85.5340 C.3   1306  EPH1306     0.1417
     44  N1       -52.4620  -19.5220   84.3660 N.3   1306  EPH1306    -0.1286
@<TRIPOS>BOND
     1    33    32    1
     2    33    34    1
     3    35    34    1
     4    35    36    1
     5    31    32    1
     6    31    30    1
     7    36    37    1
     8    29    30    1
     9    29    28    1
    10    19    18    1
    11    28    27    1
    12    18    17    1
    13    10     9    1
    14    10    11    1
    15    27    26    1
    16     8     9    1
    17     8     7    1
    18    17    16    1
    19    11    12    1
    20     7     6    1
    21    13    12    1
    22    13    14    1
    23    26    25    1
    24    16    15    1
    25    15    14    1
    26     5     3    2
    27    25    22    1
    28     6     3    1
    29     3     4    1
    30    22    24    2
    31    22    23    1
    32    44    43    1
    33    23     2    1
    34     4     1    1
    35     2     1    1
    36     2    20    1
    37    43    42    1
    38    42    41    1
    39    39    38    2
    40    20    21    1
    41    41    38    1
    42    21    38    1
    43    38    40    1
