@<TRIPOS>MOLECULE
3abv_HEM_C_1.pdb
 43 50 0 0 0
SMALL
GASTEIGER

@<TRIPOS>ATOM
      1  CHA      -33.7080  -27.1470   65.1750 C.2   1305  HEM1305     0.0000
      2  CHB      -34.2550  -29.1700   69.5170 C.2   1305  HEM1305     0.0000
      3  CHC      -37.5920  -25.8080   70.6110 C.2   1305  HEM1305     0.0000
      4  CHD      -37.7430  -24.5240   65.9470 C.2   1305  HEM1305     0.0000
      5  C1A      -33.5070  -27.9560   66.2660 C.2   1305  HEM1305     0.0000
      6  C2A      -32.4720  -28.9550   66.4200 C.2   1305  HEM1305     0.0000
      7  C3A      -32.6280  -29.5160   67.6260 C.2   1305  HEM1305     0.0000
      8  C4A      -33.7600  -28.8830   68.2690 C.2   1305  HEM1305     0.0000
      9  CMA      -31.7600  -30.6410   68.2390 C.3   1305  HEM1305     0.0000
     10  CAA      -31.3920  -29.3040   65.3710 C.3   1305  HEM1305     0.0000
     11  CBA      -30.2680  -28.2740   65.3710 C.3   1305  HEM1305     0.0000
     12  CGA      -29.8060  -28.0390   63.9530 C.2   1305  HEM1305     0.0000
     13  O1A      -29.1210  -27.0120   63.6940 O.co2 1305  HEM1305     0.0000
     14  O2A      -30.1140  -28.8740   63.0630 O.co2 1305  HEM1305     0.0000
     15  C1B      -35.2030  -28.4380   70.2020 C.ar  1305  HEM1305     0.0000
     16  C2B      -35.6550  -28.6870   71.5640 C.ar  1305  HEM1305     0.0000
     17  C3B      -36.5710  -27.7550   71.8570 C.ar  1305  HEM1305     0.0000
     18  C4B      -36.7410  -26.8880   70.7040 C.ar  1305  HEM1305     0.0000
     19  CMB      -35.1730  -29.8200   72.5050 C.3   1305  HEM1305     0.0000
     20  CAB      -37.3250  -27.6230   73.1960 C.2   1305  HEM1305     0.0000
     21  CBB      -38.5800  -28.0680   73.2850 C.2   1305  HEM1305     0.0000
     22  C1C      -37.9850  -25.1980   69.4390 C.2   1305  HEM1305     0.0000
     23  C2C      -39.0950  -24.2700   69.2590 C.2   1305  HEM1305     0.0000
     24  C3C      -39.1300  -23.9230   67.9730 C.2   1305  HEM1305     0.0000
     25  C4C      -38.0490  -24.6140   67.2870 C.2   1305  HEM1305     0.0000
     26  CMC      -40.0810  -23.7590   70.3350 C.3   1305  HEM1305     0.0000
     27  CAC      -40.1500  -22.9580   67.3320 C.2   1305  HEM1305     0.0000
     28  CBC      -39.7450  -21.7900   66.8280 C.2   1305  HEM1305     0.0000
     29  C1D      -36.7030  -25.1410   65.2870 C.ar  1305  HEM1305     0.0000
     30  C2D      -36.4900  -25.1010   63.8550 C.ar  1305  HEM1305     0.0000
     31  C3D      -35.2190  -25.9220   63.6120 C.ar  1305  HEM1305     0.0000
     32  C4D      -34.8130  -26.3700   64.9240 C.ar  1305  HEM1305     0.0000
     33  CMD      -37.3630  -24.3800   62.7970 C.3   1305  HEM1305     0.0000
     34  CAD      -34.5320  -26.2300   62.2600 C.3   1305  HEM1305     0.0000
     35  CBD      -33.7970  -25.0230   61.6830 C.3   1305  HEM1305     0.0000
     36  CGD      -33.0580  -25.4450   60.4320 C.2   1305  HEM1305     0.0000
     37  O1D      -31.9550  -26.0520   60.5690 O.co2 1305  HEM1305     0.0000
     38  O2D      -33.5690  -25.1800   59.3040 O.co2 1305  HEM1305     0.0000
     39  NA       -34.2730  -27.9370   67.4080 N.2   1305  HEM1305     0.0000
     40  NB       -35.8900  -27.3360   69.7100 N.ar  1305  HEM1305     0.0000
     41  NC       -37.3710  -25.3820   68.2110 N.2   1305  HEM1305     0.0000
     42  ND       -35.7030  -25.8960   65.8760 N.ar  1305  HEM1305     0.0000
     43 FE        -35.8200  -26.6170   67.7930 Fe    1305  HEM1305     0.0000
@<TRIPOS>BOND
     1    38    36   ar
     2    36    37   ar
     3    36    35    1
     4    35    34    1
     5    34    31    1
     6    33    30    1
     7    14    12   ar
     8    31    30   ar
     9    31    32   ar
    10    13    12   ar
    11    30    29   ar
    12    12    11    1
    13    32     1    2
    14    32    42   ar
    15     1     5    1
    16    29    42   ar
    17    29     4    2
    18    10    11    1
    19    10     6    1
    20    42    43    1
    21     4    25    1
    22     5     6    1
    23     5    39    2
    24     6     7    2
    25    28    27    2
    26    25    24    1
    27    25    41    2
    28    27    24    1
    29    39    43    1
    30    39     8    1
    31     7     9    1
    32     7     8    1
    33    43    41    1
    34    43    40    1
    35    24    23    2
    36    41    22    1
    37     8     2    2
    38    23    22    1
    39    23    26    1
    40    22     3    2
    41     2    15    1
    42    40    15   ar
    43    40    18   ar
    44    15    16   ar
    45     3    18    1
    46    18    17   ar
    47    16    17   ar
    48    16    19    1
    49    17    20    1
    50    20    21    2
