@<TRIPOS>MOLECULE
3abw_RET_A_1.pdb
 20 20 0 0 0
SMALL
GASTEIGER

@<TRIPOS>ATOM
      1  C1        40.5220   -5.8710   22.4600 C.3   292  RET292      0.0183
      2  C2        40.8980   -6.9480   21.3620 C.3   292  RET292      0.0044
      3  C3        41.3160   -6.4690   20.0470 C.3   292  RET292      0.0047
      4  C4        42.3390   -5.3390   20.0900 C.3   292  RET292      0.0217
      5  C5        42.0840   -4.2490   21.1410 C.2   292  RET292     -0.0479
      6  C6        41.2390   -4.4380   22.2580 C.2   292  RET292     -0.0307
      7  C7        41.0410   -3.2450   23.2190 C.2   292  RET292     -0.0052
      8  C8        40.2160   -3.1740   24.2970 C.2   292  RET292     -0.0046
      9  C9        40.1450   -2.1470   25.3070 C.2   292  RET292     -0.0219
     10  C10       39.1970   -2.3440   26.2700 C.2   292  RET292     -0.0043
     11  C11       38.9440   -1.4760   27.3910 C.2   292  RET292     -0.0007
     12  C12       37.9950   -1.8020   28.2590 C.2   292  RET292     -0.0046
     13  C13       37.5970   -1.0450   29.4450 C.2   292  RET292     -0.0261
     14  C14       36.5420   -1.6250   30.0540 C.2   292  RET292     -0.0300
     15  C15       35.7010   -1.2390   31.1540 C.3   292  RET292      0.0304
     16  C16       38.9970   -5.7760   22.3460 C.3   292  RET292      0.0043
     17  C17       40.8840   -6.5690   23.7930 C.3   292  RET292      0.0043
     18  C18       42.8440   -2.9550   20.8120 C.3   292  RET292      0.0260
     19  C19       41.0970   -0.9650   25.3060 C.3   292  RET292      0.0310
     20  C20       38.2600    0.2670   29.8640 C.3   292  RET292      0.0307
@<TRIPOS>BOND
     1     3     4    1
     2     3     2    1
     3     4     5    1
     4    18     5    1
     5     5     6    2
     6     2     1    1
     7     6     1    1
     8     6     7    1
     9    16     1    1
    10     1    17    1
    11     7     8    2
    12     8     9    1
    13    19     9    1
    14     9    10    2
    15    10    11    1
    16    11    12    2
    17    12    13    1
    18    13    20    1
    19    13    14    2
    20    14    15    1
