@<TRIPOS>MOLECULE
3abw_22B_A_1.pdb
 27 26 0 0 0
SMALL
GASTEIGER

@<TRIPOS>ATOM
      1  C1        23.6030   12.6580   40.3790 C.3   300  22B300      0.1267
      2  C2        22.0380   12.9000   40.1040 C.3   300  22B300      0.0285
      3  C3        21.2590   11.5490   39.6290 C.3   300  22B300      0.0068
      4  C4        21.0690   10.3080   40.1780 C.3   300  22B300      0.0221
      5  C5        21.2920    8.9860   39.5630 C.2   300  22B300     -0.0439
      6  C6        20.9940    7.9370   40.3710 C.2   300  22B300     -0.0085
      7  C7        21.0950    6.5240   40.0490 C.2   300  22B300     -0.0010
      8  C8        20.7870    5.4960   40.8660 C.2   300  22B300     -0.0043
      9  C9        20.9130    4.0800   40.4290 C.2   300  22B300     -0.0218
     10  C10       21.4900    3.2250   41.3230 C.2   300  22B300     -0.0043
     11  C11       21.7120    1.7840   41.1130 C.2   300  22B300     -0.0007
     12  C12       22.2110    1.0550   42.1030 C.2   300  22B300     -0.0046
     13  C13       22.5020   -0.3980   42.0830 C.2   300  22B300     -0.0261
     14  C14       23.0010   -0.8050   43.2610 C.2   300  22B300     -0.0300
     15  C15       23.4530   -2.0990   43.7930 C.3   300  22B300      0.0304
     16  C16       24.4540   12.1250   39.1510 C.3   300  22B300      0.0329
     17  C17       24.3110   13.9830   40.8500 C.3   300  22B300      0.0329
     18  C18       21.8130    8.8100   38.1040 C.3   300  22B300      0.0264
     19  C19       20.3890    3.6220   39.0100 C.3   300  22B300      0.0310
     20  C20       22.2610   -1.3380   40.8570 C.3   300  22B300      0.0307
     21  C21       21.8010   13.9430   38.9220 C.3   300  22B300      0.0050
     22  C22       20.2490   14.2370   38.6230 C.3   300  22B300      0.0305
     23  C23       19.7160   14.8400   37.2530 C.3   300  22B300      0.1268
     24  C24       20.7480   15.1570   36.1420 C.3   300  22B300      0.0329
     25  C25       18.6410   13.8970   36.6630 C.3   300  22B300      0.0329
     26  O26       23.7890   11.7380   41.4460 O.3   300  22B300     -0.2257
     27  O27       19.0340   16.1710   37.6230 O.3   300  22B300     -0.2257
@<TRIPOS>BOND
     1    24    23    1
     2    25    23    1
     3    23    27    1
     4    23    22    1
     5    18     5    1
     6    22    21    1
     7    21     2    1
     8    19     9    1
     9    16     1    1
    10     5     4    1
    11     5     6    2
    12     3     2    1
    13     3     4    1
    14     7     6    1
    15     7     8    2
    16     2     1    1
    17     1    17    1
    18     1    26    1
    19     9     8    1
    20     9    10    2
    21    20    13    1
    22    11    10    1
    23    11    12    2
    24    13    12    1
    25    13    14    2
    26    14    15    1
