@<TRIPOS>MOLECULE
3abx_RCB_A_1.pdb
 32 34 0 0 0
SMALL
GASTEIGER

@<TRIPOS>ATOM
      1  O1A      -15.4970    3.0050    0.5730 O.3   1001  RCB1001    -0.2176
      2  C1B      -12.0630    0.6610    0.0110 C.3   1001  RCB1001     0.2695
      3  O1B      -11.0400   -0.0660   -0.6780 O.3   1001  RCB1001    -0.3257
      4  C1C       -8.8480   -3.5900   -0.0350 C.3   1001  RCB1001     0.3218
      5  O1C       -8.2930   -4.7620    0.5660 O.3   1001  RCB1001    -0.4505
      6  C1D       -6.9720   -5.1590    0.4960 C.ar  1001  RCB1001     0.1415
      7  N1D       -3.0110   -6.5430    0.3310 N.pl3 1001  RCB1001     0.0577
      8  C2B      -12.0050    2.1150   -0.4410 C.3   1001  RCB1001     0.2406
      9  O2B      -10.7280    2.6290   -0.0640 O.3   1001  RCB1001    -0.2149
     10  C2C      -10.3530   -3.7710   -0.2100 C.3   1001  RCB1001     0.2540
     11  O2C      -10.6210   -4.8950   -1.0610 O.3   1001  RCB1001    -0.2135
     12  C2D       -5.9010   -4.2610    0.5510 C.ar  1001  RCB1001     0.0387
     13  O2D       -2.8250   -7.9220    0.3060 O.2   1001  RCB1001    -0.1261
     14  C3B      -13.1220    2.9220    0.2150 C.3   1001  RCB1001     0.2198
     15  O3B      -13.1290    4.2680   -0.2780 O.3   1001  RCB1001    -0.2174
     16  C3C      -11.0070   -2.5070   -0.7750 C.3   1001  RCB1001     0.2180
     17  O3C      -12.4310   -2.6330   -0.7190 O.3   1001  RCB1001    -0.2175
     18  C3D       -4.5700   -4.7090    0.4760 C.ar  1001  RCB1001     0.0272
     19  O3D       -1.8600   -5.7330    0.3730 O.2   1001  RCB1001    -0.1261
     20  C4B      -14.4650    2.2670   -0.0890 C.3   1001  RCB1001     0.2144
     21  C4C      -10.6040   -1.2510    0.0100 C.3   1001  RCB1001     0.1805
     22  C4D       -4.2910   -6.0650    0.3710 C.ar  1001  RCB1001     0.1431
     23  C5B      -14.4630    0.7940    0.3300 C.3   1001  RCB1001     0.1835
     24  O5B      -13.3580    0.1060   -0.2600 O.3   1001  RCB1001    -0.3256
     25  C5C       -9.0960   -1.2290    0.2770 C.3   1001  RCB1001     0.1814
     26  O5C       -8.6540   -2.4750    0.8420 O.3   1001  RCB1001    -0.3158
     27  C5D       -5.3670   -6.9610    0.3320 C.ar  1001  RCB1001     0.0272
     28  C6B      -15.7170    0.0590   -0.1390 C.3   1001  RCB1001     0.2142
     29  O6B      -16.8650    0.5760    0.5370 O.3   1001  RCB1001    -0.2176
     30  C6C       -8.6890   -0.0850    1.2020 C.3   1001  RCB1001     0.2141
     31  O6C       -9.4520   -0.1280    2.4180 O.3   1001  RCB1001    -0.2176
     32  C6D       -6.6900   -6.5220    0.3950 C.ar  1001  RCB1001     0.0387
@<TRIPOS>BOND
     1    11    10    1
     2    16    17    1
     3    16    10    1
     4    16    21    1
     5     3    21    1
     6     3     2    1
     7     8     9    1
     8     8     2    1
     9     8    14    1
    10    15    14    1
    11    24     2    1
    12    24    23    1
    13    10     4    1
    14    28    23    1
    15    28    29    1
    16    20    14    1
    17    20    23    1
    18    20     1    1
    19     4     5    1
    20     4    26    1
    21    21    25    1
    22    25    26    1
    23    25    30    1
    24    13     7    2
    25     7    22    1
    26     7    19    2
    27    27    22   ar
    28    27    32   ar
    29    22    18   ar
    30    32     6   ar
    31    18    12   ar
    32     6    12   ar
    33     6     5    1
    34    30    31    1
