@<TRIPOS>MOLECULE
3ac0_BGC_A_1.pdb
 12 12 0 0 0
SMALL
GASTEIGER

@<TRIPOS>ATOM
      1  C2        32.6820   -5.5090   14.4500 C.3   5001  BGC5001     0.2434
      2  C3        31.3830   -5.7390   15.2110 C.3   5001  BGC5001     0.2199
      3  C4        30.2800   -4.9170   14.5500 C.3   5001  BGC5001     0.2144
      4  C5        30.1080   -5.3240   13.0740 C.3   5001  BGC5001     0.1836
      5  C6        29.1610   -4.4330   12.2680 C.3   5001  BGC5001     0.2142
      6  C1        32.5290   -5.7690   12.9590 C.3   5001  BGC5001     0.3024
      7  O1        33.5350   -5.0270   12.2770 O.3   5001  BGC5001    -0.1869
      8  O2        33.6360   -6.4510   14.8850 O.3   5001  BGC5001    -0.2148
      9  O3        31.5720   -5.4300   16.5810 O.3   5001  BGC5001    -0.2174
     10  O4        29.0470   -5.1200   15.1890 O.3   5001  BGC5001    -0.2176
     11  O5        31.3360   -5.2690   12.3950 O.3   5001  BGC5001    -0.3236
     12  O6        29.7810   -3.1920   11.9450 O.3   5001  BGC5001    -0.2176
@<TRIPOS>BOND
     1    12     5    1
     2     5     4    1
     3     7     6    1
     4    11     6    1
     5    11     4    1
     6     6     1    1
     7     4     3    1
     8     1     8    1
     9     1     2    1
    10     3    10    1
    11     3     2    1
    12     2     9    1
