@<TRIPOS>MOLECULE
3ac1_KZI_A_1.pdb
 28 30 0 0 0
SMALL
GASTEIGER

@<TRIPOS>ATOM
      1  O1        -1.9000   10.3120   -3.9960 O.2   514  KZI514     -0.2649
      2  O2        -1.0770   11.2450  -10.1660 O.3   514  KZI514     -0.4713
      3  O3         2.1900    7.7460   -9.6660 O.3   514  KZI514     -0.4713
      4  N4         1.2180    7.7910   -5.1240 N.2   514  KZI514     -0.3695
      5  N5         2.8090    6.2540   -4.3530 N.pl3 514  KZI514     -0.2121
      6  N6        -1.6690    9.9260   -1.7890 N.am  514  KZI514     -0.0823
      7  N8         0.3570    8.1050   -2.5020 N.2   514  KZI514     -0.2531
      8  N9        -0.3770    9.3630   -5.8670 N.pl3 514  KZI514     -0.1820
      9  C10        0.5520    9.5010   -9.9540 C.ar  514  KZI514      0.0738
     10  C11        3.9220    4.5250   -5.6090 C.3   514  KZI514      0.0231
     11  C12        0.9230    8.5270   -7.7540 C.ar  514  KZI514      0.0537
     12  C13        0.2130    8.6600   -4.8750 C.2   514  KZI514      0.2266
     13  C14       -1.3430    9.7530   -3.0850 C.2   514  KZI514      0.3054
     14  C15        1.3450    7.2690   -2.8010 C.3   514  KZI514      0.2015
     15  C16       -0.7110   10.2690   -8.0140 C.ar  514  KZI514      0.0537
     16  C17       -0.2430    8.8110   -3.4680 C.2   514  KZI514      0.1789
     17  C18       -0.0460    9.3690   -7.1910 C.ar  514  KZI514      0.0792
     18  C19       -0.4240   10.3310   -9.3760 C.ar  514  KZI514      0.1431
     19  C20        3.2860    5.9190   -5.6940 C.3   514  KZI514      0.1122
     20  C21       -0.3220   11.8730  -11.2240 C.3   514  KZI514      0.2525
     21  C22        1.7930    7.1140   -4.1130 C.2   514  KZI514      0.2023
     22  C23        1.2270    8.5840   -9.1300 C.ar  514  KZI514      0.1431
     23  C24        4.2360    7.0130   -6.2070 C.3   514  KZI514      0.1117
     24  C25        4.8650    4.1780   -6.7600 C.3   514  KZI514      0.0019
     25  C26        5.8030    5.3340   -7.1120 C.3   514  KZI514      0.0016
     26  C27        2.0450    7.1990  -10.9820 C.3   514  KZI514      0.2525
     27  C28        4.9950    6.5830   -7.4550 C.3   514  KZI514      0.0208
     28  N42        5.1880    7.3770   -5.1700 N.3   514  KZI514     -0.1311
@<TRIPOS>BOND
     1    20     2    1
     2    26     3    1
     3     2    18    1
     4     9    18   ar
     5     9    22   ar
     6     3    22    1
     7    18    15   ar
     8    22    11   ar
     9    15    17   ar
    10    11    17   ar
    11    27    25    1
    12    27    23    1
    13    17     8    1
    14    25    24    1
    15    24    10    1
    16    23    19    1
    17    23    28    1
    18     8    12    1
    19    19    10    1
    20    19     5    1
    21     4    12    2
    22     4    21    2
    23    12    16    1
    24     5    21    1
    25    21    14    1
    26     1    13    2
    27    16    13    1
    28    16     7    2
    29    13     6   am
    30    14     7    1
