@<TRIPOS>MOLECULE
3ac2_KSE_A_1.pdb
 30 32 0 0 0
SMALL
GASTEIGER

@<TRIPOS>ATOM
      1  C1        26.4570   37.0210    8.7410 C.2   514  KSE514      0.4076
      2  N2        26.6890   36.0220    7.8560 N.2   514  KSE514      0.1453
      3  N3        25.4110   35.8020    7.2890 N.pl3 514  KSE514      0.0646
      4  C4        24.4060   36.5720    7.7160 C.2   514  KSE514      0.3174
      5  C5        25.0520   37.4440    8.7020 C.3   514  KSE514      0.2882
      6  C6        25.1730   34.8930    6.3410 C.2   514  KSE514      0.3618
      7  C7        23.8700   34.7860    5.8380 C.2   514  KSE514      0.1188
      8  C8        22.8460   35.6180    6.3220 C.2   514  KSE514      0.1204
      9  N9        23.1300   36.5350    7.2720 N.2   514  KSE514     -0.3694
     10  C11       21.4400   35.4860    5.7910 C.3   514  KSE514      0.0668
     11  N15       26.1710   34.0960    5.8840 N.pl3 514  KSE514     -0.0312
     12  C16       26.5060   32.8580    6.5720 C.3   514  KSE514      0.2682
     13  C17       27.8430   32.3380    6.0490 C.3   514  KSE514      0.1241
     14  N20       28.3720   31.3760    7.0250 N.3   514  KSE514     -0.1300
     15  C21       28.8580   33.4790    5.8880 C.3   514  KSE514      0.0235
     16  C25       27.5970   31.6280    4.7140 C.3   514  KSE514      0.0235
     17  N32       27.3660   37.6070    9.5440 N.pl3 514  KSE514     -0.0051
     18  C33       28.6830   37.2710    9.5170 C.ar  514  KSE514      0.1893
     19  C34       29.5160   37.8760   10.4510 C.ar  514  KSE514      0.0814
     20  C35       30.8740   37.5470   10.4750 C.ar  514  KSE514      0.1453
     21  C36       31.4050   36.6270    9.5650 C.ar  514  KSE514      0.0740
     22  C37       30.5800   36.0120    8.6280 C.ar  514  KSE514      0.1453
     23  C38       29.2140   36.3460    8.5980 C.ar  514  KSE514      0.0814
     24  C42       24.3830   38.4730    9.5140 C.2   514  KSE514      0.2832
     25  O43       25.1740   39.2030   10.0780 O.2   514  KSE514     -0.2704
     26  N44       23.0340   38.5510    9.5970 N.am  514  KSE514     -0.0868
     27  O48       31.6940   38.1020   11.4220 O.3   514  KSE514     -0.4712
     28  O49       31.1170   35.0830    7.7600 O.3   514  KSE514     -0.4712
     29  C50       32.4390   35.2140    7.2180 C.3   514  KSE514      0.2525
     30  C54       32.6980   37.2710   12.0260 C.3   514  KSE514      0.2525
@<TRIPOS>BOND
     1    16    13    1
     2    10     8    1
     3     7     8    1
     4     7     6    2
     5    11     6    1
     6    11    12    1
     7    15    13    1
     8    13    12    1
     9    13    14    1
    10     8     9    2
    11     6     3    1
    12    29    28    1
    13     9     4    2
    14     3     4    1
    15     3     2    1
    16     4     5    1
    17    28    22    1
    18     2     1    2
    19    23    22   ar
    20    23    18   ar
    21    22    21   ar
    22     5     1    1
    23     5    24    1
    24     1    17    1
    25    24    26   am
    26    24    25    2
    27    18    17    1
    28    18    19   ar
    29    21    20   ar
    30    19    20   ar
    31    20    27    1
    32    27    30    1
