@<TRIPOS>MOLECULE
3ac3_KSH_A_1.pdb
 32 35 0 0 0
SMALL
GASTEIGER

@<TRIPOS>ATOM
      1  N1         5.5560    1.4500   -7.7850 N.pl3 511  KSH511      0.0610
      2  C2         5.2420    2.4160   -6.9070 C.2   511  KSH511      0.3246
      3  C3         3.9100    2.5320   -6.5030 C.2   511  KSH511      0.1151
      4  C4         2.9320    1.6670   -7.0020 C.2   511  KSH511      0.1199
      5  N5         3.2810    0.7090   -7.8860 N.2   511  KSH511     -0.3694
      6  C6         4.5840    0.6470   -8.2360 C.2   511  KSH511      0.3173
      7  C7         5.2670   -0.2750   -9.1630 C.3   511  KSH511      0.2882
      8  C8         6.6850    0.1510   -9.1340 C.2   511  KSH511      0.4076
      9  N9         6.8610    1.2040   -8.2910 N.2   511  KSH511      0.1452
     10  C10        4.5410   -1.3480   -9.8990 C.2   511  KSH511      0.2832
     11  O11        5.1680   -2.1370  -10.5810 O.2   511  KSH511     -0.2704
     12  N12        3.2160   -1.4150   -9.7910 N.am  511  KSH511     -0.0868
     13  N16        7.6690   -0.4420   -9.8510 N.pl3 511  KSH511     -0.0051
     14  C17        8.9610   -0.0500   -9.7540 C.ar  511  KSH511      0.1893
     15  C18        9.3780    0.7680   -8.7060 C.ar  511  KSH511      0.0814
     16  C19       10.7100    1.1670   -8.6120 C.ar  511  KSH511      0.1453
     17  C20       11.6280    0.7480   -9.5700 C.ar  511  KSH511      0.0740
     18  C21       11.2190   -0.0700  -10.6180 C.ar  511  KSH511      0.1453
     19  C22        9.8860   -0.4690  -10.7090 C.ar  511  KSH511      0.0814
     20  O26       12.1320   -0.4780  -11.5580 O.3   511  KSH511     -0.4712
     21  C27       13.2970   -1.2030  -11.1630 C.3   511  KSH511      0.2525
     22  O31       11.1190    1.9720   -7.5780 O.3   511  KSH511     -0.4712
     23  C32       12.1810    1.5600   -6.7160 C.3   511  KSH511      0.2525
     24  C37        1.4910    1.8040   -6.5610 C.3   511  KSH511      0.0594
     25  C38        0.8180    0.4470   -6.5190 C.3   511  KSH511      0.0079
     26  N42        6.2060    3.2950   -6.3810 N.pl3 511  KSH511     -0.1930
     27  C43        6.1540    3.7600   -4.9980 C.3   511  KSH511      0.2022
     28  C44        7.5180    4.3960   -4.7620 C.3   511  KSH511      0.0550
     29  C45        8.2780    4.3660   -6.0780 C.3   511  KSH511      0.0536
     30  C46        7.3370    3.8180   -7.1450 C.3   511  KSH511      0.1929
     31  C53        6.7770    4.9720   -7.9720 C.3   511  KSH511      0.2282
     32  O55        7.5450    6.1620   -7.7440 O.3   511  KSH511     -0.2159
@<TRIPOS>BOND
     1    20    21    1
     2    20    18    1
     3    19    18   ar
     4    19    14   ar
     5    18    17   ar
     6    11    10    2
     7    10    12   am
     8    10     7    1
     9    13    14    1
    10    13     8    1
    11    14    15   ar
    12    17    16   ar
    13     7     8    1
    14     7     6    1
    15     8     9    2
    16    15    16   ar
    17    16    22    1
    18     9     1    1
    19     6     5    2
    20     6     1    1
    21    31    32    1
    22    31    30    1
    23     5     4    2
    24     1     2    1
    25    22    23    1
    26    30    26    1
    27    30    29    1
    28     4    24    1
    29     4     3    1
    30     2     3    2
    31     2    26    1
    32    24    25    1
    33    26    27    1
    34    29    28    1
    35    27    28    1
