@<TRIPOS>MOLECULE
3ac4_KZL_A_1.pdb
 29 31 0 0 0
SMALL
GASTEIGER

@<TRIPOS>ATOM
      1  C1        10.3710   -0.8690  -10.4050 C.ar  513  KZL513      0.1431
      2  C2        11.0500    0.1020   -9.6730 C.ar  513  KZL513      0.0738
      3  C3        10.3420    1.0980   -9.0070 C.ar  513  KZL513      0.1431
      4  C4         8.9520    1.1230   -9.0780 C.ar  513  KZL513      0.0537
      5  C5         8.2680    0.1540   -9.8090 C.ar  513  KZL513      0.0788
      6  C6         8.9810   -0.8410  -10.4730 C.ar  513  KZL513      0.0537
      7  O7        11.0720   -1.8520  -11.0580 O.3   513  KZL513     -0.4713
      8  C8        12.1790   -2.4940  -10.4240 C.3   513  KZL513      0.2525
      9  O9        11.0090    2.0560   -8.2850 O.3   513  KZL513     -0.4713
     10  C10       11.7330    1.7020   -7.1070 C.3   513  KZL513      0.2525
     11  N11        6.9170    0.1780   -9.8820 N.pl3 513  KZL513     -0.1862
     12  C12        6.1790    0.9210   -9.0260 C.2   513  KZL513      0.1991
     13  N13        6.6610    2.0570   -8.4690 N.2   513  KZL513     -0.3559
     14  C14        5.9270    2.8080   -7.6020 C.2   513  KZL513      0.2776
     15  N15        4.6650    2.4840   -7.2470 N.ar  513  KZL513     -0.2347
     16  C16        4.0620    1.3810   -7.7280 C.ar  513  KZL513      0.1668
     17  C17        4.8040    0.5100   -8.6720 C.3   513  KZL513      0.2066
     18  C18        4.1850   -0.7250   -9.2470 C.2   513  KZL513      0.2758
     19  O19        4.8590   -1.4470   -9.9590 O.2   513  KZL513     -0.2707
     20  N20        2.9070   -0.9900   -8.9800 N.am  513  KZL513     -0.0870
     21  N21        2.8190    1.2950   -7.2120 N.ar  513  KZL513     -0.1318
     22  N22        2.6570    2.4030   -6.3710 N.ar  513  KZL513     -0.1254
     23  C23        3.8090    3.1050   -6.4220 C.ar  513  KZL513      0.2095
     24  N24        6.4800    3.9370   -7.0930 N.pl3 513  KZL513     -0.1959
     25  C25        7.1890    3.9770   -5.8240 C.3   513  KZL513      0.0975
     26  C26        8.5440    4.6420   -6.0540 C.3   513  KZL513      0.1292
     27  C27        7.3760    2.5620   -5.2890 C.3   513  KZL513      0.0233
     28  C28        6.3710    4.7950   -4.8300 C.3   513  KZL513      0.0233
     29  N29        9.1640    4.9780   -4.7860 N.3   513  KZL513     -0.1296
@<TRIPOS>BOND
     1     7     8    1
     2     7     1    1
     3     6     1   ar
     4     6     5   ar
     5     1     2   ar
     6    19    18    2
     7    11     5    1
     8    11    12    1
     9     5     4   ar
    10     2     3   ar
    11    18    20   am
    12    18    17    1
    13     4     3   ar
    14    12    17    1
    15    12    13    2
    16     3     9    1
    17    17    16    1
    18    13    14    2
    19     9    10    1
    20    16    15   ar
    21    16    21   ar
    22    14    15    1
    23    14    24    1
    24    15    23   ar
    25    21    22   ar
    26    24    25    1
    27    23    22   ar
    28    26    25    1
    29    26    29    1
    30    25    27    1
    31    25    28    1
