@<TRIPOS>MOLECULE
3ac5_KZM_A_1.pdb
 38 42 0 0 0
SMALL
GASTEIGER

@<TRIPOS>ATOM
      1  O1        25.6210   38.9640   10.3440 O.2   513  KZM513     -0.2706
      2  O2        31.8320   38.1670   11.2130 O.3   513  KZM513     -0.4713
      3  O3        31.0940   34.4740    8.2360 O.3   513  KZM513     -0.4713
      4  N4        26.7650   35.6330    7.9940 N.2   513  KZM513     -0.3567
      5  N5        26.0040   33.9630    6.4940 N.pl3 513  KZM513     -0.1951
      6  N6        23.4440   38.4900   10.0640 N.am  513  KZM513     -0.0870
      7  C7        24.0920   36.4090    8.2040 C.2   513  KZM513      0.2148
      8  N8        27.5030   37.3530    9.5400 N.pl3 513  KZM513     -0.1862
      9  C9        31.4880   36.3230    9.7160 C.ar  513  KZM513      0.0738
     10  C10       27.3570   32.4580    5.1580 C.3   513  KZM513      0.0232
     11  C11       29.2730   35.8880    8.8700 C.ar  513  KZM513      0.0537
     12  C12       26.5120   36.6840    8.8110 C.2   513  KZM513      0.1999
     13  C13       24.7400   38.2730    9.8560 C.2   513  KZM513      0.2767
     14  N14       24.4820   35.4130    7.4420 N.pl3 513  KZM513     -0.1134
     15  C15       29.6600   37.7400   10.3570 C.ar  513  KZM513      0.0537
     16  C16       25.1140   37.1340    8.9700 C.3   513  KZM513      0.2173
     17  C17       28.7980   36.9810    9.5850 C.ar  513  KZM513      0.0788
     18  C18       31.0030   37.4140   10.4280 C.ar  513  KZM513      0.1431
     19  C19       27.2620   33.2440    6.4660 C.3   513  KZM513      0.1138
     20  C20       32.8620   37.5290   11.9750 C.3   513  KZM513      0.2525
     21  C21       25.7570   35.0090    7.3210 C.cat 513  KZM513      0.2847
     22  C22       30.6240   35.5570    8.9340 C.ar  513  KZM513      0.1431
     23  C23       27.3320   32.3160    7.6710 C.3   513  KZM513      0.1117
     24  C24       28.6770   31.7000    5.0240 C.3   513  KZM513      0.0019
     25  C25       29.3150   31.4180    6.3820 C.3   513  KZM513      0.0016
     26  C26       31.9200   34.6670    7.0910 C.3   513  KZM513      0.2525
     27  C27       28.2590   31.1210    7.4360 C.3   513  KZM513      0.0208
     28  N28       25.9890   31.8460    7.9690 N.3   513  KZM513     -0.1311
     29  N29       22.7460   36.4920    8.0620 N.2   513  KZM513     -0.3356
     30  N30       23.4250   34.8080    6.7820 N.2   513  KZM513     -0.1026
     31  C31       22.3400   35.5130    7.2030 C.1   513  KZM513      0.1046
     32  C32       20.9430   35.2500    6.7430 C.ar  513  KZM513      0.0786
     33  C33       20.4690   33.9450    6.6790 C.ar  513  KZM513      0.0113
     34  C34       20.1290   36.2980    6.3300 C.ar  513  KZM513      0.0531
     35  C35       19.1800   33.6820    6.2290 C.ar  513  KZM513      0.0040
     36  C36       18.8380   36.0350    5.8820 C.ar  513  KZM513      0.1964
     37  C37       18.3610   34.7280    5.8340 C.ar  513  KZM513      0.0421
     38  O66       18.0370   37.0600    5.4790 O.3   513  KZM513     -0.2865
@<TRIPOS>BOND
     1    24    10    1
     2    24    25    1
     3    10    19    1
     4    38    36    1
     5    37    36   ar
     6    37    35   ar
     7    36    34   ar
     8    35    33   ar
     9    34    32   ar
    10    25    27    1
    11    19     5    1
    12    19    23    1
    13     5    21    1
    14    33    32   ar
    15    32    31    1
    16    30    31    2
    17    30    14    1
    18    26     3    1
    19    31    29    2
    20    21    14    1
    21    21     4    2
    22    27    23    1
    23    14     7    1
    24    23    28    1
    25     4    12    2
    26    29     7    2
    27     7    16    1
    28     3    22    1
    29    12    16    1
    30    12     8    1
    31    11    22   ar
    32    11    17   ar
    33    22     9   ar
    34    16    13    1
    35     8    17    1
    36    17    15   ar
    37     9    18   ar
    38    13     6   am
    39    13     1    2
    40    15    18   ar
    41    18     2    1
    42     2    20    1
