@<TRIPOS>MOLECULE
3ac8_KSK_A_1.pdb
 32 35 0 0 0
SMALL
GASTEIGER

@<TRIPOS>ATOM
      1  N1        -3.0770    1.7260    7.7890 N.pl3   1  KSK1        0.0646
      2  C2        -2.5130    2.7600    7.1540 C.2     1  KSK1        0.3618
      3  C3        -1.1160    2.8270    7.0970 C.2     1  KSK1        0.1188
      4  C4        -0.3240    1.8410    7.6900 C.2     1  KSK1        0.1196
      5  N5        -0.9250    0.8110    8.3250 N.2     1  KSK1       -0.3694
      6  C6        -2.2760    0.8050    8.3430 C.2     1  KSK1        0.3174
      7  C7        -3.2110   -0.1560    8.9420 C.3     1  KSK1        0.2882
      8  C8        -4.5510    0.3840    8.6390 C.2     1  KSK1        0.4076
      9  N9        -4.4800    1.5350    7.9240 N.2     1  KSK1        0.1453
     10  C10       -2.8070   -1.3710    9.6990 C.2     1  KSK1        0.2832
     11  O11       -3.6940   -2.0390   10.2060 O.2     1  KSK1       -0.2704
     12  N12       -1.5150   -1.6810    9.8260 N.am    1  KSK1       -0.0868
     13  N13       -5.6670   -0.2670    9.0390 N.pl3   1  KSK1       -0.0051
     14  C14       -6.9280    0.2180    9.0130 C.ar    1  KSK1        0.1893
     15  C15       -7.2880    1.3400    8.2690 C.ar    1  KSK1        0.0814
     16  C16       -8.6090    1.7800    8.2850 C.ar    1  KSK1        0.1453
     17  C17       -9.5660    1.0950    9.0330 C.ar    1  KSK1        0.0740
     18  C18       -9.2000   -0.0260    9.7750 C.ar    1  KSK1        0.1453
     19  C19       -7.8830   -0.4560    9.7580 C.ar    1  KSK1        0.0814
     20  O20      -10.1160   -0.7260   10.5250 O.3     1  KSK1       -0.4712
     21  C21      -11.3680   -0.1420   10.8840 C.3     1  KSK1        0.2525
     22  O22       -8.9700    2.8830    7.5570 O.3     1  KSK1       -0.4712
     23  C23       -8.0050    3.8910    7.2640 C.3     1  KSK1        0.2525
     24  C24        1.1560    1.9270    7.6230 C.3     1  KSK1        0.0528
     25  C25        1.7070    0.8110    6.7430 C.3     1  KSK1        0.0074
     26  N26       -3.2740    3.7210    6.5840 N.pl3   1  KSK1       -0.0312
     27  C27       -2.7760    5.0790    6.4430 C.3     1  KSK1        0.2682
     28  C28       -2.9420    5.9120    7.7220 C.3     1  KSK1        0.1241
     29  N29       -2.5400    7.2870    7.4180 N.3     1  KSK1       -0.1300
     30  C30        1.7960    0.6950    8.2590 C.3     1  KSK1        0.0074
     31  C31       -2.0570    5.3910    8.8510 C.3     1  KSK1        0.0235
     32  C32       -4.3950    5.9480    8.1860 C.3     1  KSK1        0.0235
@<TRIPOS>BOND
     1    27    26    1
     2    27    28    1
     3    26     2    1
     4    25    24    1
     5    25    30    1
     6     3     2    2
     7     3     4    1
     8     2     1    1
     9    23    22    1
    10    29    28    1
    11    22    16    1
    12    24     4    1
    13    24    30    1
    14     4     5    2
    15    28    32    1
    16    28    31    1
    17     1     9    1
    18     1     6    1
    19     9     8    2
    20    15    16   ar
    21    15    14   ar
    22    16    17   ar
    23     5     6    2
    24     6     7    1
    25     8     7    1
    26     8    13    1
    27     7    10    1
    28    14    13    1
    29    14    19   ar
    30    17    18   ar
    31    10    12   am
    32    10    11    2
    33    19    18   ar
    34    18    20    1
    35    20    21    1
