@<TRIPOS>MOLECULE
3ac9_8GD_A_1.pdb
 19 21 0 0 0
SMALL
GASTEIGER

@<TRIPOS>ATOM
      1  N1         0.7080   16.6880   73.5200 N.2     2  8GD2       -0.2475
      2  C2         0.0280   17.1610   72.4130 C.1     2  8GD2        0.2532
      3  N2        -1.2520   17.5390   72.6160 N.pl3   2  8GD2       -0.0226
      4  N3         0.5670   17.2560   71.1950 N.2     2  8GD2       -0.3052
      5  C4         1.8590   16.8290   71.1750 C.2     2  8GD2        0.2558
      6  C5         2.6100   16.3420   72.2220 C.2     2  8GD2        0.2850
      7  C6         2.0290   16.2450   73.5090 C.1     2  8GD2        0.2509
      8  O6         2.5570   15.8350   74.5510 O.2     2  8GD2       -0.2058
      9  N7         3.8920   16.0120   71.7980 N.2     2  8GD2       -0.3037
     10  C8         3.9080   16.2940   70.5210 C.1     2  8GD2        0.2771
     11  O8         4.9150   16.1120   69.8370 O.2     2  8GD2       -0.1925
     12  N9         2.6990   16.8010   70.0770 N.am    2  8GD2       -0.1521
     13  C1'        2.3120   17.2320   68.7120 C.3     2  8GD2        0.2114
     14  C2'        3.3600   18.0000   67.9160 C.3     2  8GD2        0.0874
     15  C3'        4.0690   16.9140   67.1110 C.3     2  8GD2        0.1832
     16  O3'        4.4900   17.4230   65.8460 O.3     2  8GD2       -0.2204
     17  C4'        2.9600   15.8990   66.8670 C.3     2  8GD2        0.1475
     18  O4'        2.0190   16.0620   67.9550 O.3     2  8GD2       -0.3365
     19  C5'        3.4370   14.4600   66.8130 C.3     2  8GD2        0.0348
@<TRIPOS>BOND
     1    16    15    1
     2    19    17    1
     3    17    15    1
     4    17    18    1
     5    15    14    1
     6    14    13    1
     7    18    13    1
     8    13    12    1
     9    11    10    2
    10    12    10   am
    11    12     5    1
    12    10     9    2
    13     5     4    2
    14     5     6    1
    15     4     2    2
    16     9     6    2
    17     6     7    1
    18     2     3    1
    19     2     1    2
    20     7     1    2
    21     7     8    2
