@<TRIPOS>MOLECULE
3aca_8DD_A_1.pdb
 27 29 0 0 0
SMALL
GASTEIGER

@<TRIPOS>ATOM
      1  N1         0.8080   16.4610   74.3300 N.2     2  8DD2        0.0031
      2  C2        -0.2170   16.9030   73.5920 C.3     2  8DD2        0.5255
      3  N3        -0.2510   17.1770   72.2890 N.2     2  8DD2       -0.0031
      4  C4         0.9450   16.9510   71.7230 C.2     2  8DD2        0.3789
      5  C5         2.0880   16.4990   72.3490 C.2     2  8DD2        0.3193
      6  C6         1.9970   16.2440   73.7310 C.2     2  8DD2        0.4527
      7  N6         3.0210   15.8030   74.4690 N.pl3   2  8DD2        0.2193
      8  N7         3.1260   16.3880   71.4400 N.2     2  8DD2       -0.2868
      9  C8         2.6040   16.7700   70.2960 C.1     2  8DD2        0.3662
     10  O8         3.2390   16.8000   69.2580 O.2     2  8DD2       -0.1677
     11  N9         1.2830   17.1260   70.4010 N.am    2  8DD2       -0.0586
     12  PA        -0.5870   14.6370   64.8430 P.3     2  8DD2        0.2231
     13  PB         2.1870   15.3190   64.0970 P.3     2  8DD2        0.5373
     14  C1'        0.3460   17.6010   69.3620 C.3     2  8DD2        0.3022
     15  O1A       -1.8240   15.4400   64.7030 O.3     2  8DD2       -0.4370
     16  O1B        2.8730   14.2760   65.0640 O.3     2  8DD2       -0.1143
     17  C2'        0.9510   18.0150   68.0290 C.3     2  8DD2        0.1164
     18  O2A       -0.4920   13.3760   64.0570 O.2     2  8DD2       -0.5169
     19  O2B        2.7940   16.6160   63.9230 O.3     2  8DD2       -0.1143
     20  C3'       -0.2000   17.7080   67.0800 C.3     2  8DD2        0.1883
     21  O3'       -1.2640   18.6350   67.2650 O.3     2  8DD2       -0.2202
     22  O3A        0.6830   15.6120   64.5230 O.3     2  8DD2       -0.2261
     23  O3B        2.0490   14.7400   62.7510 O.2     2  8DD2       -0.2221
     24  C4'       -0.6200   16.3590   67.6330 C.3     2  8DD2        0.1795
     25  O4'       -0.5560   16.5450   69.0600 O.3     2  8DD2       -0.3147
     26  C5'        0.3370   15.2570   67.2490 C.3     2  8DD2        0.1813
     27  O5'       -0.3320   14.3250   66.3820 O.3     2  8DD2       -0.3111
@<TRIPOS>BOND
     1    23    13    2
     2    19    13    1
     3    18    12    2
     4    13    22    1
     5    13    16    1
     6    22    12    1
     7    15    12    1
     8    12    27    1
     9    27    26    1
    10    20    21    1
    11    20    24    1
    12    20    17    1
    13    26    24    1
    14    24    25    1
    15    17    14    1
    16    25    14    1
    17    10     9    2
    18    14    11    1
    19     9    11   am
    20     9     8    2
    21    11     4    1
    22     8     5    2
    23     4     3    2
    24     4     5    1
    25     3     2    1
    26     5     6    1
    27     2     1    1
    28     6     1    2
    29     6     7    1
