@<TRIPOS>MOLECULE
3acc_5GP_A_1.pdb
 24 26 0 0 0
SMALL
GASTEIGER

@<TRIPOS>ATOM
      1  P         16.9630   20.9090   -4.6850 P.3   817  5GP817      0.5327
      2  O1P       17.2680   20.9620   -6.1280 O.2   817  5GP817     -0.2224
      3  O2P       17.9840   19.9050   -3.9700 O.3   817  5GP817     -0.1145
      4  O3P       15.4590   20.3830   -4.4630 O.3   817  5GP817     -0.1145
      5  O5'       17.0920   22.4130   -4.0890 O.3   817  5GP817     -0.2675
      6  C5'       17.4490   22.3330   -2.7130 C.3   817  5GP817      0.1859
      7  C4'       17.7560   23.7340   -2.1760 C.3   817  5GP817      0.1801
      8  O4'       18.0460   24.6570   -3.2740 O.3   817  5GP817     -0.3326
      9  C3'       16.5220   24.3300   -1.4770 C.3   817  5GP817      0.2158
     10  O3'       16.4250   23.8670   -0.1300 O.3   817  5GP817     -0.2175
     11  C2'       16.8240   25.8270   -1.5450 C.3   817  5GP817      0.2310
     12  O2'       17.6860   26.2490   -0.4790 O.3   817  5GP817     -0.2158
     13  C1'       17.5170   25.9720   -2.9180 C.3   817  5GP817      0.2293
     14  N9        16.5760   26.5250   -3.9080 N.pl3 817  5GP817     -0.2354
     15  C8        15.9330   25.8580   -4.9230 C.3   817  5GP817      0.2246
     16  N7        15.1710   26.6880   -5.5890 N.2   817  5GP817     -0.2322
     17  C5        15.2810   27.9240   -5.0460 C.2   817  5GP817      0.2182
     18  C6        14.7090   29.2110   -5.3240 C.1   817  5GP817      0.2372
     19  O6        13.9180   29.3640   -6.2430 O.2   817  5GP817     -0.2069
     20  N1        15.0700   30.2730   -4.5290 N.2   817  5GP817     -0.2485
     21  C2        15.9620   30.1040   -3.4890 C.1   817  5GP817      0.2531
     22  N2        16.3080   31.1740   -2.7050 N.pl3 817  5GP817     -0.0226
     23  N3        16.4900   28.9180   -3.2280 N.2   817  5GP817     -0.3074
     24  C4        16.1850   27.8280   -3.9650 C.2   817  5GP817      0.2300
@<TRIPOS>BOND
     1    19    18    2
     2     2     1    2
     3    16    17    2
     4    16    15    1
     5    18    17    1
     6    18    20    2
     7    17    24    1
     8    15    14    1
     9     1     4    1
    10     1     5    1
    11     1     3    1
    12    20    21    2
    13     5     6    1
    14    24    14    1
    15    24    23    2
    16    14    13    1
    17    21    23    2
    18    21    22    1
    19     8    13    1
    20     8     7    1
    21    13    11    1
    22     6     7    1
    23     7     9    1
    24    11     9    1
    25    11    12    1
    26     9    10    1
