@<TRIPOS>MOLECULE
3acd_IMP_A_1.pdb
 23 25 0 0 0
SMALL
GASTEIGER

@<TRIPOS>ATOM
      1  P         16.7990   20.9160   -4.5280 P.3   552  IMP552      0.5327
      2  O1P       17.0330   21.0860   -5.9780 O.2   552  IMP552     -0.2224
      3  O2P       17.8480   19.8540   -3.9430 O.3   552  IMP552     -0.1145
      4  O3P       15.2940   20.3930   -4.2870 O.3   552  IMP552     -0.1145
      5  O5'       16.9920   22.3570   -3.8130 O.3   552  IMP552     -0.2675
      6  C5'       17.5090   22.4050   -2.4850 C.3   552  IMP552      0.1860
      7  C4'       17.6780   23.8490   -2.0070 C.3   552  IMP552      0.1823
      8  O4'       17.8660   24.7540   -3.1370 O.3   552  IMP552     -0.3135
      9  C3'       16.3740   24.3620   -1.3540 C.3   552  IMP552      0.2184
     10  O3'       16.2490   23.9210   -0.0010 O.3   552  IMP552     -0.2174
     11  C2'       16.5910   25.8820   -1.4410 C.3   552  IMP552      0.2570
     12  O2'       17.3790   26.3580   -0.3450 O.3   552  IMP552     -0.2130
     13  C1'       17.3470   26.0500   -2.7700 C.3   552  IMP552      0.3186
     14  N9        16.4140   26.5660   -3.8000 N.pl3 552  IMP552     -0.1435
     15  C8        15.8350   25.8650   -4.8330 C.3   552  IMP552      0.3382
     16  N7        15.0640   26.6530   -5.5350 N.2   552  IMP552     -0.2054
     17  C5        15.0940   27.8910   -4.9980 C.2   552  IMP552      0.2446
     18  C6        14.4780   29.1460   -5.3120 C.1   552  IMP552      0.1792
     19  O6        13.7160   29.2490   -6.2590 O.2   552  IMP552     -0.2203
     20  N1        14.7570   30.2280   -4.5130 N.2   552  IMP552     -0.1458
     21  C2        15.6130   30.1190   -3.4390 C.3   552  IMP552      0.4017
     22  N3        16.1890   28.9740   -3.1420 N.2   552  IMP552     -0.0334
     23  C4        15.9630   27.8500   -3.8780 C.2   552  IMP552      0.3528
@<TRIPOS>BOND
     1    19    18    2
     2     2     1    2
     3    16    17    2
     4    16    15    1
     5    18    17    1
     6    18    20    2
     7    17    23    1
     8    15    14    1
     9     1     4    1
    10     1     3    1
    11     1     5    1
    12    20    21    1
    13    23    14    1
    14    23    22    2
    15     5     6    1
    16    14    13    1
    17    21    22    1
    18     8    13    1
    19     8     7    1
    20    13    11    1
    21     6     7    1
    22     7     9    1
    23    11     9    1
    24    11    12    1
    25     9    10    1
