@<TRIPOS>MOLECULE
3acg_BGC_A_1.pdb
 12 12 0 0 0
SMALL
GASTEIGER

@<TRIPOS>ATOM
      1  C2        -3.3230   21.2730    6.4890 C.3   403  BGC403      0.2434
      2  C3        -4.1730   20.3260    7.4190 C.3   403  BGC403      0.2199
      3  C4        -5.1730   19.5730    6.5120 C.3   403  BGC403      0.2144
      4  C5        -4.6200   19.0430    5.1600 C.3   403  BGC403      0.1836
      5  C6        -5.6750   18.4030    4.2580 C.3   403  BGC403      0.2142
      6  C1        -2.8020   20.5820    5.2340 C.3   403  BGC403      0.3024
      7  O1        -1.9650   21.4540    4.4620 O.3   403  BGC403     -0.1869
      8  O2        -2.0950   21.5950    7.0890 O.3   403  BGC403     -0.2148
      9  O3        -4.7460   20.9720    8.5380 O.3   403  BGC403     -0.2174
     10  O4        -5.6390   18.4270    7.1970 O.3   403  BGC403     -0.2176
     11  O5        -3.8450   20.0290    4.4210 O.3   403  BGC403     -0.3236
     12  O6        -6.5730   19.4660    3.9060 O.3   403  BGC403     -0.2176
@<TRIPOS>BOND
     1    12     5    1
     2     5     4    1
     3    11     4    1
     4    11     6    1
     5     7     6    1
     6     4     3    1
     7     6     1    1
     8     1     8    1
     9     1     2    1
    10     3    10    1
    11     3     2    1
    12     2     9    1
