@<TRIPOS>MOLECULE
3ach_BGC_A_1.pdb
 12 12 0 0 0
SMALL
GASTEIGER

@<TRIPOS>ATOM
      1  C2         4.8550   22.7100    0.2250 C.3   401  BGC401      0.2434
      2  C3         3.8470   21.6680    0.7490 C.3   401  BGC401      0.2199
      3  C4         2.4640   22.0970    0.3190 C.3   401  BGC401      0.2144
      4  C5         2.4660   22.2770   -1.2340 C.3   401  BGC401      0.1836
      5  C6         1.0960   22.7120   -1.8290 C.3   401  BGC401      0.2142
      6  C1         4.7180   22.7640   -1.2770 C.3   401  BGC401      0.3024
      7  O1         5.6350   23.7350   -1.7560 O.3   401  BGC401     -0.1869
      8  O2         6.1650   22.2560    0.5240 O.3   401  BGC401     -0.2148
      9  O3         3.9810   21.5340    2.1440 O.3   401  BGC401     -0.2174
     10  O4         1.5110   21.0650    0.6080 O.3   401  BGC401     -0.2176
     11  O5         3.4220   23.3090   -1.5290 O.3   401  BGC401     -0.3236
     12  O6         0.6260   23.8510   -1.1460 O.3   401  BGC401     -0.2176
@<TRIPOS>BOND
     1     5     4    1
     2     5    12    1
     3     7     6    1
     4    11     6    1
     5    11     4    1
     6     6     1    1
     7     4     3    1
     8     1     8    1
     9     1     2    1
    10     3    10    1
    11     3     2    1
    12     2     9    1
