@<TRIPOS>MOLECULE
3aci_BGC_A_1.pdb
 12 12 0 0 0
SMALL
GASTEIGER

@<TRIPOS>ATOM
      1  C2         4.9590   22.6900    0.3220 C.3   401  BGC401      0.2434
      2  C3         3.8900   21.6690    0.8150 C.3   401  BGC401      0.2199
      3  C4         2.4850   22.1000    0.3900 C.3   401  BGC401      0.2144
      4  C5         2.4770   22.2910   -1.1380 C.3   401  BGC401      0.1836
      5  C6         1.1570   22.8290   -1.7770 C.3   401  BGC401      0.2142
      6  C1         4.8150   22.8380   -1.1910 C.3   401  BGC401      0.3024
      7  O1         5.6760   23.9050   -1.5630 O.3   401  BGC401     -0.1869
      8  O2         6.2130   22.1490    0.7160 O.3   401  BGC401     -0.2148
      9  O3         3.9390   21.4690    2.2170 O.3   401  BGC401     -0.2174
     10  O4         1.5270   21.0240    0.6790 O.3   401  BGC401     -0.2176
     11  O5         3.4810   23.2470   -1.4170 O.3   401  BGC401     -0.3236
     12  O6         0.7780   23.9420   -0.9750 O.3   401  BGC401     -0.2176
@<TRIPOS>BOND
     1     5     4    1
     2     5    12    1
     3     7     6    1
     4    11     6    1
     5    11     4    1
     6     6     1    1
     7     4     3    1
     8     1     8    1
     9     1     2    1
    10     3    10    1
    11     3     2    1
    12     2     9    1
