@<TRIPOS>MOLECULE
3acj_KSS_A_1.pdb
 22 24 0 0 0
SMALL
GASTEIGER

@<TRIPOS>ATOM
      1  C1        25.9130   38.0460    9.7430 C.ar  513  KSS513      0.1336
      2  N2        25.3470   37.2080    8.8670 N.ar  513  KSS513     -0.2619
      3  C3        23.9360   37.4160    8.6400 C.ar  513  KSS513      0.1046
      4  C4        23.7440   38.5530    9.6060 C.ar  513  KSS513      0.1193
      5  N5        24.9430   38.8630   10.1910 N.ar  513  KSS513     -0.2285
      6  C6        27.2570   37.9530   10.0310 C.3   513  KSS513      0.1232
      7  C7        27.9770   36.9680    9.3830 C.2   513  KSS513      0.1190
      8  N8        27.3470   36.1400    8.5130 N.2   513  KSS513     -0.3821
      9  C9        26.0320   36.2590    8.2430 C.2   513  KSS513      0.2271
     10  S12       25.2640   35.2390    7.1130 S.3   513  KSS513     -0.0640
     11  C13       26.4560   34.0540    6.5660 C.3   513  KSS513      0.0662
     12  C14       27.6140   34.7510    5.8830 C.3   513  KSS513      0.0130
     13  C21       29.4340   36.7960    9.6220 C.ar  513  KSS513      0.0291
     14  C22       30.1270   37.5900   10.5410 C.ar  513  KSS513      0.0055
     15  C23       31.5000   37.4090   10.7400 C.ar  513  KSS513      0.0401
     16  C24       32.2110   36.4460   10.0090 C.ar  513  KSS513      0.1724
     17  C25       31.4590   35.6310    8.9940 C.ar  513  KSS513      0.1725
     18  C26       30.0910   35.8380    8.8520 C.ar  513  KSS513      0.0423
     19  O30       33.5710   36.2830   10.2420 O.3   513  KSS513     -0.4684
     20  O31       32.0610   34.6510    8.2390 O.3   513  KSS513     -0.4684
     21  C32       34.3670   35.2620    9.6210 C.3   513  KSS513      0.2526
     22  C36       32.1780   34.7450    6.8170 C.3   513  KSS513      0.2526
@<TRIPOS>BOND
     1    12    11    1
     2    11    10    1
     3    22    20    1
     4    10     9    1
     5    20    17    1
     6     9     8    2
     7     9     2    1
     8     8     7    2
     9     3     2   ar
    10     3     4   ar
    11    18    17   ar
    12    18    13   ar
    13     2     1   ar
    14    17    16   ar
    15     7    13    1
    16     7     6    1
    17     4     5   ar
    18    21    19    1
    19    13    14   ar
    20     1     6    1
    21     1     5   ar
    22    16    19    1
    23    16    15   ar
    24    14    15   ar
