@<TRIPOS>MOLECULE
3ack_KSR_A_1.pdb
 21 24 0 0 0
SMALL
GASTEIGER

@<TRIPOS>ATOM
      1  C1        22.9390   37.3980    8.2780 C.2     1  KSR1        0.1207
      2  N2        24.0370   36.7580    7.8400 N.2     1  KSR1       -0.2351
      3  C3        25.1870   36.9600    8.5200 C.2     1  KSR1        0.1394
      4  C4        25.2370   37.8620    9.6830 C.1     1  KSR1        0.1013
      5  N5        24.0990   38.4660   10.0900 N.2     1  KSR1       -0.1797
      6  C6        22.9700   38.2440    9.3960 C.2     1  KSR1        0.1311
      7  C9        26.4550   36.3850    8.2310 C.3     1  KSR1        0.1171
      8  C10       27.1900   37.0040    9.1940 C.2     1  KSR1        0.1285
      9  N11       26.5180   37.8010   10.0940 N.2     1  KSR1       -0.3531
     10  C14       28.5920   36.7820    9.1750 C.ar    1  KSR1        0.0454
     11  C15       29.2660   35.7520    8.5010 C.ar    1  KSR1        0.0224
     12  C16       30.6710   35.8900    8.9420 C.ar    1  KSR1        0.0602
     13  N17       30.7520   36.9820    9.7420 N.ar    1  KSR1       -0.3240
     14  C18       29.5220   37.5030    9.8710 C.ar    1  KSR1        0.0782
     15  C20       28.8340   34.6290    7.8060 C.ar    1  KSR1        0.0385
     16  C21       29.8000   33.7540    7.3100 C.ar    1  KSR1        0.1388
     17  C22       31.1480   33.9160    7.6510 C.ar    1  KSR1        0.0384
     18  C23       31.5910   34.9650    8.4620 C.ar    1  KSR1        0.0203
     19  C27       32.0110   37.5140   10.3260 C.3     1  KSR1        0.1305
     20  O31       29.4160   32.6950    6.5210 O.3     1  KSR1       -0.4714
     21  C32       29.5880   32.7370    5.1040 C.3     1  KSR1        0.2525
@<TRIPOS>BOND
     1    21    20    1
     2    20    16    1
     3    16    17   ar
     4    16    15   ar
     5    17    18   ar
     6    15    11   ar
     7     2     1    1
     8     2     3    2
     9     7     3    1
    10     7     8    1
    11     1     6    2
    12    18    12   ar
    13    11    12   ar
    14    11    10   ar
    15     3     4    1
    16    12    13   ar
    17    10     8    1
    18    10    14   ar
    19     8     9    2
    20     6     5    1
    21     4     5    2
    22     4     9    2
    23    13    14   ar
    24    13    19    1
