@<TRIPOS>MOLECULE
3acs_BGC_A_1.pdb
 12 12 0 0 0
SMALL
GASTEIGER

@<TRIPOS>ATOM
      1  C2         5.4420   43.1010   82.1160 C.3   1901  BGC1901     0.2434
      2  C3         6.8740   43.1550   82.6290 C.3   1901  BGC1901     0.2199
      3  C4         7.3430   44.6130   82.7020 C.3   1901  BGC1901     0.2144
      4  C5         6.3630   45.4470   83.5320 C.3   1901  BGC1901     0.1836
      5  C6         6.7130   46.9480   83.6080 C.3   1901  BGC1901     0.2142
      6  C1         4.5890   43.9090   83.0940 C.3   1901  BGC1901     0.3024
      7  O1         3.2360   43.9090   82.7150 O.3   1901  BGC1901    -0.1869
      8  O2         4.9960   41.7710   81.9600 O.3   1901  BGC1901    -0.2148
      9  O3         7.7460   42.3930   81.8320 O.3   1901  BGC1901    -0.2174
     10  O4         8.6570   44.6770   83.2590 O.3   1901  BGC1901    -0.2176
     11  O5         5.0590   45.2430   83.0130 O.3   1901  BGC1901    -0.3236
     12  O6         5.7900   47.7000   84.4000 O.3   1901  BGC1901    -0.2176
@<TRIPOS>BOND
     1     9     2    1
     2     8     1    1
     3     1     2    1
     4     1     6    1
     5     2     3    1
     6     3    10    1
     7     3     4    1
     8     7     6    1
     9    11     6    1
    10    11     4    1
    11     4     5    1
    12     5    12    1
