@<TRIPOS>MOLECULE
3act_BGC_A_1.pdb
 12 12 0 0 0
SMALL
GASTEIGER

@<TRIPOS>ATOM
      1  C2         5.0730   42.9410   81.9750 C.3   2901  BGC2901     0.2434
      2  C3         6.5120   43.0080   82.4650 C.3   2901  BGC2901     0.2199
      3  C4         7.0020   44.4460   82.4640 C.3   2901  BGC2901     0.2144
      4  C5         6.0610   45.2910   83.3700 C.3   2901  BGC2901     0.1836
      5  C6         6.4430   46.7560   83.4390 C.3   2901  BGC2901     0.2142
      6  C1         4.2030   43.8550   82.8670 C.3   2901  BGC2901     0.3024
      7  O1         2.8770   43.8150   82.3170 O.3   2901  BGC2901    -0.1869
      8  O2         4.5390   41.6070   81.9860 O.3   2901  BGC2901    -0.2148
      9  O3         7.4140   42.2410   81.6520 O.3   2901  BGC2901    -0.2174
     10  O4         8.2280   44.4640   83.2000 O.3   2901  BGC2901    -0.2176
     11  O5         4.7570   45.1900   82.8480 O.3   2901  BGC2901    -0.3236
     12  O6         5.4970   47.5070   84.2120 O.3   2901  BGC2901    -0.2176
@<TRIPOS>BOND
     1     9     2    1
     2     1     8    1
     3     1     2    1
     4     1     6    1
     5     7     6    1
     6     3     2    1
     7     3    10    1
     8     3     4    1
     9    11     6    1
    10    11     4    1
    11     4     5    1
    12     5    12    1
