@<TRIPOS>MOLECULE
3acw_651_A_1.pdb
 21 24 0 0 0
SMALL
GASTEIGER

@<TRIPOS>ATOM
      1  OAA       54.8850   12.3290   53.3370 O.3   1001  6511001    -0.2197
      2  CAB       57.7110   21.0050   53.2580 C.ar  1001  6511001     0.0000
      3  CAC       57.9630   20.1180   54.3060 C.ar  1001  6511001     0.0000
      4  CAD       57.1980   20.4670   52.0800 C.ar  1001  6511001     0.0000
      5  CAE       57.6930   18.7580   54.1550 C.ar  1001  6511001    -0.0000
      6  CAF       56.9110   19.1060   51.9570 C.ar  1001  6511001    -0.0000
      7  CAG       56.3040   16.3200   51.7220 C.ar  1001  6511001    -0.0002
      8  CAH       57.1270   15.9370   53.8960 C.ar  1001  6511001    -0.0002
      9  CAI       56.0250   14.9650   51.5700 C.ar  1001  6511001    -0.0019
     10  CAJ       56.8350   14.5770   53.7630 C.ar  1001  6511001    -0.0019
     11  CAK       58.2670   11.6770   51.8540 C.3   1001  6511001     0.0202
     12  CAL       56.7100   10.2160   52.9660 C.3   1001  6511001     0.0202
     13  CAM       57.7060   11.0780   50.5680 C.3   1001  6511001     0.0723
     14  CAN       55.9580    9.8540   51.6870 C.3   1001  6511001     0.0723
     15  CAO       55.5750   12.1650   51.0450 C.3   1001  6511001     0.1071
     16  CAP       57.1490   18.2100   52.9940 C.ar  1001  6511001    -0.0000
     17  CAQ       56.8700   16.8530   52.8770 C.ar  1001  6511001    -0.0000
     18  CAR       56.2990   14.0520   52.5850 C.ar  1001  6511001     0.0064
     19  CAS       57.1380   11.6770   52.8780 C.3   1001  6511001     0.0361
     20  NAT       56.2470   10.8960   50.6860 N.3   1001  6511001    -0.2704
     21  CAU       55.9840   12.5840   52.4560 C.3   1001  6511001     0.1599
@<TRIPOS>BOND
     1    13    20    1
     2    13    11    1
     3    20    15    1
     4    20    14    1
     5    15    21    1
     6     9     7   ar
     7     9    18   ar
     8    14    12    1
     9     7    17   ar
    10    11    19    1
    11     6     4   ar
    12     6    16   ar
    13     4     2   ar
    14    21    18    1
    15    21    19    1
    16    21     1    1
    17    18    10   ar
    18    17    16    1
    19    17     8   ar
    20    19    12    1
    21    16     5   ar
    22     2     3   ar
    23    10     8   ar
    24     5     3   ar
