@<TRIPOS>MOLECULE
3acx_673_A_1.pdb
 23 24 0 0 0
SMALL
GASTEIGER

@<TRIPOS>ATOM
      1  CAA       56.3780   16.2930   57.5430 C.3   1001  6731001     0.0004
      2  CAB       52.6540    8.7070   53.9290 C.3   1001  6731001     0.0188
      3  CAC       52.5750   10.8840   55.2050 C.3   1001  6731001     0.0188
      4  CAD       56.9430   15.7410   56.4070 C.3   1001  6731001     0.0048
      5  CAE       58.2420   22.3580   53.7270 C.ar  1001  6731001     0.0000
      6  CAF       57.4630   22.0760   52.6320 C.ar  1001  6731001    -0.0000
      7  CAG       58.5460   21.3310   54.6090 C.ar  1001  6731001    -0.0000
      8  CAH       57.0470   20.7730   52.4150 C.ar  1001  6731001    -0.0000
      9  CAI       58.1220   20.0270   54.3810 C.ar  1001  6731001    -0.0000
     10  CAJ       56.3720   17.9780   51.8460 C.ar  1001  6731001     0.0031
     11  CAK       55.8350   16.6960   51.7200 C.ar  1001  6731001     0.0366
     12  CAL       56.8210   17.5110   54.1430 C.ar  1001  6731001    -0.0013
     13  CAM       56.2240   15.3030   55.2830 C.3   1001  6731001     0.0294
     14  CAN       55.0340   12.3450   51.8160 C.3   1001  6731001     0.0661
     15  CAO       54.6010   11.8740   53.2070 C.3   1001  6731001     0.0925
     16  CAP       55.9130   13.5920   51.9260 C.3   1001  6731001     0.2069
     17  NAQ       53.7210   10.7030   53.0610 N.3   1001  6731001    -0.2193
     18  OAR       55.2290   14.5830   52.6740 O.3   1001  6731001    -0.4757
     19  CAS       57.3810   19.7030   53.2540 C.ar  1001  6731001    -0.0000
     20  CAT       56.8940   18.3930   53.0660 C.ar  1001  6731001    -0.0001
     21  CAU       56.2800   16.2260   54.0490 C.ar  1001  6731001     0.0118
     22  CAV       55.8020   15.8160   52.8030 C.ar  1001  6731001     0.1345
     23  CAW       53.4150    9.9790   54.3110 C.3   1001  6731001     0.0729
@<TRIPOS>BOND
     1    11    10   ar
     2    11    22   ar
     3    14    16    1
     4    14    15    1
     5    10    20   ar
     6    16    18    1
     7     8     6   ar
     8     8    19   ar
     9     6     5   ar
    10    18    22    1
    11    22    21   ar
    12    17    15    1
    13    17    23    1
    14    20    19    1
    15    20    12   ar
    16    19     9   ar
    17     5     7   ar
    18     2    23    1
    19    21    12   ar
    20    21    13    1
    21    23     3    1
    22     9     7   ar
    23    13     4    1
    24     4     1    1
