@<TRIPOS>MOLECULE
3acy_702_A_1.pdb
 32 34 0 0 0
SMALL
GASTEIGER

@<TRIPOS>ATOM
      1  OAA       55.2230    7.1910   53.6830 O.3   1001  7021001    -0.0691
      2  OAB       56.1440    5.8310   52.1080 O.3   1001  7021001    -0.0691
      3  OAC       54.1830    5.0470   53.2970 O.3   1001  7021001    -0.0691
      4  OAD       51.6250    5.2660   51.5180 O.3   1001  7021001    -0.3560
      5  OAE       51.9790    6.7390   49.5300 O.2   1001  7021001    -0.4584
      6  OAF       53.4760    4.7790   49.8300 O.3   1001  7021001    -0.3560
      7  CAG       54.1410   16.1270   58.1480 C.ar  1001  7021001    -0.0000
      8  CAH       53.6030   15.4680   57.0460 C.ar  1001  7021001    -0.0003
      9  CAI       55.4970   16.4200   58.2330 C.ar  1001  7021001    -0.0003
     10  CAJ       57.1680   18.2490   53.0320 C.ar  1001  7021001    -0.0001
     11  CAK       56.3520   18.0460   51.9250 C.ar  1001  7021001     0.0031
     12  CAL       57.2170   12.1530   51.0470 C.ar  1001  7021001     0.0028
     13  CAM       54.4620   15.0910   56.0210 C.ar  1001  7021001    -0.0039
     14  CAN       56.3500   16.0640   57.1940 C.ar  1001  7021001    -0.0039
     15  CAO       56.2550   11.1810   50.7800 C.ar  1001  7021001    -0.0041
     16  CAP       56.8360   13.3380   51.6680 C.ar  1001  7021001     0.0375
     17  CAQ       57.2660   17.2700   54.0090 C.ar  1001  7021001    -0.0009
     18  CAR       55.6540   16.8480   51.7850 C.ar  1001  7021001     0.0372
     19  CAS       54.5430   12.5660   51.7280 C.ar  1001  7021001     0.0332
     20  CAT       53.9720    9.3340   51.9760 C.3   1001  7021001     0.0069
     21  CAU       53.8890   10.3080   50.8000 C.3   1001  7021001     0.0265
     22  CAV       53.0870    8.0960   51.8780 C.3   1001  7021001     0.0320
     23  CAW       56.7200   15.0190   54.9410 C.3   1001  7021001     0.0557
     24  OAX       55.0720   14.6770   52.6260 O.3   1001  7021001    -0.4538
     25  CAY       54.9150   11.3800   51.1060 C.ar  1001  7021001    -0.0192
     26  CAZ       55.8180   15.4050   56.0890 C.ar  1001  7021001    -0.0177
     27  CBA       55.5010   13.5320   52.0120 C.ar  1001  7021001     0.1450
     28  CBB       56.5820   16.0650   53.8640 C.ar  1001  7021001     0.0167
     29  CBC       55.7810   15.8450   52.7520 C.ar  1001  7021001     0.1416
     30  CBD       53.8600    6.8570   51.4220 C.3   1001  7021001     0.1869
     31  PBE       52.6370    5.8190   50.5370 P.3   1001  7021001     0.1393
     32  SBF       54.8230    6.2150   52.6470 S.3   1001  7021001     0.0275
@<TRIPOS>BOND
     1     5    31    2
     2     6    31    1
     3    31    30    1
     4    31     4    1
     5    15    12   ar
     6    15    25   ar
     7    21    25    1
     8    21    20    1
     9    12    16   ar
    10    25    19   ar
    11    30    22    1
    12    30    32    1
    13    16    27   ar
    14    19    27   ar
    15    18    11   ar
    16    18    29   ar
    17    22    20    1
    18    11    10   ar
    19    27    24    1
    20     2    32    1
    21    24    29    1
    22    32     3    1
    23    32     1    1
    24    29    28   ar
    25    10    17   ar
    26    28    17   ar
    27    28    23    1
    28    23    26    1
    29    13    26   ar
    30    13     8   ar
    31    26    14   ar
    32     8     7   ar
    33    14     9   ar
    34     7     9   ar
