@<TRIPOS>MOLECULE
3ad4_KBM_A_1.pdb
 20 22 0 0 0
SMALL
GASTEIGER

@<TRIPOS>ATOM
      1 CL1       -20.2160   -1.2390   -6.1270 Cl      1  KBM1       -0.0822
      2  C2       -21.7270   -0.6870   -7.0020 C.ar    1  KBM1        0.0577
      3  C3       -21.6050    0.3160   -7.9770 C.ar    1  KBM1        0.0115
      4  C4       -22.7140    0.8010   -8.6880 C.ar    1  KBM1        0.0042
      5  C5       -23.0210   -1.2100   -6.7650 C.ar    1  KBM1        0.0115
      6  C6       -24.1440   -0.7370   -7.4790 C.ar    1  KBM1        0.0042
      7  C7       -23.9980    0.2850   -8.4450 C.ar    1  KBM1        0.0421
      8  C8       -25.1510    0.8480   -9.2600 C.2     1  KBM1        0.2298
      9  O9       -24.9720    1.7380  -10.0840 O.2     1  KBM1       -0.2833
     10  C10      -26.5440    0.3550   -9.1030 C.ar    1  KBM1        0.1840
     11  O11      -27.4230    0.9870   -9.9670 O.2     1  KBM1       -0.4503
     12  C12      -28.7190    0.4540   -9.7420 C.ar    1  KBM1        0.1456
     13  C13      -29.9490    0.7490  -10.3430 C.ar    1  KBM1        0.0406
     14  C14      -27.1680   -0.6070   -8.2730 C.ar    1  KBM1        0.0439
     15  C15      -28.5640   -0.5510   -8.6750 C.ar    1  KBM1        0.0407
     16  C16      -29.6930   -1.2450   -8.2420 C.ar    1  KBM1        0.0400
     17  C17      -30.9330   -0.9470   -8.8450 C.ar    1  KBM1        0.1389
     18  C18      -31.0560    0.0240   -9.8760 C.ar    1  KBM1        0.0400
     19  O19      -32.0520   -1.6350   -8.4110 O.3     1  KBM1       -0.4714
     20  C20      -32.7890   -1.2480   -7.2340 C.3     1  KBM1        0.2525
@<TRIPOS>BOND
     1    13    18   ar
     2    13    12   ar
     3     9     8    2
     4    11    12   ar
     5    11    10   ar
     6    18    17   ar
     7    12    15   ar
     8     8    10    1
     9     8     7    1
    10    10    14   ar
    11    17    19    1
    12    17    16   ar
    13     4     7   ar
    14     4     3   ar
    15    15    14   ar
    16    15    16   ar
    17     7     6   ar
    18    19    20    1
    19     3     2   ar
    20     6     5   ar
    21     2     5   ar
    22     2     1    1
