@<TRIPOS>MOLECULE
3ad5_5PB_A_1.pdb
 31 34 0 0 0
SMALL
GASTEIGER

@<TRIPOS>ATOM
      1  N1        -3.2710   -0.0210    8.1730 N.2     1  5PB1       -0.1137
      2  C2        -4.5230    0.4210    8.3540 C.2     1  5PB1        0.1981
      3  N3        -5.1820   -0.3420    9.2380 N.am    1  5PB1       -0.1700
      4  C4        -4.2550   -1.2680    9.6060 C.1     1  5PB1        0.2431
      5  N5        -3.1220   -0.9980    8.9210 N.2     1  5PB1       -0.0574
      6  O6        -4.3900   -2.1940   10.3920 O.2     1  5PB1       -0.2038
      7  C8        -6.5180   -0.2700    9.5740 C.ar    1  5PB1        0.0688
      8  C9        -7.4160    0.6320    8.9940 C.ar    1  5PB1        0.0191
      9  C10       -8.7990    0.5680    9.1770 C.ar    1  5PB1        0.0382
     10  C11       -9.3510   -0.4120    9.9950 C.ar    1  5PB1        0.1391
     11  C12       -8.4980   -1.3310   10.5850 C.ar    1  5PB1        0.0382
     12  C13       -7.1230   -1.2420   10.3750 C.ar    1  5PB1        0.0191
     13  O18      -10.7090   -0.4920   10.2000 O.3     1  5PB1       -0.4706
     14  C19      -11.3950    0.4360   11.0480 C.3     1  5PB1        0.2320
     15  C20      -12.4290    1.1960   10.2440 C.ar    1  5PB1        0.0212
     16  C23      -12.2000    2.5250    9.8840 C.ar    1  5PB1       -0.0007
     17  C24      -13.1500    3.2200    9.1350 C.ar    1  5PB1       -0.0002
     18  C25      -14.3320    2.5910    8.7460 C.ar    1  5PB1       -0.0000
     19  C26      -14.5590    1.2630    9.0990 C.ar    1  5PB1       -0.0002
     20  C27      -13.6100    0.5660    9.8490 C.ar    1  5PB1       -0.0007
     21  S33       -5.2580    1.8550    7.6340 S.3     1  5PB1       -0.0687
     22  C34       -4.8940    1.8910    5.9090 C.3     1  5PB1        0.1338
     23  C35       -3.6880    2.7660    5.6420 C.2     1  5PB1        0.1843
     24  O38       -3.8600    3.9250    5.3040 O.2     1  5PB1       -0.2904
     25  C39       -2.2880    2.2180    5.7480 C.ar    1  5PB1        0.0357
     26  C40       -1.2240    3.0660    6.0630 C.ar    1  5PB1        0.0037
     27  C41        0.0730    2.5600    6.1490 C.ar    1  5PB1        0.0115
     28  C42        0.3140    1.2050    5.9120 C.ar    1  5PB1        0.0577
     29  C43       -0.7470    0.3600    5.5930 C.ar    1  5PB1        0.0115
     30  C44       -2.0410    0.8670    5.5040 C.ar    1  5PB1        0.0037
     31 CL49        1.9810    0.5400    6.0220 Cl      1  5PB1       -0.0822
@<TRIPOS>BOND
     1    24    23    2
     2    30    29   ar
     3    30    25   ar
     4    29    28   ar
     5    23    25    1
     6    23    22    1
     7    25    26   ar
     8    22    21    1
     9    28    31    1
    10    28    27   ar
    11    26    27   ar
    12    21     2    1
    13     1     2    2
    14     1     5    1
    15     2     3    1
    16    18    19   ar
    17    18    17   ar
    18     5     4    2
    19     8     9   ar
    20     8     7   ar
    21    19    20   ar
    22    17    16   ar
    23     9    10   ar
    24     3     7    1
    25     3     4   am
    26     7    12   ar
    27     4     6    2
    28    20    15   ar
    29    16    15   ar
    30    10    13    1
    31    10    11   ar
    32    13    14    1
    33    15    14    1
    34    12    11   ar
