@<TRIPOS>MOLECULE
3ad6_KSC_A_1.pdb
 27 30 0 0 0
SMALL
GASTEIGER

@<TRIPOS>ATOM
      1  C1        27.3930   36.3230    9.0430 C.2   513  KSC513      0.4076
      2  N2        27.2960   35.2880    8.1710 N.2   513  KSC513      0.1453
      3  N3        25.9880   35.4300    7.6410 N.pl3 513  KSC513      0.0646
      4  C4        25.2580   36.4590    8.0930 C.2   513  KSC513      0.3174
      5  C5        26.1600   37.1340    9.0510 C.3   513  KSC513      0.2882
      6  C6        25.4700   34.5910    6.7330 C.2   513  KSC513      0.3617
      7  C7        24.1720   34.8300    6.2770 C.2   513  KSC513      0.1188
      8  C8        23.4450   35.9160    6.7720 C.2   513  KSC513      0.1204
      9  N9        23.9950   36.7450    7.6960 N.2   513  KSC513     -0.3694
     10  C10       22.0520   36.1590    6.2630 C.3   513  KSC513      0.0668
     11  N11       26.2030   33.5480    6.2690 N.pl3 513  KSC513     -0.0327
     12  C12       25.7320   32.1750    6.3740 C.3   513  KSC513      0.2509
     13  C13       25.7290   31.6990    7.8240 C.3   513  KSC513      0.0512
     14  C14       25.3310   30.2280    7.8810 C.3   513  KSC513      0.0044
     15  C15       24.3100   31.3110    8.2230 C.3   513  KSC513      0.0044
     16  N16       28.4980   36.6030    9.7730 N.pl3 513  KSC513     -0.0053
     17  C17       29.7330   36.3230    9.2770 C.ar  513  KSC513      0.1834
     18  C18       30.8140   37.1380    9.6210 C.ar  513  KSC513      0.0475
     19  C19       32.0840   36.8560    9.1170 C.ar  513  KSC513      0.0405
     20  C20       32.2810   35.7560    8.2780 C.ar  513  KSC513      0.1390
     21  C21       31.2020   34.9410    7.9310 C.ar  513  KSC513      0.0405
     22  C22       29.9340   35.2210    8.4330 C.ar  513  KSC513      0.0475
     23  C23       25.8000   38.3390    9.8330 C.2   513  KSC513      0.2832
     24  O24       26.6910   39.0530   10.2420 O.2   513  KSC513     -0.2704
     25  N25       24.5230   38.5860   10.0920 N.am  513  KSC513     -0.0868
     26  O26       33.5340   35.4810    7.7860 O.3   513  KSC513     -0.4714
     27  C27       34.5850   35.0590    8.6590 C.3   513  KSC513      0.2525
@<TRIPOS>BOND
     1    10     8    1
     2    11    12    1
     3    11     6    1
     4     7     6    2
     5     7     8    1
     6    12    13    1
     7     6     3    1
     8     8     9    2
     9     3     4    1
    10     3     2    1
    11     9     4    2
    12    26    20    1
    13    26    27    1
    14    13    14    1
    15    13    15    1
    16    14    15    1
    17    21    20   ar
    18    21    22   ar
    19     4     5    1
    20     2     1    2
    21    20    19   ar
    22    22    17   ar
    23     1     5    1
    24     1    16    1
    25     5    23    1
    26    19    18   ar
    27    17    18   ar
    28    17    16    1
    29    23    25   am
    30    23    24    2
