@<TRIPOS>MOLECULE
3adb_ANP_B_1.pdb
 31 33 0 0 0
SMALL
GASTEIGER

@<TRIPOS>ATOM
      1  PG       -30.2610  156.9240   65.0810 P.3   2002  ANP2002     0.4884
      2  O1G      -30.3220  155.4660   65.1490 O.3   2002  ANP2002    -0.1240
      3  O2G      -31.0650  157.7190   66.2210 O.3   2002  ANP2002    -0.1240
      4  O3G      -28.7610  157.3930   65.1120 O.2   2002  ANP2002    -0.2331
      5  PB       -30.8050  159.0380   63.2630 P.3   2002  ANP2002     0.4669
      6  O1B      -31.7750  159.7050   64.1470 O.3   2002  ANP2002    -0.1253
      7  O2B      -29.4450  159.6060   63.1600 O.2   2002  ANP2002    -0.2351
      8  N3B      -30.7920  157.4600   63.6460 N.3   2002  ANP2002    -0.0163
      9  PA       -30.3980  158.8300   60.4360 P.3   2002  ANP2002     0.2220
     10  O1A      -30.1160  160.2000   59.9520 O.2   2002  ANP2002    -0.5170
     11  O2A      -29.2330  157.9540   60.7450 O.3   2002  ANP2002    -0.4370
     12  O3A      -31.4000  158.9750   61.7480 O.3   2002  ANP2002    -0.2360
     13  O5'      -31.3440  158.0890   59.3410 O.3   2002  ANP2002    -0.3111
     14  C5'      -31.9170  156.7940   59.5930 C.3   2002  ANP2002     0.1813
     15  C4'      -32.6250  156.2390   58.3320 C.3   2002  ANP2002     0.1821
     16  O4'      -33.4540  157.3050   57.7420 O.3   2002  ANP2002    -0.3135
     17  C3'      -31.5860  155.9220   57.2530 C.3   2002  ANP2002     0.2184
     18  O3'      -32.1780  155.1130   56.2330 O.3   2002  ANP2002    -0.2174
     19  C2'      -31.3220  157.3000   56.7210 C.3   2002  ANP2002     0.2570
     20  O2'      -30.6820  157.2000   55.4460 O.3   2002  ANP2002    -0.2130
     21  C1'      -32.7580  157.7700   56.5390 C.3   2002  ANP2002     0.3186
     22  N9       -32.8220  159.2490   56.4210 N.pl3 2002  ANP2002    -0.1439
     23  C8       -31.9520  160.1140   56.9540 C.3   2002  ANP2002     0.3377
     24  N7       -32.3360  161.3580   56.6560 N.2   2002  ANP2002    -0.2095
     25  C5       -33.4470  161.2850   55.9380 C.2   2002  ANP2002     0.2526
     26  C6       -34.2740  162.2360   55.3620 C.2   2002  ANP2002     0.4393
     27  N6       -34.0050  163.5310   55.4950 N.pl3 2002  ANP2002     0.2180
     28  N1       -35.3550  161.8300   54.6760 N.2   2002  ANP2002     0.0021
     29  C2       -35.6280  160.5370   54.5440 C.3   2002  ANP2002     0.5254
     30  N3       -34.8500  159.6060   55.0870 N.2   2002  ANP2002    -0.0055
     31  C4       -33.7550  159.9520   55.7840 C.2   2002  ANP2002     0.3518
@<TRIPOS>BOND
     1    29    28    1
     2    29    30    1
     3    28    26    2
     4    30    31    2
     5    26    27    1
     6    26    25    1
     7    20    19    1
     8    31    25    1
     9    31    22    1
    10    25    24    2
    11    18    17    1
    12    22    21    1
    13    22    23    1
    14    21    19    1
    15    21    16    1
    16    24    23    1
    17    19    17    1
    18    17    15    1
    19    16    15    1
    20    15    14    1
    21    13    14    1
    22    13     9    1
    23    10     9    2
    24     9    11    1
    25     9    12    1
    26    12     5    1
    27     7     5    2
    28     5     8    1
    29     5     6    1
    30     8     1    1
    31     1     4    2
    32     1     2    1
    33     1     3    1
