@<TRIPOS>MOLECULE
3adc_ANP_A_1.pdb
 31 33 0 0 0
SMALL
GASTEIGER

@<TRIPOS>ATOM
      1  PG        -9.7080  160.0330   57.8670 P.3   2001  ANP2001     0.4884
      2  O1G       -9.9480  161.1930   56.9600 O.2   2001  ANP2001    -0.2331
      3  O2G       -8.2540  160.0270   58.6000 O.3   2001  ANP2001    -0.1240
      4  O3G      -10.8020  159.9990   58.9610 O.3   2001  ANP2001    -0.1240
      5  PB        -9.6960  157.1810   57.7530 P.3   2001  ANP2001     0.4669
      6  O1B       -8.2550  156.9880   58.0830 O.2   2001  ANP2001    -0.2351
      7  O2B      -10.7370  156.9840   58.8140 O.3   2001  ANP2001    -0.1253
      8  N3B       -9.8830  158.6590   57.0560 N.3   2001  ANP2001    -0.0163
      9  PA       -11.5870  155.7230   56.1370 P.3   2001  ANP2001     0.2220
     10  O1A      -11.9780  154.6710   57.0990 O.3   2001  ANP2001    -0.4370
     11  O2A      -12.4650  156.9100   56.0280 O.2   2001  ANP2001    -0.5170
     12  O3A      -10.0480  156.1950   56.5020 O.3   2001  ANP2001    -0.2360
     13  O5'      -11.4350  155.0530   54.6470 O.3   2001  ANP2001    -0.3111
     14  C5'      -11.1050  155.8840   53.5060 C.3   2001  ANP2001     0.1813
     15  C4'      -11.3330  155.1750   52.1450 C.3   2001  ANP2001     0.1821
     16  O4'      -10.6810  153.8600   52.1880 O.3   2001  ANP2001    -0.3135
     17  C3'      -12.8270  154.8720   51.9060 C.3   2001  ANP2001     0.2184
     18  O3'      -13.0450  154.6450   50.5040 O.3   2001  ANP2001    -0.2174
     19  C2'      -12.9770  153.5770   52.6630 C.3   2001  ANP2001     0.2570
     20  O2'      -14.1690  152.9120   52.2240 O.3   2001  ANP2001    -0.2130
     21  C1'      -11.7500  152.8630   52.1070 C.3   2001  ANP2001     0.3186
     22  N9       -11.3900  151.6740   52.9120 N.pl3 2001  ANP2001    -0.1439
     23  C8       -11.5460  151.5510   54.2380 C.3   2001  ANP2001     0.3377
     24  N7       -11.0640  150.3620   54.6260 N.2   2001  ANP2001    -0.2095
     25  C5       -10.6080  149.7310   53.5470 C.2   2001  ANP2001     0.2526
     26  C6       -10.0010  148.4950   53.3480 C.2   2001  ANP2001     0.4393
     27  N6        -9.8170  147.6570   54.3710 N.pl3 2001  ANP2001     0.2180
     28  N1        -9.6360  148.1350   52.0990 N.2   2001  ANP2001     0.0021
     29  C2        -9.8460  148.9580   51.0630 C.3   2001  ANP2001     0.5254
     30  N3       -10.4300  150.1510   51.2310 N.2   2001  ANP2001    -0.0055
     31  C4       -10.8080  150.5610   52.4600 C.2   2001  ANP2001     0.3518
@<TRIPOS>BOND
     1    18    17    1
     2    29    30    1
     3    29    28    1
     4    30    31    2
     5    17    15    1
     6    17    19    1
     7    28    26    2
     8    21    16    1
     9    21    19    1
    10    21    22    1
    11    15    16    1
    12    15    14    1
    13    20    19    1
    14    31    22    1
    15    31    25    1
    16    22    23    1
    17    26    25    1
    18    26    27    1
    19    14    13    1
    20    25    24    2
    21    23    24    1
    22    13     9    1
    23    11     9    2
    24     9    12    1
    25     9    10    1
    26    12     5    1
    27     2     1    2
    28     8     5    1
    29     8     1    1
    30     5     6    2
    31     5     7    1
    32     1     3    1
    33     1     4    1
