@<TRIPOS>MOLECULE
3add_ANP_A_1.pdb
 31 33 0 0 0
SMALL
GASTEIGER

@<TRIPOS>ATOM
      1  PG        -6.9060  153.2310   57.2760 P.3   2001  ANP2001     0.4884
      2  O1G       -7.1880  154.1600   56.1320 O.2   2001  ANP2001    -0.2331
      3  O2G       -5.4160  153.3030   57.8750 O.3   2001  ANP2001    -0.1240
      4  O3G       -7.9350  153.4840   58.3890 O.3   2001  ANP2001    -0.1240
      5  PB        -7.1350  150.3540   57.6860 P.3   2001  ANP2001     0.4669
      6  O1B       -5.7040  150.1010   58.0060 O.2   2001  ANP2001    -0.2351
      7  O2B       -8.1140  150.4590   58.7960 O.3   2001  ANP2001    -0.1253
      8  N3B       -7.1870  151.7260   56.7450 N.3   2001  ANP2001    -0.0163
      9  PA        -9.1740  148.6740   56.7170 P.3   2001  ANP2001     0.2220
     10  O1A       -9.2340  147.6740   57.8120 O.3   2001  ANP2001    -0.4370
     11  O2A      -10.1080  149.8260   56.7700 O.2   2001  ANP2001    -0.5170
     12  O3A       -7.6240  149.2440   56.6600 O.3   2001  ANP2001    -0.2360
     13  O5'       -9.3810  147.9120   55.2950 O.3   2001  ANP2001    -0.3111
     14  C5'       -9.2870  148.6930   54.0790 C.3   2001  ANP2001     0.1813
     15  C4'       -9.6060  147.8620   52.8250 C.3   2001  ANP2001     0.1821
     16  O4'       -8.7970  146.6020   52.8740 O.3   2001  ANP2001    -0.3135
     17  C3'      -11.0710  147.3820   52.8740 C.3   2001  ANP2001     0.2184
     18  O3'      -11.4520  146.8980   51.5580 O.3   2001  ANP2001    -0.2174
     19  C2'      -10.9050  146.2130   53.8280 C.3   2001  ANP2001     0.2570
     20  O2'      -12.0430  145.3750   53.7490 O.3   2001  ANP2001    -0.2130
     21  C1'       -9.7400  145.5130   53.1500 C.3   2001  ANP2001     0.3186
     22  N9        -9.1700  144.4680   54.0460 N.pl3 2001  ANP2001    -0.1439
     23  C8        -8.8350  144.6300   55.3390 C.3   2001  ANP2001     0.3377
     24  N7        -8.3890  143.4650   55.8310 N.2   2001  ANP2001    -0.2095
     25  C5        -8.4330  142.5670   54.8490 C.2   2001  ANP2001     0.2526
     26  C6        -8.0930  141.2120   54.7680 C.2   2001  ANP2001     0.4393
     27  N6        -7.6130  140.5630   55.8260 N.pl3 2001  ANP2001     0.2180
     28  N1        -8.2470  140.5640   53.6000 N.2   2001  ANP2001     0.0021
     29  C2        -8.7330  141.2040   52.5390 C.3   2001  ANP2001     0.5254
     30  N3        -9.0710  142.4990   52.5820 N.2   2001  ANP2001    -0.0055
     31  C4        -8.9350  143.1980   53.7230 C.2   2001  ANP2001     0.3518
@<TRIPOS>BOND
     1    18    17    1
     2    29    30    1
     3    29    28    1
     4    30    31    2
     5    15    17    1
     6    15    16    1
     7    15    14    1
     8    17    19    1
     9    16    21    1
    10    21    19    1
    11    21    22    1
    12    28    26    2
    13    31    22    1
    14    31    25    1
    15    20    19    1
    16    22    23    1
    17    14    13    1
    18    26    25    1
    19    26    27    1
    20    25    24    2
    21    13     9    1
    22    23    24    1
    23     2     1    2
    24    12     9    1
    25    12     5    1
    26     9    11    2
    27     9    10    1
    28     8     1    1
    29     8     5    1
    30     1     3    1
    31     1     4    1
    32     5     6    2
    33     5     7    1
