@<TRIPOS>MOLECULE
3adp_NAI_A_1.pdb
 44 48 0 0 0
SMALL
GASTEIGER

@<TRIPOS>ATOM
      1  PA       -30.1140   -0.1030   -4.8920 P.3   1001  NAI1001     0.2189
      2  O1A      -30.9690    0.7690   -4.0830 O.3   1001  NAI1001    -0.4371
      3  O2A      -30.7730   -1.3690   -5.2430 O.2   1001  NAI1001    -0.5170
      4  O5B      -28.7720   -0.5620   -4.1500 O.3   1001  NAI1001    -0.3112
      5  C5B      -28.0630    0.3150   -3.2380 C.3   1001  NAI1001     0.1813
      6  C4B      -27.5750   -0.4860   -2.0510 C.3   1001  NAI1001     0.1821
      7  O4B      -26.8660    0.4660   -1.2230 O.3   1001  NAI1001    -0.3135
      8  C3B      -28.6780   -1.0450   -1.1110 C.3   1001  NAI1001     0.2184
      9  O3B      -28.5500   -2.4730   -0.9760 O.3   1001  NAI1001    -0.2174
     10  C2B      -28.4470   -0.2550    0.1970 C.3   1001  NAI1001     0.2570
     11  O2B      -28.7910   -1.0030    1.3910 O.3   1001  NAI1001    -0.2130
     12  C1B      -26.9810    0.0550    0.0990 C.3   1001  NAI1001     0.3186
     13  N9A      -26.5670    1.1600    0.9600 N.pl3 1001  NAI1001    -0.1439
     14  C8A      -27.2130    2.3480    1.2450 C.3   1001  NAI1001     0.3377
     15  N7A      -26.5230    3.1580    2.0980 N.2   1001  NAI1001    -0.2095
     16  C5A      -25.3670    2.4140    2.3580 C.2   1001  NAI1001     0.2526
     17  C6A      -24.2060    2.6870    3.1860 C.2   1001  NAI1001     0.4393
     18  N6A      -24.0590    3.8080    3.8980 N.pl3 1001  NAI1001     0.2180
     19  N1A      -23.2230    1.7100    3.2120 N.2   1001  NAI1001     0.0021
     20  C2A      -23.3790    0.5420    2.4700 C.3   1001  NAI1001     0.5254
     21  N3A      -24.4000    0.2090    1.6920 N.2   1001  NAI1001    -0.0055
     22  C4A      -25.3720    1.1800    1.6670 C.2   1001  NAI1001     0.3518
     23  O3       -29.6940    0.6530   -6.1970 O.3   1001  NAI1001    -0.2703
     24  PN       -28.8110    0.2250   -7.4730 P.3   1001  NAI1001     0.2189
     25  O1N      -29.8370    0.2020   -8.5550 O.2   1001  NAI1001    -0.5170
     26  O2N      -28.2560   -1.1140   -7.2460 O.3   1001  NAI1001    -0.4371
     27  O5D      -27.7730    1.3430   -7.9180 O.3   1001  NAI1001    -0.3112
     28  C5D      -26.5670    1.6000   -7.1740 C.3   1001  NAI1001     0.1813
     29  C4D      -25.7580    2.6340   -7.9580 C.3   1001  NAI1001     0.1799
     30  O4D      -25.4150    2.0130   -9.2480 O.3   1001  NAI1001    -0.3327
     31  C3D      -26.4480    3.9640   -8.2890 C.3   1001  NAI1001     0.2158
     32  O3D      -25.5450    5.0830   -8.1970 O.3   1001  NAI1001    -0.2175
     33  C2D      -26.9620    3.7250   -9.7220 C.3   1001  NAI1001     0.2309
     34  O2D      -27.1600    4.9920  -10.4010 O.3   1001  NAI1001    -0.2158
     35  C1D      -25.8540    2.8570  -10.2980 C.3   1001  NAI1001     0.2261
     36  N1N      -26.2460    2.0590  -11.5020 N.pl3 1001  NAI1001    -0.2831
     37  C2N      -27.0770    0.9710  -11.2250 C.2   1001  NAI1001     0.0633
     38  C3N      -27.4150    0.1570  -12.3080 C.2   1001  NAI1001     0.0490
     39  C7N      -28.3670   -1.0340  -12.1580 C.2   1001  NAI1001     0.2814
     40  O7N      -28.3020   -1.9510  -12.9720 O.2   1001  NAI1001    -0.2670
     41  N7N      -29.2890   -1.0330  -11.1740 N.am  1001  NAI1001    -0.0839
     42  C4N      -26.8240    0.3740  -13.6290 C.3   1001  NAI1001     0.0341
     43  C5N      -25.7160    1.2750  -13.6490 C.3   1001  NAI1001     0.0264
     44  C6N      -25.3570    2.1260  -12.6210 C.3   1001  NAI1001     0.0934
@<TRIPOS>BOND
     1    43    42    1
     2    43    44    1
     3    42    38    1
     4    40    39    2
     5    44    36    1
     6    38    39    1
     7    38    37    2
     8    39    41   am
     9    36    37    1
    10    36    35    1
    11    34    33    1
    12    35    33    1
    13    35    30    1
    14    33    31    1
    15    30    29    1
    16    25    24    2
    17    31    32    1
    18    31    29    1
    19    29    28    1
    20    27    24    1
    21    27    28    1
    22    24    26    1
    23    24    23    1
    24    23     1    1
    25     3     1    2
    26     1     4    1
    27     1     2    1
    28     4     5    1
    29     5     6    1
    30     6     7    1
    31     6     8    1
    32     7    12    1
    33     8     9    1
    34     8    10    1
    35    12    10    1
    36    12    13    1
    37    10    11    1
    38    13    14    1
    39    13    22    1
    40    14    15    1
    41    22    21    2
    42    22    16    1
    43    21    20    1
    44    15    16    2
    45    16    17    1
    46    20    19    1
    47    17    19    2
    48    17    18    1
