@<TRIPOS>MOLECULE
3ads_IMN_A_1.pdb
 25 27 0 0 0
SMALL
GASTEIGER

@<TRIPOS>ATOM
      1  C         17.2700   67.6780    9.1220 C.ar    1  IMN1        0.0664
      2  C1        16.2160   67.0750    9.8870 C.ar    1  IMN1        0.0169
      3  C2        16.5010   65.9500   10.7250 C.ar    1  IMN1        0.0381
      4  C3        17.8170   65.4330   10.7950 C.ar    1  IMN1        0.1388
      5  C4        18.8540   66.0300   10.0380 C.ar    1  IMN1        0.0384
      6  C5        18.5880   67.1380    9.2120 C.ar    1  IMN1        0.0207
      7  C6        17.7610   63.0020   11.2700 C.3     1  IMN1        0.2525
      8  C7        14.9890   67.8430    9.5790 C.ar    1  IMN1        0.0027
      9  C8        15.3270   68.8100    8.6970 C.ar    1  IMN1        0.0411
     10  C9        17.4310   69.5610    7.5250 C.2     1  IMN1        0.2644
     11  C10       17.5910   71.0680    7.6520 C.ar    1  IMN1        0.0565
     12  C11       18.3580   71.7700    6.6590 C.ar    1  IMN1        0.0056
     13  C12       18.5190   73.1650    6.7340 C.ar    1  IMN1        0.0115
     14  C13       17.9270   73.8900    7.7880 C.ar    1  IMN1        0.0577
     15  C14       17.1730   73.2200    8.7780 C.ar    1  IMN1        0.0115
     16  C15       17.0020   71.8210    8.7180 C.ar    1  IMN1        0.0056
     17  C16       14.3290   69.8080    8.1250 C.3     1  IMN1        0.0501
     18  C17       13.5780   67.6100   10.1310 C.3     1  IMN1        0.1415
     19  C18       12.9790   66.2720    9.7200 C.2     1  IMN1        0.3693
     20  N         16.7090   68.7430    8.3990 N.ar    1  IMN1       -0.2785
     21  O         18.0880   64.3570   11.5940 O.3     1  IMN1       -0.4714
     22  O1        17.9750   69.0140    6.5770 O.2     1  IMN1       -0.2666
     23  O2        13.5940   65.4910    9.0300 O.co2   1  IMN1       -0.2453
     24  O3        11.7430   65.9500   10.1310 O.co2   1  IMN1       -0.2453
     25 CL         18.1240   75.6110    7.8720 Cl      1  IMN1       -0.0822
@<TRIPOS>BOND
     1    22    10    2
     2    12    13   ar
     3    12    11   ar
     4    13    14   ar
     5    10    11    1
     6    10    20   am
     7    11    16   ar
     8    14    25    1
     9    14    15   ar
    10    17     9    1
    11    20     9   ar
    12    20     1   ar
    13     9     8   ar
    14    16    15   ar
    15    23    19   ar
    16     1     6   ar
    17     1     2   ar
    18     6     5   ar
    19     8     2   ar
    20     8    18    1
    21    19    18    1
    22    19    24   ar
    23     2     3   ar
    24     5     4   ar
    25     3     4   ar
    26     4    21    1
    27     7    21    1
