@<TRIPOS>MOLECULE
3adt_HID_A_1.pdb
 14 15 0 0 0
SMALL
GASTEIGER

@<TRIPOS>ATOM
      1  OAA       18.4760   65.4180   20.1750 O.co2   2  HID2       -0.2453
      2  OAB       19.1060   63.4780   19.3360 O.co2   2  HID2       -0.2453
      3  OAC       15.1180   63.3750   14.9380 O.2     2  HID2       -0.2869
      4  CAD       17.1630   62.8490   13.7650 C.2     2  HID2        0.0429
      5  CAE       18.5940   62.9080   13.6810 C.2     2  HID2        0.0186
      6  CAF       20.7950   64.4580   16.0520 C.2     2  HID2        0.0912
      7  CAG       17.2020   64.1070   15.9210 C.2     2  HID2        0.0256
      8  CAH       19.3670   65.4810   17.9800 C.3     2  HID2        0.1383
      9  NAI       20.6080   63.7780   14.9160 N.2     2  HID2       -0.2481
     10  CAJ       18.9550   64.7190   19.2630 C.2     2  HID2        0.3690
     11  CAK       16.4790   63.4450   14.8780 C.2     2  HID2        0.1922
     12  CAL       19.6220   64.7200   16.6530 C.2     2  HID2       -0.0045
     13  CAM       19.3040   63.5730   14.7320 C.2     2  HID2        0.0667
     14  CAN       18.6300   64.1720   15.8460 C.3     2  HID2        0.0856
@<TRIPOS>BOND
     1     5     4    2
     2     5    13    1
     3     4    11    1
     4    13     9    2
     5    13    14    1
     6    11     3    1
     7    11     7    2
     8     9     6    1
     9    14     7    1
    10    14    12    1
    11     6    12    2
    12    12     8    1
    13     8    10    1
    14    10     2   ar
    15    10     1   ar
