@<TRIPOS>MOLECULE
3adu_MYI_A_1.pdb
 15 16 0 0 0
SMALL
GASTEIGER

@<TRIPOS>ATOM
      1  CAA       17.6750   65.1430    9.7080 C.3     1  MYI1        0.2525
      2  OAB       10.7150   60.5950   13.0510 O.co2   1  MYI1       -0.2453
      3  OAC       12.0950   60.7340   14.7860 O.co2   1  MYI1       -0.2453
      4  CAD       17.4600   64.3360   12.6880 C.2     1  MYI1        0.0171
      5  CAE       16.9230   64.3430   14.0060 C.3     1  MYI1        0.0749
      6  CAF       13.6950   63.2020   15.0260 C.2     1  MYI1        0.0947
      7  CAG       15.3550   63.3310   11.8020 C.2     1  MYI1        0.0375
      8  CAH       12.3840   62.3190   12.9700 C.3     1  MYI1        0.1419
      9  NAI       14.8750   63.7320   15.3230 N.2     1  MYI1       -0.2481
     10  OAJ       17.3260   63.8810   10.3450 O.2     1  MYI1       -0.4717
     11  CAK       11.6750   61.1140   13.6670 C.2     1  MYI1        0.3693
     12  CAL       16.7000   63.8390   11.5750 C.2     1  MYI1        0.1349
     13  CAM       13.5940   62.9360   13.7160 C.2     1  MYI1        0.0094
     14  CAN       15.6040   63.8420   14.2230 C.2     1  MYI1        0.0633
     15  CAO       14.8140   63.3360   13.1400 C.2     1  MYI1        0.0150
@<TRIPOS>BOND
     1     1    10    1
     2    10    12    1
     3    12     7    1
     4    12     4    2
     5     7    15    2
     6     4     5    1
     7     8    11    1
     8     8    13    1
     9     2    11   ar
    10    15    13    1
    11    15    14    1
    12    11     3   ar
    13    13     6    2
    14     5    14    1
    15    14     9    2
    16     6     9    1
