@<TRIPOS>MOLECULE
3adv_SRO_A_1.pdb
 13 14 0 0 0
SMALL
GASTEIGER

@<TRIPOS>ATOM
      1  OH        18.6310   64.8870    9.9730 O.2     1  SRO1       -0.2869
      2  CZ3       17.8260   64.5690   11.0190 C.2     1  SRO1        0.1922
      3  CH2       16.4170   64.5310   10.8410 C.2     1  SRO1        0.0429
      4  CZ2       15.5710   64.2040   11.9160 C.2     1  SRO1        0.0186
      5  CE2       16.1210   63.9090   13.1920 C.2     1  SRO1        0.0667
      6  NE1       15.5690   63.5640   14.4060 N.2     1  SRO1       -0.2482
      7  CD1       16.5610   63.3840   15.3350 C.2     1  SRO1        0.0907
      8  CG        17.7760   63.5980   14.7850 C.2     1  SRO1       -0.0143
      9  CD2       17.5440   63.9470   13.3750 C.3     1  SRO1        0.0851
     10  CE3       18.3930   64.2800   12.2760 C.2     1  SRO1        0.0256
     11  CB        19.1240   63.4960   15.4810 C.3     1  SRO1        0.0448
     12  CA        19.2270   64.5110   16.6320 C.3     1  SRO1        0.1137
     13  NZ        18.9910   63.8330   17.9140 N.3     1  SRO1       -0.1310
@<TRIPOS>BOND
     1     1     2    1
     2     3     2    1
     3     3     4    2
     4     2    10    2
     5     4     5    1
     6    10     9    1
     7     5     9    1
     8     5     6    2
     9     9     8    1
    10     6     7    1
    11     8     7    2
    12     8    11    1
    13    11    12    1
    14    12    13    1
