@<TRIPOS>MOLECULE
3adw_MYI_A_1.pdb
 15 16 0 0 0
SMALL
GASTEIGER

@<TRIPOS>ATOM
      1  CAA       22.4020   66.5010   14.4390 C.3     3  MYI3        0.2525
      2  OAB       20.2070   62.0990   16.8370 O.co2   3  MYI3       -0.2453
      3  OAC       18.8890   62.3720   15.0710 O.co2   3  MYI3       -0.2453
      4  CAD       21.2860   67.6240   17.7370 C.2     3  MYI3        0.0171
      5  CAE       20.6370   67.2190   18.9320 C.3     3  MYI3        0.0749
      6  CAF       18.4360   64.4410   19.3580 C.2     3  MYI3        0.0947
      7  CAG       20.1840   65.6650   16.4580 C.2     3  MYI3        0.0375
      8  CAH       18.1180   63.1700   17.1610 C.3     3  MYI3        0.1419
      9  NAI       19.0760   65.4900   19.8600 N.2     3  MYI3       -0.2481
     10  OAJ       21.7940   67.4030   15.4150 O.2     3  MYI3       -0.4717
     11  CAK       19.1560   62.4880   16.2860 C.2     3  MYI3        0.3693
     12  CAL       21.1080   66.9140   16.5090 C.2     3  MYI3        0.1349
     13  CAM       18.6860   64.2830   18.0770 C.2     3  MYI3        0.0094
     14  CAN       19.7860   66.0740   18.9080 C.2     3  MYI3        0.0633
     15  CAO       19.5650   65.3150   17.7080 C.2     3  MYI3        0.0150
@<TRIPOS>BOND
     1     1    10    1
     2     3    11   ar
     3    10    12    1
     4    11     2   ar
     5    11     8    1
     6     7    12    1
     7     7    15    2
     8    12     4    2
     9     8    13    1
    10    15    13    1
    11    15    14    1
    12     4     5    1
    13    13     6    2
    14    14     5    1
    15    14     9    2
    16     6     9    1
