@<TRIPOS>MOLECULE
3adw_OCR_A_1.pdb
 23 22 0 0 0
SMALL
GASTEIGER

@<TRIPOS>ATOM
      1  C1        18.3020   73.3720    6.8380 C.3     1  OCR1        0.0000
      2  C2        17.4780   72.1440    6.4540 C.3     1  OCR1        0.0000
      3  C3        17.0630   71.3540    7.6880 C.3     1  OCR1        0.0004
      4  C4        17.8300   70.0230    7.7800 C.3     1  OCR1        0.0077
      5  C5        18.0000   69.6440    9.1240 C.3     1  OCR1        0.0645
      6  C6        17.1220   68.4390    9.5130 C.2     1  OCR1        0.1510
      7  O7        15.9200   68.5870    9.7710 O.2     1  OCR1       -0.2960
      8  C8        17.7450   67.0370    9.5640 C.3     1  OCR1        0.0691
      9  C9        17.9710   66.5010   11.0030 C.3     1  OCR1        0.0335
     10  C11       18.5620   65.1130   10.8600 C.2     1  OCR1       -0.0299
     11  C12       17.9670   63.9950   11.2310 C.2     1  OCR1       -0.0260
     12  C13       16.5830   63.8210   11.8810 C.3     1  OCR1        0.0513
     13  C14       16.6380   63.9510   13.3930 C.2     1  OCR1       -0.0257
     14  C15       15.7500   63.3850   14.2030 C.2     1  OCR1       -0.0257
     15  C16       14.5940   62.5520   13.6990 C.3     1  OCR1        0.0513
     16  C17       13.3210   62.9740   14.3910 C.2     1  OCR1       -0.0260
     17  C18       12.1140   62.6420   13.9440 C.2     1  OCR1       -0.0304
     18  C19       11.8670   61.8080   12.6980 C.3     1  OCR1        0.0263
     19  C20       10.3800   61.4260   12.5890 C.3     1  OCR1        0.0165
     20  C21       10.1750   59.9130   12.7080 C.3     1  OCR1        0.1144
     21  C22        8.6840   59.5320   12.6340 C.2     1  OCR1        0.3649
     22  O23        8.3660   58.6240   11.8240 O.co2   1  OCR1       -0.2457
     23  O24        7.8880   60.1430   13.3890 O.co2   1  OCR1       -0.2457
@<TRIPOS>BOND
     1     2     1    1
     2     2     3    1
     3     3     4    1
     4     4     5    1
     5     5     6    1
     6     6     8    1
     7     6     7    2
     8     8     9    1
     9    10     9    1
    10    10    11    2
    11    11    12    1
    12    22    21   ar
    13    12    13    1
    14    19    18    1
    15    19    20    1
    16    21    20    1
    17    21    23   ar
    18    18    17    1
    19    13    14    2
    20    15    14    1
    21    15    16    1
    22    17    16    2
