@<TRIPOS>MOLECULE
3adx_NRO_A_1.pdb
 22 23 0 0 0
SMALL
GASTEIGER

@<TRIPOS>ATOM
      1  C1        14.1270   63.7050   14.5890 C.3     1  NRO1        0.0001
      2  C2        15.2560   63.2980   13.6430 C.3     1  NRO1        0.0022
      3  C3        16.3190   64.4110   13.4980 C.3     1  NRO1        0.0300
      4  C4        17.4510   63.9760   12.5490 C.3     1  NRO1        0.1737
      5  C8        18.6240   65.0170   12.4300 C.3     1  NRO1        0.0940
      6  C10       18.5880   65.7640   11.0700 C.ar    1  NRO1        0.1250
      7  C14       18.1020   67.1810    9.4940 C.ar    1  NRO1        0.1448
      8  C15       17.4900   68.2800    8.8570 C.ar    1  NRO1        0.0348
      9  C16       18.2910   69.2370    8.1340 C.ar    1  NRO1        0.0096
     10  C17       16.0730   68.4530    8.9320 C.ar    1  NRO1        0.0030
     11  C19       16.2240   70.5060    7.5850 C.ar    1  NRO1        0.0066
     12  C20       17.6620   70.3650    7.4870 C.ar    1  NRO1        0.0799
     13  C21       18.5030   71.4080    6.7040 C.2     1  NRO1        0.3878
     14  N5        16.9020   63.6850   11.1840 N.pl3   1  NRO1        0.0328
     15  O6        17.5580   62.7170   10.3860 O.2     1  NRO1       -0.1310
     16  O7        15.7420   64.3480   10.6640 O.2     1  NRO1       -0.1310
     17  O11       17.8250   66.8560   10.7980 O.2     1  NRO1       -0.4577
     18  C12       19.3010   65.4230    9.9960 C.ar    1  NRO1        0.0361
     19  C13       19.0020   66.2950    9.0250 C.ar    1  NRO1        0.0403
     20  C18       15.4280   69.5570    8.3010 C.ar    1  NRO1        0.0003
     21  O22       19.7480   71.2690    6.6290 O.co2   1  NRO1       -0.2406
     22  O23       17.9160   72.3790    6.1540 O.co2   1  NRO1       -0.2406
@<TRIPOS>BOND
     1    22    13   ar
     2    21    13   ar
     3    13    12    1
     4    12    11   ar
     5    12     9   ar
     6    11    20   ar
     7     9     8   ar
     8    20    10   ar
     9     8    10   ar
    10     8     7    1
    11    19     7   ar
    12    19    18   ar
    13     7    17   ar
    14    18     6   ar
    15    15    14    2
    16    16    14    2
    17    17     6   ar
    18     6     5    1
    19    14     4    1
    20     5     4    1
    21     4     3    1
    22     3     2    1
    23     2     1    1
