@<TRIPOS>MOLECULE
3adx_IMN_A_1.pdb
 25 27 0 0 0
SMALL
GASTEIGER

@<TRIPOS>ATOM
      1  C         21.3010   65.3480   16.3270 C.ar    2  IMN2        0.0664
      2  C1        20.0810   65.2050   17.0400 C.ar    2  IMN2        0.0169
      3  C2        19.2910   64.0340   16.8700 C.ar    2  IMN2        0.0381
      4  C3        19.7140   63.0030   15.9830 C.ar    2  IMN2        0.1388
      5  C4        20.9230   63.1500   15.2850 C.ar    2  IMN2        0.0384
      6  C5        21.7030   64.2910   15.4480 C.ar    2  IMN2        0.0207
      7  C6        17.5890   62.0460   16.0150 C.3     2  IMN2        0.2525
      8  C7        19.9240   66.4080   17.8530 C.ar    2  IMN2        0.0027
      9  C8        20.9970   67.2130   17.6190 C.ar    2  IMN2        0.0411
     10  C9        23.0780   67.1300   16.2130 C.2     2  IMN2        0.2644
     11  C10       23.4600   67.2200   14.7260 C.ar    2  IMN2        0.0565
     12  C11       24.7390   67.7440   14.3500 C.ar    2  IMN2        0.0056
     13  C12       25.1080   67.8050   12.9870 C.ar    2  IMN2        0.0115
     14  C13       24.2160   67.3510   11.9890 C.ar    2  IMN2        0.0577
     15  C14       22.9580   66.8460   12.3380 C.ar    2  IMN2        0.0115
     16  C15       22.5800   66.7790   13.6800 C.ar    2  IMN2        0.0056
     17  C16       21.2200   68.5690   18.2730 C.3     2  IMN2        0.0501
     18  C17       18.7440   66.6600   18.7780 C.3     2  IMN2        0.1415
     19  C18       18.8050   65.8060   20.0470 C.2     2  IMN2        0.3693
     20  N         21.8620   66.6000   16.6890 N.ar    2  IMN2       -0.2785
     21  O         18.9910   61.8440   15.7790 O.3     2  IMN2       -0.4714
     22  O1        23.8930   67.5300   17.0460 O.2     2  IMN2       -0.2666
     23  O2        19.7250   65.0370   20.2540 O.co2   2  IMN2       -0.2453
     24  O3        17.8250   65.9010   20.9490 O.co2   2  IMN2       -0.2453
     25 CL         24.6630   67.4080   10.3250 Cl      2  IMN2       -0.0822
@<TRIPOS>BOND
     1    25    14    1
     2    14    15   ar
     3    14    13   ar
     4    15    16   ar
     5    13    12   ar
     6    16    11   ar
     7    12    11   ar
     8    11    10    1
     9     5     6   ar
    10     5     4   ar
    11     6     1   ar
    12    21     4    1
    13    21     7    1
    14     4     3   ar
    15    10    20   am
    16    10    22    2
    17     1    20   ar
    18     1     2   ar
    19    20     9   ar
    20     3     2   ar
    21     2     8   ar
    22     9     8   ar
    23     9    17    1
    24     8    18    1
    25    18    19    1
    26    19    23   ar
    27    19    24   ar
