@<TRIPOS>MOLECULE
3adz_PS7_A_1.pdb
 39 39 0 0 0
SMALL
GASTEIGER

@<TRIPOS>ATOM
      1  CAA       13.9640   56.2160   42.4140 C.3   1001  PS71001     0.0260
      2  CAB       12.6680   53.9900   41.9340 C.3   1001  PS71001     0.0260
      3  CAC        9.1760   60.7780   37.8920 C.3   1001  PS71001     0.0260
      4  CAD       11.2130   60.6830   39.5130 C.3   1001  PS71001     0.0260
      5  CAE       17.5110   50.1490   40.6160 C.3   1001  PS71001     0.0260
      6  CAF       14.9270   58.1720   39.1200 C.3   1001  PS71001     0.0260
      7  CAG       19.4760   50.5670   37.2080 C.3   1001  PS71001     0.0260
      8  CAH       19.2220   56.0030   36.0110 C.3   1001  PS71001     0.0004
      9  OAI       24.5840   54.7440   41.4780 O.3   1001  PS71001    -0.1143
     10  OAJ       22.2690   52.2100   40.6600 O.2   1001  PS71001    -0.5169
     11  OAK       23.8200   54.4040   38.9950 O.2   1001  PS71001    -0.2221
     12  OAL       23.6130   56.7310   40.2040 O.3   1001  PS71001    -0.1143
     13  OAM       20.1740   53.4590   41.6000 O.3   1001  PS71001    -0.4370
     14  CAN       14.9310   54.3670   40.9050 C.2   1001  PS71001    -0.0342
     15  CAO       11.3890   59.8170   37.0830 C.2   1001  PS71001    -0.0342
     16  CAP       16.1590   50.6780   38.5480 C.2   1001  PS71001    -0.0342
     17  CAQ       15.0270   56.7190   37.0180 C.2   1001  PS71001    -0.0346
     18  CAR       17.8780   52.3260   36.2800 C.2   1001  PS71001    -0.0348
     19  CAS       14.9330   53.1400   40.2250 C.3   1001  PS71001     0.0297
     20  CAT       12.7210   59.3920   37.1150 C.3   1001  PS71001     0.0297
     21  CAU       16.4820   49.5180   37.8530 C.3   1001  PS71001     0.0297
     22  CAV       16.3740   56.3600   37.1940 C.3   1001  PS71001     0.0254
     23  CAW       16.2770   52.4440   40.3990 C.3   1001  PS71001     0.0263
     24  CAX       12.8300   57.9210   37.5350 C.3   1001  PS71001     0.0263
     25  CAY       17.0540   49.9280   36.4850 C.3   1001  PS71001     0.0263
     26  CAZ       20.1220   54.5700   38.4830 C.3   1001  PS71001     0.1494
     27  CBA       16.8130   55.0870   36.4430 C.3   1001  PS71001     0.0051
     28  OBB       20.7500   53.4310   39.0640 O.3   1001  PS71001    -0.3138
     29  OBC       22.0930   54.8440   40.8010 O.3   1001  PS71001    -0.2261
     30  CBD       13.8990   54.8680   41.6880 C.2   1001  PS71001    -0.0478
     31  CBE       10.6330   60.3580   38.1240 C.2   1001  PS71001    -0.0478
     32  CBF       16.5710   51.0540   39.8190 C.2   1001  PS71001    -0.0478
     33  CBG       14.2840   57.5450   37.8630 C.2   1001  PS71001    -0.0478
     34  CBH       18.1350   50.9990   36.6190 C.2   1001  PS71001    -0.0478
     35  CBI       18.9070   53.4500   36.4580 C.3   1001  PS71001     0.0239
     36  CBJ       18.8010   54.1430   37.8220 C.3   1001  PS71001     0.0344
     37  CBK       18.3410   54.8740   36.5500 C.3   1001  PS71001     0.0068
     38  PBL       23.6020   55.1400   40.2670 P.3   1001  PS71001     0.5373
     39  PBM       21.3870   53.4110   40.5730 P.3   1001  PS71001     0.2230
@<TRIPOS>BOND
     1     8    37    1
     2    18    35    1
     3    18    34    2
     4    27    37    1
     5    27    22    1
     6    35    37    1
     7    35    36    1
     8    25    34    1
     9    25    21    1
    10    37    36    1
    11    34     7    1
    12    17    22    1
    13    17    33    2
    14    15    20    1
    15    15    31    2
    16    20    24    1
    17    24    33    1
    18    36    26    1
    19    21    16    1
    20    33     6    1
    21     3    31    1
    22    31     4    1
    23    26    28    1
    24    16    32    2
    25    11    38    2
    26    28    39    1
    27    32    23    1
    28    32     5    1
    29    12    38    1
    30    19    23    1
    31    19    14    1
    32    38    29    1
    33    38     9    1
    34    39    10    2
    35    39    29    1
    36    39    13    1
    37    14    30    2
    38    30     2    1
    39    30     1    1
