@<TRIPOS>MOLECULE
3ae0_GGS_A_1.pdb
 29 28 0 0 0
SMALL
GASTEIGER

@<TRIPOS>ATOM
      1  C1        23.6790    9.3110   22.8860 C.2   1001  GGS1001     0.0375
      2  S1        23.0900   10.0320   21.5110 S.3   1001  GGS1001    -0.0013
      3  C2        23.2970    9.7750   24.2340 C.2   1001  GGS1001    -0.0189
      4  C3        22.4540   10.7670   24.5140 C.3   1001  GGS1001     0.0269
      5  C4        21.5420   10.6320   25.6600 C.3   1001  GGS1001     0.0050
      6  C5        22.3880   12.0500   23.7320 C.3   1001  GGS1001     0.0300
      7  C6        22.0820   13.1060   24.7610 C.2   1001  GGS1001    -0.0304
      8  C7        22.8850   14.3300   24.8910 C.2   1001  GGS1001    -0.0310
      9  C8        23.9150   14.5770   24.0930 C.3   1001  GGS1001     0.0220
     10  C9        23.7150   15.5370   22.9500 C.3   1001  GGS1001     0.0090
     11  PA        22.6010    8.4810   20.2500 P.3   1001  GGS1001     0.4310
     12  PB        19.9150    7.3350   20.3330 P.3   1001  GGS1001     0.5394
     13  C10       25.2130   13.9290   24.3520 C.3   1001  GGS1001     0.0047
     14  C11       23.1410   16.7990   23.5390 C.3   1001  GGS1001     0.0257
     15  C12       23.4270   18.1210   22.9530 C.2   1001  GGS1001    -0.0343
     16  C13       22.8880   19.1800   23.5410 C.2   1001  GGS1001    -0.0438
     17  C14       21.9050   18.9450   24.6070 C.3   1001  GGS1001     0.0264
     18  C15       23.2790   20.5800   23.1270 C.3   1001  GGS1001     0.0473
     19  C16       22.0180   21.3850   22.9400 C.2   1001  GGS1001    -0.0263
     20  C17       20.9590   21.0230   21.9740 C.2   1001  GGS1001    -0.0307
     21  C18       20.9290   20.0030   21.1110 C.3   1001  GGS1001     0.0217
     22  C19       21.1960   20.3050   19.6610 C.3   1001  GGS1001     0.0047
     23  O1A       23.2120    8.7580   18.8990 O.2   1001  GGS1001    -0.2427
     24  O1B       18.9460    8.1170   21.1820 O.3   1001  GGS1001    -0.1143
     25  C20       20.5700   18.6170   21.4760 C.3   1001  GGS1001     0.0047
     26  O2A       23.0320    7.1890   20.9020 O.3   1001  GGS1001    -0.1307
     27  O2B       20.6530    6.2660   21.1140 O.3   1001  GGS1001    -0.1143
     28  O3A       20.9990    8.5090   20.0560 O.3   1001  GGS1001    -0.1953
     29  O3B       19.3850    6.9200   18.9770 O.2   1001  GGS1001    -0.2220
@<TRIPOS>BOND
     1    23    11    2
     2    29    12    2
     3    22    21    1
     4    28    11    1
     5    28    12    1
     6    11    26    1
     7    11     2    1
     8    12    27    1
     9    12    24    1
    10    21    25    1
    11    21    20    1
    12     2     1    1
    13    20    19    2
    14     1     3    2
    15    19    18    1
    16    10    14    1
    17    10     9    1
    18    15    14    1
    19    15    16    2
    20    18    16    1
    21    16    17    1
    22     6     4    1
    23     6     7    1
    24     9    13    1
    25     9     8    1
    26     3     4    1
    27     4     5    1
    28     7     8    2
