@<TRIPOS>MOLECULE
3ae1_EPH_D_1.pdb
 44 43 0 0 0
SMALL
GASTEIGER

@<TRIPOS>ATOM
      1  C1       -47.1110   24.2600  -84.8610 C.3   1306  EPH1306     0.2543
      2  C2       -47.7320   22.9010  -85.1860 C.3   1306  EPH1306     0.2420
      3  C4       -46.1100   24.3310  -82.5810 C.2   1306  EPH1306     0.3171
      4  O2       -47.2420   24.5460  -83.4700 O.3   1306  EPH1306    -0.4444
      5  O4       -45.8620   23.1950  -82.2110 O.2   1306  EPH1306    -0.2501
      6  C18      -45.2580   25.4970  -82.1350 C.3   1306  EPH1306     0.1096
      7  C19      -45.1190   25.5090  -80.6150 C.3   1306  EPH1306     0.0116
      8  C20      -43.7470   25.0030  -80.1850 C.3   1306  EPH1306     0.0006
      9  C21      -43.2220   25.7990  -78.9960 C.3   1306  EPH1306     0.0000
     10  C22      -42.0240   26.6570  -79.3890 C.3   1306  EPH1306     0.0000
     11  C23      -41.1550   26.9710  -78.1760 C.3   1306  EPH1306     0.0000
     12  C24      -40.0020   27.8990  -78.5430 C.3   1306  EPH1306     0.0000
     13  C25      -38.6900   27.4060  -77.9420 C.3   1306  EPH1306     0.0000
     14  C26      -37.5720   28.4180  -78.1580 C.3   1306  EPH1306     0.0000
     15  C27      -36.2270   27.8470  -77.7230 C.3   1306  EPH1306     0.0000
     16  C28      -35.0870   28.4270  -78.5540 C.3   1306  EPH1306     0.0000
     17  C29      -34.0330   27.3680  -78.8550 C.3   1306  EPH1306     0.0000
     18  C30      -32.7820   27.9930  -79.4610 C.3   1306  EPH1306     0.0000
     19  C31      -31.5370   27.2300  -79.0600 C.3   1306  EPH1306     0.0000
     20  C37      -48.2970   22.9330  -86.6070 C.3   1306  EPH1306     0.1964
     21  O5       -48.8670   21.6690  -86.9440 O.3   1306  EPH1306    -0.3100
     22  C3       -45.5240   21.8090  -85.6760 C.2   1306  EPH1306     0.3171
     23  O1       -46.8150   21.8050  -84.9810 O.3   1306  EPH1306    -0.4457
     24  O3       -45.4680   21.5410  -86.8650 O.2   1306  EPH1306    -0.2501
     25  C5       -44.2430   22.1120  -84.9340 C.3   1306  EPH1306     0.1096
     26  C6       -43.9310   20.9820  -83.9590 C.3   1306  EPH1306     0.0116
     27  C7       -42.4620   20.5650  -84.0070 C.3   1306  EPH1306     0.0006
     28  C8       -41.5500   21.5300  -83.2520 C.3   1306  EPH1306     0.0000
     29  C9       -41.4430   21.1930  -81.7670 C.3   1306  EPH1306     0.0000
     30  C10      -40.0460   21.4900  -81.2310 C.3   1306  EPH1306     0.0000
     31  C11      -39.9450   22.9000  -80.6590 C.3   1306  EPH1306     0.0000
     32  C12      -38.6020   23.5350  -81.0030 C.3   1306  EPH1306     0.0000
     33  C13      -38.7780   24.6920  -81.9790 C.3   1306  EPH1306     0.0000
     34  C14      -37.6080   25.6680  -81.9160 C.3   1306  EPH1306     0.0000
     35  C15      -38.0920   27.1010  -81.7200 C.3   1306  EPH1306     0.0000
     36  C16      -37.6700   28.0000  -82.8770 C.3   1306  EPH1306     0.0000
     37  C17      -37.8000   29.4640  -82.5090 C.3   1306  EPH1306     0.0000
     38  P1       -48.3600   20.8280  -88.2260 P.3   1306  EPH1306     0.2141
     39  O6       -47.6480   19.4490  -87.7540 O.3   1306  EPH1306    -0.4373
     40  O7       -47.3650   21.6870  -89.1260 O.2   1306  EPH1306    -0.5172
     41  O8       -49.7200   20.5120  -89.0360 O.3   1306  EPH1306    -0.3125
     42  C38      -49.6980   20.1920  -90.4280 C.3   1306  EPH1306     0.1696
     43  C39      -50.8290   20.9280  -91.1390 C.3   1306  EPH1306     0.1417
     44  N1       -50.3170   21.5520  -92.3440 N.3   1306  EPH1306    -0.1286
@<TRIPOS>BOND
     1    44    43    1
     2    43    42    1
     3    42    41    1
     4    40    38    2
     5    41    38    1
     6    38    39    1
     7    38    21    1
     8    21    20    1
     9    24    22    2
    10    20     2    1
    11    22    23    1
    12    22    25    1
    13     2    23    1
    14     2     1    1
    15    25    26    1
    16     1     4    1
    17    27    26    1
    18    27    28    1
    19     4     3    1
    20    28    29    1
    21    36    37    1
    22    36    35    1
    23     3     5    2
    24     3     6    1
    25     6     7    1
    26    33    34    1
    27    33    32    1
    28    34    35    1
    29    29    30    1
    30    30    31    1
    31    32    31    1
    32     7     8    1
    33     8     9    1
    34    18    19    1
    35    18    17    1
    36    10     9    1
    37    10    11    1
    38    17    16    1
    39    16    15    1
    40    12    11    1
    41    12    13    1
    42    14    13    1
    43    14    15    1
