@<TRIPOS>MOLECULE
3ae1_TFZ_C_1.pdb
 19 20 0 0 0
SMALL
GASTEIGER

@<TRIPOS>ATOM
      1  N        -24.2050   24.6440  -61.9400 N.am  1201  TFZ1201    -0.1755
      2  O        -22.9000   25.7830  -60.5140 O.2   1201  TFZ1201    -0.2680
      3  C1       -19.9160   24.7310  -61.2300 C.3   1201  TFZ1201     0.4187
      4  F1       -20.0070   25.1090  -62.4900 F     1201  TFZ1201    -0.1659
      5  C2       -20.7830   23.5210  -61.0040 C.ar  1201  TFZ1201     0.0759
      6  F2       -20.2710   25.7220  -60.4320 F     1201  TFZ1201    -0.1659
      7  C3       -22.2890   23.5310  -60.9480 C.ar  1201  TFZ1201     0.0593
      8  F3       -18.6560   24.4110  -60.9810 F     1201  TFZ1201    -0.1659
      9  C4       -22.9480   22.3230  -60.7340 C.ar  1201  TFZ1201     0.0045
     10  C5       -22.2280   21.1440  -60.5740 C.ar  1201  TFZ1201     0.0001
     11  C6       -20.8370   21.1360  -60.6230 C.ar  1201  TFZ1201    -0.0001
     12  C7       -20.1210   22.3070  -60.8370 C.ar  1201  TFZ1201     0.0040
     13  C8       -23.1590   24.7500  -61.1140 C.2   1201  TFZ1201     0.2689
     14  C9       -25.4910   24.9910  -61.6680 C.ar  1201  TFZ1201     0.0737
     15  C10      -26.5190   24.1180  -62.0230 C.ar  1201  TFZ1201     0.0166
     16  C11      -27.8580   24.4330  -61.7870 C.ar  1201  TFZ1201     0.0013
     17  C12      -28.1830   25.6490  -61.1930 C.ar  1201  TFZ1201     0.0001
     18  C13      -27.1640   26.5340  -60.8390 C.ar  1201  TFZ1201     0.0013
     19  C14      -25.8260   26.2080  -61.0760 C.ar  1201  TFZ1201     0.0166
@<TRIPOS>BOND
     1     4     3    1
     2    15    16   ar
     3    15    14   ar
     4     1    14    1
     5     1    13   am
     6    16    17   ar
     7    14    19   ar
     8     3     5    1
     9     3     8    1
    10     3     6    1
    11    17    18   ar
    12    13     7    1
    13    13     2    2
    14    19    18   ar
    15     5     7   ar
    16     5    12   ar
    17     7     9   ar
    18    12    11   ar
    19     9    10   ar
    20    11    10   ar
