@<TRIPOS>MOLECULE
3ae1_HEM_C_1.pdb
 43 50 0 0 0
SMALL
GASTEIGER

@<TRIPOS>ATOM
      1  CHA      -33.6410   27.2560  -64.9670 C.2   1305  HEM1305     0.0000
      2  CHB      -37.6500   24.6360  -65.7030 C.2   1305  HEM1305     0.0000
      3  CHC      -37.6190   25.9840  -70.3630 C.2   1305  HEM1305     0.0000
      4  CHD      -34.2000   29.2880  -69.3860 C.2   1305  HEM1305     0.0000
      5  C1A      -34.7540   26.4780  -64.7260 C.2   1305  HEM1305     0.0000
      6  C2A      -35.2270   26.0070  -63.4350 C.2   1305  HEM1305     0.0000
      7  C3A      -36.3380   25.2830  -63.6450 C.2   1305  HEM1305     0.0000
      8  C4A      -36.6000   25.2700  -65.0720 C.2   1305  HEM1305     0.0000
      9  CMA      -37.2090   24.5730  -62.5790 C.3   1305  HEM1305     0.0000
     10  CAA      -34.5600   26.3070  -62.0680 C.3   1305  HEM1305     0.0000
     11  CBA      -33.6380   25.1660  -61.6400 C.3   1305  HEM1305     0.0000
     12  CGA      -33.4050   25.2330  -60.1500 C.2   1305  HEM1305     0.0000
     13  O1A      -34.2310   24.6660  -59.3860 O.co2 1305  HEM1305     0.0000
     14  O2A      -32.3960   25.8550  -59.7250 O.co2 1305  HEM1305     0.0000
     15  C1B      -37.9590   24.7120  -67.0430 C.ar  1305  HEM1305     0.0000
     16  C2B      -38.9590   23.9250  -67.7450 C.ar  1305  HEM1305     0.0000
     17  C3B      -38.9440   24.3020  -69.0270 C.ar  1305  HEM1305     0.0000
     18  C4B      -37.9410   25.3370  -69.1870 C.ar  1305  HEM1305     0.0000
     19  CMB      -39.8790   22.8450  -67.1240 C.3   1305  HEM1305     0.0000
     20  CAB      -39.8400   23.7400  -70.1530 C.2   1305  HEM1305     0.0000
     21  CBB      -41.0630   24.2450  -70.3310 C.2   1305  HEM1305     0.0000
     22  C1C      -36.7420   27.0420  -70.4990 C.2   1305  HEM1305     0.0000
     23  C2C      -36.5730   27.8820  -71.6750 C.2   1305  HEM1305     0.0000
     24  C3C      -35.6290   28.7920  -71.4000 C.2   1305  HEM1305     0.0000
     25  C4C      -35.1650   28.5630  -70.0440 C.2   1305  HEM1305     0.0000
     26  CMC      -37.3460   27.7470  -73.0070 C.3   1305  HEM1305     0.0000
     27  CAC      -35.1160   29.9010  -72.3460 C.2   1305  HEM1305     0.0000
     28  CBC      -35.4930   31.1690  -72.1480 C.2   1305  HEM1305     0.0000
     29  C1D      -33.7020   29.0450  -68.1260 C.ar  1305  HEM1305     0.0000
     30  C2D      -32.6120   29.7680  -67.5130 C.ar  1305  HEM1305     0.0000
     31  C3D      -32.4270   29.1320  -66.1320 C.ar  1305  HEM1305     0.0000
     32  C4D      -33.4330   28.0940  -66.0450 C.ar  1305  HEM1305     0.0000
     33  CMD      -31.7930   30.9370  -68.1090 C.3   1305  HEM1305     0.0000
     34  CAD      -31.3830   29.5660  -65.0810 C.3   1305  HEM1305     0.0000
     35  CBD      -30.4090   28.4650  -64.6970 C.3   1305  HEM1305     0.0000
     36  CGD      -30.0140   28.7580  -63.2740 C.2   1305  HEM1305     0.0000
     37  O1D      -30.7890   28.4020  -62.3450 O.co2 1305  HEM1305     0.0000
     38  O2D      -28.9340   29.3670  -63.0710 O.co2 1305  HEM1305     0.0000
     39  NA       -35.6160   26.0100  -65.6970 N.2   1305  HEM1305     0.0000
     40  NB       -37.3600   25.5610  -67.9530 N.ar  1305  HEM1305     0.0000
     41  NC       -35.8650   27.4920  -69.5250 N.2   1305  HEM1305     0.0000
     42  ND       -34.1560   28.0790  -67.2350 N.ar  1305  HEM1305     0.0000
     43 FE        -35.7200   26.7550  -67.6060 Fe    1305  HEM1305     0.0000
@<TRIPOS>BOND
     1    26    23    1
     2    27    28    2
     3    27    24    1
     4    23    24    2
     5    23    22    1
     6    24    25    1
     7    22     3    2
     8    22    41    1
     9     3    18    1
    10    21    20    2
    11    20    17    1
    12    25    41    2
    13    25     4    1
    14    41    43    1
    15     4    29    2
    16    18    17   ar
    17    18    40   ar
    18    17    16   ar
    19    29    30   ar
    20    29    42   ar
    21    33    30    1
    22    40    43    1
    23    40    15   ar
    24    16    19    1
    25    16    15   ar
    26    43    42    1
    27    43    39    1
    28    30    31   ar
    29    42    32   ar
    30    15     2    1
    31    31    32   ar
    32    31    34    1
    33    32     1    2
    34     2     8    2
    35    39     8    1
    36    39     5    2
    37    34    35    1
    38     8     7    1
    39     1     5    1
    40     5     6    1
    41    35    36    1
    42     7     6    2
    43     7     9    1
    44     6    10    1
    45    36    38   ar
    46    36    37   ar
    47    10    11    1
    48    11    12    1
    49    12    14   ar
    50    12    13   ar
