@<TRIPOS>MOLECULE
3ae2_EPH_D_1.pdb
 44 43 0 0 0
SMALL
GASTEIGER

@<TRIPOS>ATOM
      1  C1       -10.1500  -21.2390   85.2270 C.3   1306  EPH1306     0.2543
      2  C2       -10.5950  -22.3910   86.1230 C.3   1306  EPH1306     0.2420
      3  C4        -7.6780  -21.1370   84.8590 C.2   1306  EPH1306     0.3171
      4  O2        -8.9950  -21.6240   84.4860 O.3   1306  EPH1306    -0.4444
      5  O4        -7.3610  -21.1370   86.0370 O.2   1306  EPH1306    -0.2501
      6  C18       -6.7180  -20.6400   83.8010 C.3   1306  EPH1306     0.1096
      7  C19       -6.3090  -21.7840   82.8790 C.3   1306  EPH1306     0.0116
      8  C20       -5.0860  -21.4130   82.0480 C.3   1306  EPH1306     0.0006
      9  C21       -4.6920  -22.5460   81.1060 C.3   1306  EPH1306     0.0000
     10  C22       -3.3870  -23.1980   81.5480 C.3   1306  EPH1306     0.0000
     11  C23       -3.3330  -24.6670   81.1400 C.3   1306  EPH1306     0.0000
     12  C24       -1.9870  -25.2920   81.4910 C.3   1306  EPH1306     0.0000
     13  C25       -2.1400  -26.4450   82.4800 C.3   1306  EPH1306     0.0000
     14  C26       -1.4370  -27.7020   81.9760 C.3   1306  EPH1306     0.0000
     15  C27       -1.3120  -28.7790   83.0560 C.3   1306  EPH1306     0.0000
     16  C28       -2.3980  -29.8500   82.9430 C.3   1306  EPH1306     0.0000
     17  C29       -2.0980  -30.8680   81.8440 C.3   1306  EPH1306     0.0000
     18  C30       -3.2200  -30.8980   80.8120 C.3   1306  EPH1306     0.0000
     19  C31       -2.8580  -31.7850   79.6430 C.3   1306  EPH1306     0.0000
     20  C37      -11.0890  -21.7900   87.4440 C.3   1306  EPH1306     0.1964
     21  O5       -12.5130  -21.8730   87.5820 O.3   1306  EPH1306    -0.3100
     22  C3       -11.4290  -23.6270   84.1190 C.2   1306  EPH1306     0.3171
     23  O1       -11.6090  -23.2160   85.5170 O.3   1306  EPH1306    -0.4457
     24  O3       -12.1910  -23.1390   83.3010 O.2   1306  EPH1306    -0.2501
     25  C5       -10.3640  -24.6270   83.6840 C.3   1306  EPH1306     0.1096
     26  C6       -10.4710  -25.0100   82.2020 C.3   1306  EPH1306     0.0116
     27  C7        -9.1670  -24.7620   81.4430 C.3   1306  EPH1306     0.0006
     28  C8        -8.9630  -25.7400   80.2860 C.3   1306  EPH1306     0.0000
     29  C9        -7.6140  -25.5400   79.5890 C.3   1306  EPH1306     0.0000
     30  C10       -6.8840  -26.8570   79.2970 C.3   1306  EPH1306     0.0000
     31  C11       -5.6790  -26.6680   78.3680 C.3   1306  EPH1306     0.0000
     32  C12       -4.6080  -27.7520   78.5250 C.3   1306  EPH1306     0.0000
     33  C13       -3.2840  -27.3500   77.8630 C.3   1306  EPH1306     0.0000
     34  C14       -2.1250  -28.2720   78.2500 C.3   1306  EPH1306     0.0000
     35  C15       -0.7420  -27.6370   78.0600 C.3   1306  EPH1306     0.0000
     36  C16        0.3710  -28.4870   78.6820 C.3   1306  EPH1306     0.0000
     37  C17        1.6790  -27.7350   78.8290 C.3   1306  EPH1306     0.0000
     38  P1       -13.5460  -20.7700   86.9900 P.3   1306  EPH1306     0.2141
     39  O6       -14.6480  -21.5200   86.2670 O.3   1306  EPH1306    -0.4373
     40  O7       -12.7920  -19.6850   86.2460 O.2   1306  EPH1306    -0.5172
     41  O8       -14.1810  -20.0780   88.3110 O.3   1306  EPH1306    -0.3125
     42  C38      -15.0790  -18.9670   88.2080 C.3   1306  EPH1306     0.1696
     43  C39      -15.2850  -18.3380   89.5830 C.3   1306  EPH1306     0.1417
     44  N1       -14.9550  -16.9280   89.5190 N.3   1306  EPH1306    -0.1286
@<TRIPOS>BOND
     1    33    34    1
     2    33    32    1
     3    35    34    1
     4    35    36    1
     5    31    32    1
     6    31    30    1
     7    36    37    1
     8    30    29    1
     9    29    28    1
    10    19    18    1
    11    28    27    1
    12    18    17    1
    13     9    10    1
    14     9     8    1
    15    11    12    1
    16    11    10    1
    17    27    26    1
    18    12    13    1
    19    17    16    1
    20    14    13    1
    21    14    15    1
    22     8     7    1
    23    26    25    1
    24     7     6    1
    25    16    15    1
    26    24    22    2
    27    25    22    1
    28     6     3    1
    29    22    23    1
    30     4     3    1
    31     4     1    1
    32     3     5    2
    33     1     2    1
    34    23     2    1
    35     2    20    1
    36    40    38    2
    37    39    38    1
    38    38    21    1
    39    38    41    1
    40    20    21    1
    41    42    41    1
    42    42    43    1
    43    44    43    1
