@<TRIPOS>MOLECULE
3ae2_SLI_C_1.pdb
 16 17 0 0 0
SMALL
GASTEIGER

@<TRIPOS>ATOM
      1  N         11.7620  -25.1180   61.0400 N.am  1201  SLI1201    -0.1754
      2  C1        14.7880  -24.9540   61.3230 C.ar  1201  SLI1201     0.2001
      3  O1        14.2980  -26.2000   61.5770 O.3   1201  SLI1201    -0.2864
      4  C2        13.8620  -23.7980   61.1740 C.ar  1201  SLI1201     0.0942
      5  O2        11.7790  -22.9800   61.7270 O.2   1201  SLI1201    -0.2679
      6  C3        14.3990  -22.5350   60.9150 C.ar  1201  SLI1201     0.0078
      7  C4        15.7800  -22.3690   60.7890 C.ar  1201  SLI1201     0.0004
      8  C5        16.6500  -23.4570   60.9240 C.ar  1201  SLI1201     0.0033
      9  C6        16.1610  -24.7420   61.1880 C.ar  1201  SLI1201     0.0422
     10  C7        12.3770  -23.9590   61.3220 C.2   1201  SLI1201     0.2721
     11  C8        10.4170  -25.3070   61.1650 C.ar  1201  SLI1201     0.0737
     12  C9         9.5520  -24.2980   61.6110 C.ar  1201  SLI1201     0.0166
     13  C10        8.1730  -24.4980   61.7380 C.ar  1201  SLI1201     0.0013
     14  C11        7.6270  -25.7370   61.4140 C.ar  1201  SLI1201     0.0001
     15  C12        8.4790  -26.7500   60.9640 C.ar  1201  SLI1201     0.0013
     16  C13        9.8610  -26.5400   60.8360 C.ar  1201  SLI1201     0.0166
@<TRIPOS>BOND
     1     7     6   ar
     2     7     8   ar
     3    16    15   ar
     4    16    11   ar
     5     6     4   ar
     6     8     9   ar
     7    15    14   ar
     8     1    11    1
     9     1    10   am
    10    11    12   ar
    11     4    10    1
    12     4     2   ar
    13     9     2   ar
    14    10     5    2
    15     2     3    1
    16    14    13   ar
    17    12    13   ar
