@<TRIPOS>MOLECULE
3ae2_HEM_C_1.pdb
 43 50 0 0 0
SMALL
GASTEIGER

@<TRIPOS>ATOM
      1  CHA        2.1400  -27.5240   64.9880 C.2   1305  HEM1305     0.0000
      2  CHB       -1.8540  -24.8850   65.6980 C.2   1305  HEM1305     0.0000
      3  CHC       -1.8710  -26.1780   70.3510 C.2   1305  HEM1305     0.0000
      4  CHD        1.5890  -29.4380   69.4410 C.2   1305  HEM1305     0.0000
      5  C1A        1.0370  -26.7320   64.7450 C.ar  1305  HEM1305     0.0000
      6  C2A        0.5830  -26.2230   63.4550 C.ar  1305  HEM1305     0.0000
      7  C3A       -0.5240  -25.4940   63.6730 C.ar  1305  HEM1305     0.0000
      8  C4A       -0.7960  -25.5220   65.0920 C.ar  1305  HEM1305     0.0000
      9  CMA       -1.3990  -24.7410   62.6370 C.3   1305  HEM1305     0.0000
     10  CAA        1.2590  -26.4860   62.0810 C.3   1305  HEM1305     0.0000
     11  CBA        2.0280  -25.2450   61.6260 C.3   1305  HEM1305     0.0000
     12  CGA        2.7430  -25.4720   60.3150 C.2   1305  HEM1305     0.0000
     13  O1A        3.9660  -25.7960   60.3610 O.co2 1305  HEM1305     0.0000
     14  O2A        2.0980  -25.3140   59.2380 O.co2 1305  HEM1305     0.0000
     15  C1B       -2.1810  -24.9420   67.0290 C.2   1305  HEM1305     0.0000
     16  C2B       -3.1960  -24.1480   67.6960 C.2   1305  HEM1305     0.0000
     17  C3B       -3.1970  -24.5060   68.9850 C.2   1305  HEM1305     0.0000
     18  C4B       -2.1850  -25.5350   69.1730 C.2   1305  HEM1305     0.0000
     19  CMB       -4.1010  -23.0830   67.0290 C.3   1305  HEM1305     0.0000
     20  CAB       -4.1140  -23.9290   70.0870 C.2   1305  HEM1305     0.0000
     21  CBB       -5.3940  -24.3100   70.1620 C.2   1305  HEM1305     0.0000
     22  C1C       -0.9810  -27.2250   70.5020 C.ar  1305  HEM1305     0.0000
     23  C2C       -0.7930  -28.0370   71.6980 C.ar  1305  HEM1305     0.0000
     24  C3C        0.1660  -28.9350   71.4390 C.ar  1305  HEM1305     0.0000
     25  C4C        0.6170  -28.7210   70.0790 C.ar  1305  HEM1305     0.0000
     26  CMC       -1.5590  -27.8930   73.0350 C.3   1305  HEM1305     0.0000
     27  CAC        0.7090  -30.0180   72.4050 C.2   1305  HEM1305     0.0000
     28  CBC        0.5990  -31.3190   72.1030 C.2   1305  HEM1305     0.0000
     29  C1D        2.1020  -29.1980   68.1940 C.2   1305  HEM1305     0.0000
     30  C2D        3.2530  -29.8750   67.6520 C.2   1305  HEM1305     0.0000
     31  C3D        3.4380  -29.2820   66.2620 C.2   1305  HEM1305     0.0000
     32  C4D        2.3720  -28.3110   66.1000 C.2   1305  HEM1305     0.0000
     33  CMD        4.1240  -30.9650   68.3150 C.3   1305  HEM1305     0.0000
     34  CAD        4.5490  -29.6990   65.2890 C.3   1305  HEM1305     0.0000
     35  CBD        5.3690  -28.5090   64.8450 C.3   1305  HEM1305     0.0000
     36  CGD        5.5390  -28.6890   63.3650 C.2   1305  HEM1305     0.0000
     37  O1D        4.5180  -28.7830   62.6230 O.co2 1305  HEM1305     0.0000
     38  O2D        6.7130  -28.7530   62.9290 O.co2 1305  HEM1305     0.0000
     39  NA         0.1710  -26.2860   65.7170 N.ar  1305  HEM1305     0.0000
     40  NB        -1.5790  -25.7690   67.9540 N.2   1305  HEM1305     0.0000
     41  NC        -0.0970  -27.6790   69.5330 N.ar  1305  HEM1305     0.0000
     42  ND         1.6130  -28.2900   67.2640 N.2   1305  HEM1305     0.0000
     43 FE          0.0400  -27.0080   67.6060 Fe    1305  HEM1305     0.0000
@<TRIPOS>BOND
     1    14    12   ar
     2    12    13   ar
     3    12    11    1
     4    11    10    1
     5    10     6    1
     6    37    36   ar
     7     9     7    1
     8    38    36   ar
     9    36    35    1
    10     6     7   ar
    11     6     5   ar
    12     7     8   ar
    13     5     1    2
    14     5    39   ar
    15    35    34    1
    16     1    32    1
    17     8     2    2
    18     8    39   ar
    19    34    31    1
    20     2    15    1
    21    39    43    1
    22    32    31    1
    23    32    42    2
    24    31    30    2
    25    19    16    1
    26    15    16    1
    27    15    40    2
    28    42    43    1
    29    42    29    1
    30    43    40    1
    31    43    41    1
    32    30    29    1
    33    30    33    1
    34    16    17    2
    35    40    18    1
    36    29     4    2
    37    17    18    1
    38    17    20    1
    39    18     3    2
    40     4    25    1
    41    41    25   ar
    42    41    22   ar
    43    25    24   ar
    44    20    21    2
    45     3    22    1
    46    22    23   ar
    47    24    23   ar
    48    24    27    1
    49    23    26    1
    50    28    27    2
