@<TRIPOS>MOLECULE
3ae3_HEM_C_1.pdb
 43 50 0 0 0
SMALL
GASTEIGER

@<TRIPOS>ATOM
      1  CHA      -33.5620  -26.8900   65.3080 C.2   1305  HEM1305     0.0000
      2  CHB      -37.8680  -24.7380   65.7750 C.2   1305  HEM1305     0.0000
      3  CHC      -37.4650  -25.4290   70.5510 C.2   1305  HEM1305     0.0000
      4  CHD      -34.4400  -29.1110   69.5700 C.2   1305  HEM1305     0.0000
      5  C1A      -34.6770  -26.1360   65.0200 C.ar  1305  HEM1305     0.0000
      6  C2A      -34.9410  -25.4070   63.7940 C.ar  1305  HEM1305     0.0000
      7  C3A      -36.1360  -24.8040   63.9260 C.ar  1305  HEM1305     0.0000
      8  C4A      -36.6670  -25.1440   65.2310 C.ar  1305  HEM1305     0.0000
      9  CMA      -36.8580  -23.9090   62.8920 C.3   1305  HEM1305     0.0000
     10  CAA      -33.9720  -25.3340   62.5870 C.3   1305  HEM1305     0.0000
     11  CBA      -34.3610  -26.2350   61.4210 C.3   1305  HEM1305     0.0000
     12  CGA      -33.5600  -25.7990   60.2180 C.2   1305  HEM1305     0.0000
     13  O1A      -34.1370  -25.1240   59.3230 O.co2 1305  HEM1305     0.0000
     14  O2A      -32.3410  -26.1210   60.1560 O.co2 1305  HEM1305     0.0000
     15  C1B      -38.0900  -24.6030   67.1310 C.2   1305  HEM1305     0.0000
     16  C2B      -39.0300  -23.7150   67.7960 C.2   1305  HEM1305     0.0000
     17  C3B      -38.9090  -23.9130   69.1170 C.2   1305  HEM1305     0.0000
     18  C4B      -37.8950  -24.9280   69.3390 C.2   1305  HEM1305     0.0000
     19  CMB      -39.9950  -22.7200   67.1050 C.3   1305  HEM1305     0.0000
     20  CAB      -39.7090  -23.1980   70.2240 C.2   1305  HEM1305     0.0000
     21  CBB      -40.7920  -23.7990   70.7220 C.2   1305  HEM1305     0.0000
     22  C1C      -36.6880  -26.5630   70.7120 C.ar  1305  HEM1305     0.0000
     23  C2C      -36.5210  -27.3460   71.9250 C.ar  1305  HEM1305     0.0000
     24  C3C      -35.6860  -28.3610   71.6540 C.ar  1305  HEM1305     0.0000
     25  C4C      -35.2890  -28.2630   70.2590 C.ar  1305  HEM1305     0.0000
     26  CMC      -37.1920  -27.0490   73.2870 C.3   1305  HEM1305     0.0000
     27  CAC      -35.2210  -29.4520   72.6460 C.2   1305  HEM1305     0.0000
     28  CBC      -35.8600  -30.6250   72.6880 C.2   1305  HEM1305     0.0000
     29  C1D      -33.8400  -28.8430   68.3550 C.2   1305  HEM1305     0.0000
     30  C2D      -32.7290  -29.5590   67.7600 C.2   1305  HEM1305     0.0000
     31  C3D      -32.4530  -28.8550   66.4230 C.2   1305  HEM1305     0.0000
     32  C4D      -33.4300  -27.7920   66.3440 C.2   1305  HEM1305     0.0000
     33  CMD      -31.9710  -30.7720   68.3390 C.3   1305  HEM1305     0.0000
     34  CAD      -31.3700  -29.2160   65.3820 C.3   1305  HEM1305     0.0000
     35  CBD      -30.3520  -28.0910   65.2180 C.3   1305  HEM1305     0.0000
     36  CGD      -30.1260  -27.7820   63.7560 C.2   1305  HEM1305     0.0000
     37  O1D      -29.7740  -26.6160   63.4470 O.co2 1305  HEM1305     0.0000
     38  O2D      -30.2790  -28.6880   62.8930 O.co2 1305  HEM1305     0.0000
     39  NA       -35.7480  -25.9540   65.8670 N.ar  1305  HEM1305     0.0000
     40  NB       -37.4200  -25.3230   68.1040 N.2   1305  HEM1305     0.0000
     41  NC       -35.9210  -27.1560   69.7240 N.ar  1305  HEM1305     0.0000
     42  ND       -34.2150  -27.8230   67.4900 N.2   1305  HEM1305     0.0000
     43 FE        -35.7900  -26.5310   67.8130 Fe    1305  HEM1305     0.0000
@<TRIPOS>BOND
     1    13    12   ar
     2    14    12   ar
     3    12    11    1
     4    11    10    1
     5    10     6    1
     6     9     7    1
     7    38    36   ar
     8    37    36   ar
     9    36    35    1
    10     6     7   ar
    11     6     5   ar
    12     7     8   ar
    13     5     1    2
    14     5    39   ar
    15    35    34    1
    16     8     2    2
    17     8    39   ar
    18     1    32    1
    19    34    31    1
    20     2    15    1
    21    39    43    1
    22    32    31    1
    23    32    42    2
    24    31    30    2
    25    19    16    1
    26    15    16    1
    27    15    40    2
    28    42    43    1
    29    42    29    1
    30    30    33    1
    31    30    29    1
    32    16    17    2
    33    43    40    1
    34    43    41    1
    35    40    18    1
    36    29     4    2
    37    17    18    1
    38    17    20    1
    39    18     3    2
    40     4    25    1
    41    41    25   ar
    42    41    22   ar
    43    20    21    2
    44    25    24   ar
    45     3    22    1
    46    22    23   ar
    47    24    23   ar
    48    24    27    1
    49    23    26    1
    50    27    28    2
