@<TRIPOS>MOLECULE
3ae3_NBI_B_1.pdb
 18 19 0 0 0
SMALL
GASTEIGER

@<TRIPOS>ATOM
      1  C1       -24.1110  -26.4040   60.0640 C.ar  1201  NBI1201     0.1473
      2  N1       -21.4880  -24.3280   61.8250 N.am  1201  NBI1201    -0.1754
      3  O1       -21.2720  -26.3140   60.8200 O.2   1201  NBI1201    -0.2680
      4  C2       -23.4760  -25.4740   61.0430 C.ar  1201  NBI1201     0.0778
      5  N2       -23.3360  -27.2540   59.2680 N.pl3 1201  NBI1201     0.0578
      6  O2       -22.7690  -26.8150   58.2820 O.2   1201  NBI1201    -0.1261
      7  C3       -24.2990  -24.6510   61.8090 C.ar  1201  NBI1201     0.0062
      8  O3       -23.2230  -28.4320   59.5650 O.2   1201  NBI1201    -0.1261
      9  C4       -25.6830  -24.7070   61.6550 C.ar  1201  NBI1201     0.0002
     10  C5       -26.2730  -25.5770   60.7380 C.ar  1201  NBI1201     0.0017
     11  C6       -25.4970  -26.4220   59.9460 C.ar  1201  NBI1201     0.0242
     12  C7       -21.9850  -25.4040   61.2180 C.2   1201  NBI1201     0.2706
     13  C8       -20.1940  -23.9680   61.6990 C.ar  1201  NBI1201     0.0737
     14  C9       -19.8320  -23.0230   60.7380 C.ar  1201  NBI1201     0.0166
     15  C10      -18.4960  -22.6470   60.6070 C.ar  1201  NBI1201     0.0013
     16  C11      -17.5310  -23.2130   61.4390 C.ar  1201  NBI1201     0.0001
     17  C12      -17.8930  -24.1570   62.4010 C.ar  1201  NBI1201     0.0013
     18  C13      -19.2280  -24.5340   62.5330 C.ar  1201  NBI1201     0.0166
@<TRIPOS>BOND
     1     6     5    2
     2     5     8    2
     3     5     1    1
     4    11     1   ar
     5    11    10   ar
     6     1     4   ar
     7    15    14   ar
     8    15    16   ar
     9    10     9   ar
    10    14    13   ar
    11     3    12    2
    12     4    12    1
    13     4     7   ar
    14    12     2   am
    15    16    17   ar
    16     9     7   ar
    17    13     2    1
    18    13    18   ar
    19    17    18   ar
