@<TRIPOS>MOLECULE
3ae3_EPH_D_1.pdb
 44 43 0 0 0
SMALL
GASTEIGER

@<TRIPOS>ATOM
      1  C1       -44.6890  -21.9500   85.2770 C.3   1306  EPH1306     0.2543
      2  C2       -45.9970  -21.9010   86.0790 C.3   1306  EPH1306     0.2420
      3  C4       -43.5250  -19.8030   84.7230 C.2   1306  EPH1306     0.3171
      4  O2       -44.5270  -20.8180   84.4200 O.3   1306  EPH1306    -0.4444
      5  O4       -43.7430  -19.0280   85.6420 O.2   1306  EPH1306    -0.2501
      6  C18      -42.2370  -19.6930   83.9330 C.3   1306  EPH1306     0.1096
      7  C19      -42.2570  -20.5840   82.6960 C.3   1306  EPH1306     0.0116
      8  C20      -40.8740  -21.1640   82.4210 C.3   1306  EPH1306     0.0006
      9  C21      -40.9190  -22.1580   81.2660 C.3   1306  EPH1306     0.0000
     10  C22      -39.5320  -22.7150   80.9680 C.3   1306  EPH1306     0.0000
     11  C23      -39.3820  -24.1350   81.4990 C.3   1306  EPH1306     0.0000
     12  C24      -37.9600  -24.3870   81.9910 C.3   1306  EPH1306     0.0000
     13  C25      -37.9090  -25.5590   82.9650 C.3   1306  EPH1306     0.0000
     14  C26      -37.3720  -26.8140   82.2830 C.3   1306  EPH1306     0.0000
     15  C27      -37.4180  -28.0300   83.2030 C.3   1306  EPH1306     0.0000
     16  C28      -38.5970  -28.9390   82.8700 C.3   1306  EPH1306     0.0000
     17  C29      -38.1880  -30.0920   81.9600 C.3   1306  EPH1306     0.0000
     18  C30      -39.3060  -30.4310   80.9820 C.3   1306  EPH1306     0.0000
     19  C31      -38.9890  -31.6910   80.2080 C.3   1306  EPH1306     0.0000
     20  C37      -46.7050  -20.5460   85.9660 C.3   1306  EPH1306     0.1964
     21  O5       -47.5870  -20.3640   87.0740 O.3   1306  EPH1306    -0.3100
     22  C3       -47.0840  -23.2780   84.3100 C.2   1306  EPH1306     0.3171
     23  O1       -46.9060  -22.9600   85.7270 O.3   1306  EPH1306    -0.4457
     24  O3       -47.6400  -22.4700   83.5790 O.2   1306  EPH1306    -0.2501
     25  C5       -46.6020  -24.6120   83.7760 C.3   1306  EPH1306     0.1096
     26  C6       -46.5550  -24.6280   82.2490 C.3   1306  EPH1306     0.0116
     27  C7       -45.1250  -24.5060   81.7350 C.3   1306  EPH1306     0.0006
     28  C8       -44.9790  -25.1880   80.3800 C.3   1306  EPH1306     0.0000
     29  C9       -43.5700  -25.0240   79.8240 C.3   1306  EPH1306     0.0000
     30  C10      -42.8510  -26.3660   79.7370 C.3   1306  EPH1306     0.0000
     31  C11      -41.8840  -26.3950   78.5570 C.3   1306  EPH1306     0.0000
     32  C12      -40.7240  -27.3550   78.7990 C.3   1306  EPH1306     0.0000
     33  C13      -39.4550  -26.8640   78.1080 C.3   1306  EPH1306     0.0000
     34  C14      -38.3490  -27.9120   78.1660 C.3   1306  EPH1306     0.0000
     35  C15      -36.9710  -27.2590   78.2220 C.3   1306  EPH1306     0.0000
     36  C16      -35.9030  -28.2620   78.6480 C.3   1306  EPH1306     0.0000
     37  C17      -34.6950  -27.5760   79.2520 C.3   1306  EPH1306     0.0000
     38  P1       -49.1830  -20.5900   86.9450 P.3   1306  EPH1306     0.2141
     39  O6       -49.8080  -21.2400   88.4860 O.3   1306  EPH1306    -0.4373
     40  O7       -49.5480  -21.5860   85.7560 O.2   1306  EPH1306    -0.5172
     41  O8       -49.7750  -19.1090   86.6730 O.3   1306  EPH1306    -0.3125
     42  C38      -50.3170  -18.7280   85.4070 C.3   1306  EPH1306     0.1696
     43  C39      -51.8220  -18.5240   85.5330 C.3   1306  EPH1306     0.1417
     44  N1       -52.5090  -19.6440   84.9190 N.3   1306  EPH1306    -0.1286
@<TRIPOS>BOND
     1    33    34    1
     2    33    32    1
     3    34    35    1
     4    35    36    1
     5    31    32    1
     6    31    30    1
     7    36    37    1
     8    30    29    1
     9    29    28    1
    10    19    18    1
    11    28    27    1
    12    10     9    1
    13    10    11    1
    14    18    17    1
    15     9     8    1
    16    11    12    1
    17    27    26    1
    18    17    16    1
    19    12    13    1
    20    26    25    1
    21    14    13    1
    22    14    15    1
    23     8     7    1
    24     7     6    1
    25    16    15    1
    26    24    22    2
    27    25    22    1
    28     6     3    1
    29    22    23    1
    30     4     3    1
    31     4     1    1
    32     3     5    2
    33    44    43    1
    34     1     2    1
    35    42    43    1
    36    42    41    1
    37    23     2    1
    38    40    38    2
    39    20     2    1
    40    20    21    1
    41    41    38    1
    42    38    21    1
    43    38    39    1
