@<TRIPOS>MOLECULE
3ae4_EPH_D_1.pdb
 44 43 0 0 0
SMALL
GASTEIGER

@<TRIPOS>ATOM
      1  C1        -8.4020  -20.9800   85.0230 C.3   1306  EPH1306     0.2543
      2  C2        -9.7860  -21.6040   85.1830 C.3   1306  EPH1306     0.2420
      3  C4        -6.6880  -20.9760   83.1800 C.2   1306  EPH1306     0.3171
      4  O2        -7.6600  -21.6680   84.0150 O.3   1306  EPH1306    -0.4444
      5  O4        -5.6120  -20.6650   83.6630 O.2   1306  EPH1306    -0.2501
      6  C18       -7.0150  -20.6470   81.7390 C.3   1306  EPH1306     0.1096
      7  C19       -6.1010  -21.3900   80.7630 C.3   1306  EPH1306     0.0116
      8  C20       -6.7990  -21.6700   79.4290 C.3   1306  EPH1306     0.0006
      9  C21       -6.6160  -20.5430   78.4110 C.3   1306  EPH1306     0.0000
     10  C22       -7.9550  -20.0280   77.8890 C.3   1306  EPH1306     0.0000
     11  C23       -8.3050  -18.6680   78.4890 C.3   1306  EPH1306     0.0000
     12  C24       -9.6740  -18.1800   78.0230 C.3   1306  EPH1306     0.0000
     13  C25       -9.6360  -16.7180   77.5820 C.3   1306  EPH1306     0.0000
     14  C26      -10.4360  -16.4950   76.2980 C.3   1306  EPH1306     0.0000
     15  C27       -9.5390  -16.0760   75.1330 C.3   1306  EPH1306     0.0000
     16  C28       -9.5770  -17.0960   73.9940 C.3   1306  EPH1306     0.0000
     17  C29       -8.3110  -17.0490   73.1370 C.3   1306  EPH1306     0.0000
     18  C30       -7.6480  -18.4190   73.0270 C.3   1306  EPH1306     0.0000
     19  C31       -6.3160  -18.4400   73.7440 C.3   1306  EPH1306     0.0000
     20  C37      -10.3200  -21.2390   86.5680 C.3   1306  EPH1306     0.1964
     21  O5       -11.4070  -22.0900   86.9480 O.3   1306  EPH1306    -0.3100
     22  C3       -10.5230  -23.6020   83.9700 C.2   1306  EPH1306     0.3171
     23  O1        -9.6990  -23.0260   85.0340 O.3   1306  EPH1306    -0.4457
     24  O3       -11.6190  -24.0630   84.2510 O.2   1306  EPH1306    -0.2501
     25  C5       -10.0290  -23.6490   82.5380 C.3   1306  EPH1306     0.1096
     26  C6        -9.5370  -25.0490   82.1770 C.3   1306  EPH1306     0.0116
     27  C7        -9.4870  -25.2520   80.6650 C.3   1306  EPH1306     0.0006
     28  C8        -8.0570  -25.2020   80.1310 C.3   1306  EPH1306     0.0000
     29  C9        -7.6040  -26.5520   79.5790 C.3   1306  EPH1306     0.0000
     30  C10       -6.3910  -26.4180   78.6580 C.3   1306  EPH1306     0.0000
     31  C11       -5.3060  -27.4400   78.9950 C.3   1306  EPH1306     0.0000
     32  C12       -4.3850  -27.7100   77.8080 C.3   1306  EPH1306     0.0000
     33  C13       -2.9480  -27.2980   78.1170 C.3   1306  EPH1306     0.0000
     34  C14       -1.9560  -28.4280   77.8480 C.3   1306  EPH1306     0.0000
     35  C15       -0.5130  -27.9550   78.0080 C.3   1306  EPH1306     0.0000
     36  C16        0.2080  -28.6810   79.1400 C.3   1306  EPH1306     0.0000
     37  C17        1.5010  -27.9820   79.5020 C.3   1306  EPH1306     0.0000
     38  P1       -12.9480  -21.6620   86.7100 P.3   1306  EPH1306     0.2141
     39  O6       -13.1910  -19.9400   87.1340 O.3   1306  EPH1306    -0.4373
     40  O7       -13.3620  -21.9280   85.1940 O.2   1306  EPH1306    -0.5172
     41  O8       -13.7940  -22.6110   87.7130 O.3   1306  EPH1306    -0.3125
     42  C38      -14.9440  -23.3420   87.2730 C.3   1306  EPH1306     0.1696
     43  C39      -16.1670  -22.4280   87.1980 C.3   1306  EPH1306     0.1417
     44  N1       -16.4790  -22.1270   85.8120 N.3   1306  EPH1306    -0.1286
@<TRIPOS>BOND
     1    18    17    1
     2    18    19    1
     3    17    16    1
     4    16    15    1
     5    15    14    1
     6    14    13    1
     7    13    12    1
     8    32    33    1
     9    32    31    1
    10    34    35    1
    11    34    33    1
    12    10     9    1
    13    10    11    1
    14    35    36    1
    15    12    11    1
    16     9     8    1
    17    30    31    1
    18    30    29    1
    19    36    37    1
    20     8     7    1
    21    29    28    1
    22    28    27    1
    23    27    26    1
    24     7     6    1
    25     6     3    1
    26    26    25    1
    27    25    22    1
    28     3     5    2
    29     3     4    1
    30    22    24    2
    31    22    23    1
    32     4     1    1
    33     1     2    1
    34    23     2    1
    35     2    20    1
    36    40    38    2
    37    44    43    1
    38    20    21    1
    39    38    21    1
    40    38    39    1
    41    38    41    1
    42    43    42    1
    43    42    41    1
