@<TRIPOS>MOLECULE
3ae4_N1M_D_1.pdb
 11 11 0 0 0
SMALL
GASTEIGER

@<TRIPOS>ATOM
      1  I         12.3400  -27.9230   58.4550 I     1201  N1M1201    -0.0424
      2  N         14.9430  -25.0190   60.5740 N.am  1201  N1M1201    -0.1998
      3  O         14.6070  -27.2380   60.4640 O.2   1201  N1M1201    -0.2684
      4  C1        11.7160  -26.6710   60.0160 C.ar  1201  N1M1201     0.0345
      5  C2        12.7010  -25.9480   60.8690 C.ar  1201  N1M1201     0.0604
      6  C3        12.2420  -25.1220   61.8940 C.ar  1201  N1M1201     0.0050
      7  C4        10.8710  -24.9780   62.1020 C.ar  1201  N1M1201     0.0002
      8  C5         9.9470  -25.6510   61.3020 C.ar  1201  N1M1201     0.0004
      9  C6        10.3590  -26.4900   60.2660 C.ar  1201  N1M1201     0.0059
     10  C7        14.1710  -26.1100   60.6260 C.2   1201  N1M1201     0.2652
     11  C8        15.9840  -24.7350   61.5460 C.3   1201  N1M1201     0.1388
@<TRIPOS>BOND
     1     1     4    1
     2     4     9   ar
     3     4     5   ar
     4     9     8   ar
     5     3    10    2
     6     2    10   am
     7     2    11    1
     8    10     5    1
     9     5     6   ar
    10     8     7   ar
    11     6     7   ar
