@<TRIPOS>MOLECULE
3ae4_HEM_C_1.pdb
 43 50 0 0 0
SMALL
GASTEIGER

@<TRIPOS>ATOM
      1  CHA        2.3190  -27.4020   64.9580 C.2   1305  HEM1305     0.0000
      2  CHB       -1.6620  -24.7250   65.5750 C.2   1305  HEM1305     0.0000
      3  CHC       -1.6760  -25.9310   70.2410 C.2   1305  HEM1305     0.0000
      4  CHD        1.6070  -29.3840   69.3390 C.2   1305  HEM1305     0.0000
      5  C1A        1.2290  -26.6010   64.7160 C.ar  1305  HEM1305     0.0000
      6  C2A        0.8220  -26.1020   63.4130 C.ar  1305  HEM1305     0.0000
      7  C3A       -0.2810  -25.3620   63.5900 C.ar  1305  HEM1305     0.0000
      8  C4A       -0.5940  -25.3720   65.0030 C.ar  1305  HEM1305     0.0000
      9  CMA       -1.1030  -24.6140   62.5110 C.3   1305  HEM1305     0.0000
     10  CAA        1.5430  -26.4000   62.0690 C.3   1305  HEM1305     0.0000
     11  CBA        2.7110  -25.4420   61.8420 C.3   1305  HEM1305     0.0000
     12  CGA        3.3660  -25.6870   60.4990 C.2   1305  HEM1305     0.0000
     13  O1A        4.5410  -26.1530   60.4900 O.co2 1305  HEM1305     0.0000
     14  O2A        2.7270  -25.4140   59.4420 O.co2 1305  HEM1305     0.0000
     15  C1B       -2.0040  -24.7790   66.9000 C.2   1305  HEM1305     0.0000
     16  C2B       -3.0670  -24.0310   67.5360 C.2   1305  HEM1305     0.0000
     17  C3B       -3.0650  -24.3640   68.8250 C.2   1305  HEM1305     0.0000
     18  C4B       -2.0080  -25.3330   69.0490 C.2   1305  HEM1305     0.0000
     19  CMB       -4.0250  -23.0280   66.8450 C.3   1305  HEM1305     0.0000
     20  CAB       -4.0290  -23.8180   69.8940 C.2   1305  HEM1305     0.0000
     21  CBB       -5.2630  -24.3160   69.9440 C.2   1305  HEM1305     0.0000
     22  C1C       -0.8360  -27.0150   70.3990 C.ar  1305  HEM1305     0.0000
     23  C2C       -0.6720  -27.8100   71.6100 C.ar  1305  HEM1305     0.0000
     24  C3C        0.2360  -28.7600   71.3540 C.ar  1305  HEM1305     0.0000
     25  C4C        0.6770  -28.6020   69.9790 C.ar  1305  HEM1305     0.0000
     26  CMC       -1.4110  -27.5980   72.9530 C.3   1305  HEM1305     0.0000
     27  CAC        0.7310  -29.8430   72.3430 C.2   1305  HEM1305     0.0000
     28  CBC        0.2990  -31.1020   72.2100 C.2   1305  HEM1305     0.0000
     29  C1D        2.1780  -29.1400   68.1130 C.2   1305  HEM1305     0.0000
     30  C2D        3.3410  -29.8110   67.5740 C.2   1305  HEM1305     0.0000
     31  C3D        3.5670  -29.1890   66.1940 C.2   1305  HEM1305     0.0000
     32  C4D        2.5100  -28.2110   66.0490 C.2   1305  HEM1305     0.0000
     33  CMD        4.1780  -30.9200   68.2390 C.3   1305  HEM1305     0.0000
     34  CAD        4.6850  -29.5410   65.1830 C.3   1305  HEM1305     0.0000
     35  CBD        5.7470  -28.4470   65.1340 C.3   1305  HEM1305     0.0000
     36  CGD        6.1500  -28.1760   63.7060 C.2   1305  HEM1305     0.0000
     37  O1D        5.8650  -29.0100   62.8060 O.co2 1305  HEM1305     0.0000
     38  O2D        6.7740  -27.1130   63.4540 O.co2 1305  HEM1305     0.0000
     39  NA         0.3450  -26.1360   65.6670 N.ar  1305  HEM1305     0.0000
     40  NB        -1.3780  -25.5630   67.8480 N.2   1305  HEM1305     0.0000
     41  NC         0.0070  -27.5310   69.4320 N.ar  1305  HEM1305     0.0000
     42  ND         1.7240  -28.2140   67.1900 N.2   1305  HEM1305     0.0000
     43 FE          0.1830  -26.9220   67.5910 Fe    1305  HEM1305     0.0000
@<TRIPOS>BOND
     1    14    12   ar
     2    13    12   ar
     3    12    11    1
     4    11    10    1
     5    10     6    1
     6     9     7    1
     7    37    36   ar
     8     6     7   ar
     9     6     5   ar
    10    38    36   ar
    11     7     8   ar
    12    36    35    1
    13     5     1    2
    14     5    39   ar
    15     1    32    1
    16     8     2    2
    17     8    39   ar
    18    35    34    1
    19    34    31    1
    20     2    15    1
    21    39    43    1
    22    32    31    1
    23    32    42    2
    24    31    30    2
    25    19    16    1
    26    15    16    1
    27    15    40    2
    28    42    43    1
    29    42    29    1
    30    16    17    2
    31    30    29    1
    32    30    33    1
    33    43    40    1
    34    43    41    1
    35    40    18    1
    36    29     4    2
    37    17    18    1
    38    17    20    1
    39    18     3    2
    40     4    25    1
    41    41    25   ar
    42    41    22   ar
    43    20    21    2
    44    25    24   ar
    45     3    22    1
    46    22    23   ar
    47    24    23   ar
    48    24    27    1
    49    23    26    1
    50    28    27    2
