@<TRIPOS>MOLECULE
3ae5_HEM_C_1.pdb
 43 50 0 0 0
SMALL
GASTEIGER

@<TRIPOS>ATOM
      1  CHA      -33.0090  -26.8030   65.3350 C.2   1305  HEM1305     0.0000
      2  CHB      -37.3810  -24.7300   65.4140 C.2   1305  HEM1305     0.0000
      3  CHC      -37.2250  -25.2140   70.2260 C.2   1305  HEM1305     0.0000
      4  CHD      -34.3030  -29.0050   69.5030 C.2   1305  HEM1305     0.0000
      5  C1A      -34.1140  -26.0830   64.9300 C.ar  1305  HEM1305     0.0000
      6  C2A      -34.3070  -25.4050   63.6580 C.ar  1305  HEM1305     0.0000
      7  C3A      -35.5210  -24.8250   63.6810 C.ar  1305  HEM1305     0.0000
      8  C4A      -36.1370  -25.1250   64.9620 C.ar  1305  HEM1305     0.0000
      9  CMA      -36.1810  -23.9860   62.5610 C.3   1305  HEM1305     0.0000
     10  CAA      -33.2590  -25.3630   62.5160 C.3   1305  HEM1305     0.0000
     11  CBA      -33.6990  -26.1340   61.2760 C.3   1305  HEM1305     0.0000
     12  CGA      -33.2440  -25.3590   60.0650 C.2   1305  HEM1305     0.0000
     13  O1A      -33.9830  -24.4380   59.6270 O.co2 1305  HEM1305     0.0000
     14  O2A      -32.1400  -25.6570   59.5410 O.co2 1305  HEM1305     0.0000
     15  C1B      -37.6960  -24.5590   66.7480 C.2   1305  HEM1305     0.0000
     16  C2B      -38.7280  -23.7110   67.3210 C.2   1305  HEM1305     0.0000
     17  C3B      -38.6810  -23.8480   68.6530 C.2   1305  HEM1305     0.0000
     18  C4B      -37.6190  -24.7820   68.9760 C.2   1305  HEM1305     0.0000
     19  CMB      -39.7110  -22.8110   66.5350 C.3   1305  HEM1305     0.0000
     20  CAB      -39.5960  -23.1380   69.6740 C.2   1305  HEM1305     0.0000
     21  CBB      -40.7350  -23.7230   70.0520 C.2   1305  HEM1305     0.0000
     22  C1C      -36.5650  -26.4060   70.4490 C.ar  1305  HEM1305     0.0000
     23  C2C      -36.6770  -27.2850   71.6000 C.ar  1305  HEM1305     0.0000
     24  C3C      -35.8680  -28.3350   71.3990 C.ar  1305  HEM1305     0.0000
     25  C4C      -35.2140  -28.1640   70.1110 C.ar  1305  HEM1305     0.0000
     26  CMC      -37.5710  -27.0500   72.8410 C.3   1305  HEM1305     0.0000
     27  CAC      -35.6800  -29.5190   72.3750 C.2   1305  HEM1305     0.0000
     28  CBC      -34.4610  -29.9290   72.7310 C.2   1305  HEM1305     0.0000
     29  C1D      -33.5730  -28.7240   68.3630 C.2   1305  HEM1305     0.0000
     30  C2D      -32.3720  -29.4030   67.9290 C.2   1305  HEM1305     0.0000
     31  C3D      -31.9550  -28.7230   66.6160 C.2   1305  HEM1305     0.0000
     32  C4D      -32.9520  -27.6920   66.3920 C.2   1305  HEM1305     0.0000
     33  CMD      -31.6560  -30.5770   68.6320 C.3   1305  HEM1305     0.0000
     34  CAD      -30.7130  -29.0990   65.7690 C.3   1305  HEM1305     0.0000
     35  CBD      -30.9010  -28.8290   64.2800 C.3   1305  HEM1305     0.0000
     36  CGD      -29.7530  -27.9990   63.7690 C.2   1305  HEM1305     0.0000
     37  O1D      -29.2490  -28.3140   62.6610 O.co2 1305  HEM1305     0.0000
     38  O2D      -29.3410  -27.0280   64.4570 O.co2 1305  HEM1305     0.0000
     39  NA       -35.2470  -25.8910   65.6890 N.ar  1305  HEM1305     0.0000
     40  NB       -37.0450  -25.1920   67.7900 N.2   1305  HEM1305     0.0000
     41  NC       -35.6680  -26.9800   69.5680 N.ar  1305  HEM1305     0.0000
     42  ND       -33.8710  -27.7350   67.4340 N.2   1305  HEM1305     0.0000
     43 FE        -35.4050  -26.4180   67.6420 Fe    1305  HEM1305     0.0000
@<TRIPOS>BOND
     1    14    12   ar
     2    13    12   ar
     3    12    11    1
     4    11    10    1
     5    10     6    1
     6     9     7    1
     7    37    36   ar
     8     6     7   ar
     9     6     5   ar
    10     7     8   ar
    11    36    35    1
    12    36    38   ar
    13    35    34    1
    14     5     1    2
    15     5    39   ar
    16     8     2    2
    17     8    39   ar
    18     1    32    1
    19     2    15    1
    20    39    43    1
    21    34    31    1
    22    32    31    1
    23    32    42    2
    24    19    16    1
    25    31    30    2
    26    15    16    1
    27    15    40    2
    28    16    17    2
    29    42    43    1
    30    42    29    1
    31    43    40    1
    32    43    41    1
    33    40    18    1
    34    30    29    1
    35    30    33    1
    36    29     4    2
    37    17    18    1
    38    17    20    1
    39    18     3    2
    40     4    25    1
    41    41    25   ar
    42    41    22   ar
    43    20    21    2
    44    25    24   ar
    45     3    22    1
    46    22    23   ar
    47    24    23   ar
    48    24    27    1
    49    23    26    1
    50    27    28    2
