@<TRIPOS>MOLECULE
3ae5_EPH_D_1.pdb
 44 43 0 0 0
SMALL
GASTEIGER

@<TRIPOS>ATOM
      1  C1       -45.2110  -21.6510   83.7730 C.3   1306  EPH1306     0.2543
      2  C2       -46.0170  -21.8520   85.0570 C.3   1306  EPH1306     0.2420
      3  C4       -42.9830  -20.6470   84.2610 C.2   1306  EPH1306     0.3171
      4  O2       -43.8210  -21.8160   84.0440 O.3   1306  EPH1306    -0.4444
      5  O4       -43.0630  -20.0680   85.3310 O.2   1306  EPH1306    -0.2501
      6  C18      -42.0340  -20.1480   83.1930 C.3   1306  EPH1306     0.1096
      7  C19      -41.8870  -21.1610   82.0630 C.3   1306  EPH1306     0.0116
      8  C20      -40.5780  -20.9550   81.3100 C.3   1306  EPH1306     0.0006
      9  C21      -40.1890  -22.2130   80.5430 C.3   1306  EPH1306     0.0000
     10  C22      -38.8320  -22.7350   81.0030 C.3   1306  EPH1306     0.0000
     11  C23      -38.8980  -24.2230   81.3270 C.3   1306  EPH1306     0.0000
     12  C24      -37.5800  -24.7190   81.9110 C.3   1306  EPH1306     0.0000
     13  C25      -37.8030  -25.8780   82.8760 C.3   1306  EPH1306     0.0000
     14  C26      -37.2490  -27.1770   82.3030 C.3   1306  EPH1306     0.0000
     15  C27      -37.7100  -28.3860   83.1110 C.3   1306  EPH1306     0.0000
     16  C28      -38.7320  -29.2130   82.3380 C.3   1306  EPH1306     0.0000
     17  C29      -38.0910  -30.4410   81.7020 C.3   1306  EPH1306     0.0000
     18  C30      -38.8440  -30.8550   80.4440 C.3   1306  EPH1306     0.0000
     19  C31      -37.9150  -31.5150   79.4480 C.3   1306  EPH1306     0.0000
     20  C37      -46.8260  -20.5870   85.3390 C.3   1306  EPH1306     0.1964
     21  O5       -47.3750  -20.6360   86.6560 O.3   1306  EPH1306    -0.3100
     22  C3       -47.4720  -23.3760   83.7270 C.2   1306  EPH1306     0.3171
     23  O1       -46.8860  -22.9960   85.0130 O.3   1306  EPH1306    -0.4457
     24  O3       -48.3310  -22.6670   83.2240 O.2   1306  EPH1306    -0.2501
     25  C5       -47.0360  -24.6580   83.0480 C.3   1306  EPH1306     0.1096
     26  C6       -46.4900  -24.3750   81.6520 C.3   1306  EPH1306     0.0116
     27  C7       -45.0150  -24.7400   81.5430 C.3   1306  EPH1306     0.0006
     28  C8       -44.5460  -24.6630   80.0950 C.3   1306  EPH1306     0.0000
     29  C9       -43.0300  -24.7960   80.0010 C.3   1306  EPH1306     0.0000
     30  C10      -42.6310  -25.7940   78.9190 C.3   1306  EPH1306     0.0000
     31  C11      -41.1760  -25.5990   78.5060 C.3   1306  EPH1306     0.0000
     32  C12      -40.5450  -26.9120   78.0590 C.3   1306  EPH1306     0.0000
     33  C13      -39.0900  -26.7100   77.6490 C.3   1306  EPH1306     0.0000
     34  C14      -38.1850  -27.7550   78.2920 C.3   1306  EPH1306     0.0000
     35  C15      -36.7190  -27.3510   78.1880 C.3   1306  EPH1306     0.0000
     36  C16      -35.8270  -28.3260   78.9470 C.3   1306  EPH1306     0.0000
     37  C17      -34.4350  -27.7610   79.1280 C.3   1306  EPH1306     0.0000
     38  P1       -48.4250  -19.5240   87.1750 P.3   1306  EPH1306     0.2141
     39  O6       -49.4810  -19.3190   86.1140 O.2   1306  EPH1306    -0.5172
     40  O7       -48.8410  -19.9090   88.5760 O.3   1306  EPH1306    -0.4373
     41  O8       -47.5340  -18.1820   87.2630 O.3   1306  EPH1306    -0.3125
     42  C38      -48.0700  -16.9870   87.8290 C.3   1306  EPH1306     0.1696
     43  C39      -47.4930  -15.7780   87.1050 C.3   1306  EPH1306     0.1417
     44  N1       -47.7600  -14.5850   87.8830 N.3   1306  EPH1306    -0.1286
@<TRIPOS>BOND
     1    33    32    1
     2    33    34    1
     3    32    31    1
     4    35    34    1
     5    35    36    1
     6    31    30    1
     7    30    29    1
     8    36    37    1
     9    19    18    1
    10    29    28    1
    11    28    27    1
    12    18    17    1
    13     9    10    1
    14     9     8    1
    15    10    11    1
    16     8     7    1
    17    11    12    1
    18    27    26    1
    19    26    25    1
    20    17    16    1
    21    12    13    1
    22     7     6    1
    23    14    13    1
    24    14    15    1
    25    16    15    1
    26    25    22    1
    27     6     3    1
    28    24    22    2
    29    22    23    1
    30     1     4    1
    31     1     2    1
    32     4     3    1
    33     3     5    2
    34    23     2    1
    35     2    20    1
    36    20    21    1
    37    39    38    2
    38    21    38    1
    39    43    42    1
    40    43    44    1
    41    38    41    1
    42    38    40    1
    43    41    42    1
