@<TRIPOS>MOLECULE
3ae5_MRN_D_1.pdb
 20 21 0 0 0
SMALL
GASTEIGER

@<TRIPOS>ATOM
      1  N        -20.3750  -24.3580   60.7870 N.am  1201  MRN1201    -0.1754
      2  C1       -22.9030  -27.3800   59.3790 C.3   1201  MRN1201     0.0312
      3  O1       -20.6090  -26.5510   61.2290 O.2   1201  MRN1201    -0.2680
      4  C2       -23.4760  -26.2630   60.2160 C.ar  1201  MRN1201    -0.0174
      5  O2       -16.7950  -21.2650   61.4820 O.3   1201  MRN1201    -0.4791
      6  C3       -22.6090  -25.3340   61.0070 C.ar  1201  MRN1201     0.0514
      7  C4       -23.2230  -24.3270   61.7520 C.ar  1201  MRN1201     0.0043
      8  C5       -24.6130  -24.1980   61.7530 C.ar  1201  MRN1201     0.0001
      9  C6       -25.4190  -25.0660   61.0140 C.ar  1201  MRN1201    -0.0003
     10  C7       -24.8580  -26.0900   60.2520 C.ar  1201  MRN1201    -0.0041
     11  C8       -21.1070  -25.4560   61.0180 C.2   1201  MRN1201     0.2687
     12  C9       -19.1700  -24.0830   61.3550 C.ar  1201  MRN1201     0.0767
     13  C10      -18.5920  -22.8290   61.1400 C.ar  1201  MRN1201     0.0535
     14  C11      -17.3550  -22.5080   61.7080 C.ar  1201  MRN1201     0.1397
     15  C12      -16.6920  -23.4630   62.4860 C.ar  1201  MRN1201     0.0370
     16  C13      -17.2590  -24.7160   62.7060 C.ar  1201  MRN1201     0.0044
     17  C14      -18.4930  -25.0220   62.1400 C.ar  1201  MRN1201     0.0168
     18  C15      -16.4560  -20.3470   62.5320 C.3   1201  MRN1201     0.1661
     19  C16      -16.8760  -18.9330   62.1490 C.3   1201  MRN1201     0.0472
     20  C17      -14.9580  -20.3780   62.8100 C.3   1201  MRN1201     0.0472
@<TRIPOS>BOND
     1     2     4    1
     2     4    10   ar
     3     4     6   ar
     4    10     9   ar
     5     1    11   am
     6     1    12    1
     7     6    11    1
     8     6     7   ar
     9     9     8   ar
    10    11     3    2
    11    13    12   ar
    12    13    14   ar
    13    12    17   ar
    14     5    14    1
    15     5    18    1
    16    14    15   ar
    17     7     8   ar
    18    17    16   ar
    19    19    18    1
    20    15    16   ar
    21    18    20    1
