@<TRIPOS>MOLECULE
3ae6_HEM_C_1.pdb
 43 50 0 0 0
SMALL
GASTEIGER

@<TRIPOS>ATOM
      1  CHA      -33.3920  -26.5860   64.6870 C.2   1305  HEM1305     0.0000
      2  CHB      -37.8380  -24.7940   65.3290 C.2   1305  HEM1305     0.0000
      3  CHC      -37.2560  -25.4310   70.0890 C.2   1305  HEM1305     0.0000
      4  CHD      -33.9350  -28.7910   69.0320 C.2   1305  HEM1305     0.0000
      5  C1A      -34.5780  -25.9280   64.4150 C.ar  1305  HEM1305     0.0000
      6  C2A      -34.9880  -25.2510   63.1850 C.ar  1305  HEM1305     0.0000
      7  C3A      -36.2200  -24.7570   63.3820 C.ar  1305  HEM1305     0.0000
      8  C4A      -36.6400  -25.1060   64.7240 C.ar  1305  HEM1305     0.0000
      9  CMA      -37.0630  -23.9560   62.3590 C.3   1305  HEM1305     0.0000
     10  CAA      -34.1920  -25.0650   61.8640 C.3   1305  HEM1305     0.0000
     11  CBA      -33.4330  -26.2940   61.3730 C.3   1305  HEM1305     0.0000
     12  CGA      -32.4190  -25.8240   60.3590 C.2   1305  HEM1305     0.0000
     13  O1A      -32.7680  -25.7620   59.1490 O.co2 1305  HEM1305     0.0000
     14  O2A      -31.2680  -25.5010   60.7600 O.co2 1305  HEM1305     0.0000
     15  C1B      -38.0000  -24.6470   66.6900 C.2   1305  HEM1305     0.0000
     16  C2B      -38.9000  -23.7380   67.3770 C.2   1305  HEM1305     0.0000
     17  C3B      -38.7330  -23.9190   68.6940 C.2   1305  HEM1305     0.0000
     18  C4B      -37.7260  -24.9420   68.8910 C.2   1305  HEM1305     0.0000
     19  CMB      -39.8750  -22.7420   66.7040 C.3   1305  HEM1305     0.0000
     20  CAB      -39.4820  -23.1760   69.8180 C.2   1305  HEM1305     0.0000
     21  CBB      -40.7090  -23.5850   70.1520 C.2   1305  HEM1305     0.0000
     22  C1C      -36.4430  -26.5390   70.2020 C.ar  1305  HEM1305     0.0000
     23  C2C      -36.3920  -27.4760   71.3080 C.ar  1305  HEM1305     0.0000
     24  C3C      -35.4670  -28.4090   71.0130 C.ar  1305  HEM1305     0.0000
     25  C4C      -34.9120  -28.0890   69.7080 C.ar  1305  HEM1305     0.0000
     26  CMC      -37.2640  -27.3750   72.5840 C.3   1305  HEM1305     0.0000
     27  CAC      -35.0320  -29.6330   71.8610 C.2   1305  HEM1305     0.0000
     28  CBC      -35.1220  -29.6560   73.1950 C.2   1305  HEM1305     0.0000
     29  C1D      -33.4160  -28.4970   67.7860 C.2   1305  HEM1305     0.0000
     30  C2D      -32.2900  -29.1540   67.1600 C.2   1305  HEM1305     0.0000
     31  C3D      -32.1140  -28.4640   65.7980 C.2   1305  HEM1305     0.0000
     32  C4D      -33.1590  -27.4620   65.7360 C.2   1305  HEM1305     0.0000
     33  CMD      -31.4430  -30.3080   67.7430 C.3   1305  HEM1305     0.0000
     34  CAD      -31.0560  -28.7880   64.7180 C.3   1305  HEM1305     0.0000
     35  CBD      -29.8200  -27.9090   64.8570 C.3   1305  HEM1305     0.0000
     36  CGD      -29.1830  -27.7640   63.4980 C.2   1305  HEM1305     0.0000
     37  O1D      -28.7550  -28.7920   62.9110 O.co2 1305  HEM1305     0.0000
     38  O2D      -29.0960  -26.6150   62.9940 O.co2 1305  HEM1305     0.0000
     39  NA       -35.6160  -25.8140   65.3210 N.ar  1305  HEM1305     0.0000
     40  NB       -37.3010  -25.3590   67.6470 N.2   1305  HEM1305     0.0000
     41  NC       -35.5320  -26.9480   69.2500 N.ar  1305  HEM1305     0.0000
     42  ND       -33.8910  -27.5210   66.9190 N.2   1305  HEM1305     0.0000
     43 FE        -35.6170  -26.4660   67.2890 Fe    1305  HEM1305     0.0000
@<TRIPOS>BOND
     1    13    12   ar
     2    12    14   ar
     3    12    11    1
     4    11    10    1
     5    10     6    1
     6     9     7    1
     7    37    36   ar
     8    38    36   ar
     9     6     7   ar
    10     6     5   ar
    11     7     8   ar
    12    36    35    1
    13     5     1    2
    14     5    39   ar
    15     1    32    1
    16    34    35    1
    17    34    31    1
    18     8    39   ar
    19     8     2    2
    20    39    43    1
    21     2    15    1
    22    32    31    1
    23    32    42    2
    24    31    30    2
    25    15    16    1
    26    15    40    2
    27    19    16    1
    28    42    43    1
    29    42    29    1
    30    30    33    1
    31    30    29    1
    32    43    40    1
    33    43    41    1
    34    16    17    2
    35    40    18    1
    36    29     4    2
    37    17    18    1
    38    17    20    1
    39    18     3    2
    40     4    25    1
    41    41    25   ar
    42    41    22   ar
    43    25    24   ar
    44    20    21    2
    45     3    22    1
    46    22    23   ar
    47    24    23   ar
    48    24    27    1
    49    23    26    1
    50    27    28    2
