@<TRIPOS>MOLECULE
3ae6_EPH_D_1.pdb
 44 43 0 0 0
SMALL
GASTEIGER

@<TRIPOS>ATOM
      1  C1       -46.2650  -21.2660   84.4510 C.3   1306  EPH1306     0.2543
      2  C2       -46.8630  -22.1780   85.5220 C.3   1306  EPH1306     0.2420
      3  C4       -43.8110  -20.9480   84.7780 C.2   1306  EPH1306     0.3171
      4  O2       -44.9230  -21.6730   84.1850 O.3   1306  EPH1306    -0.4444
      5  O4       -43.7210  -20.8900   85.9940 O.2   1306  EPH1306    -0.2501
      6  C18      -42.7850  -20.2780   83.8960 C.3   1306  EPH1306     0.1096
      7  C19      -41.9440  -21.3380   83.1970 C.3   1306  EPH1306     0.0116
      8  C20      -40.8640  -20.7010   82.3310 C.3   1306  EPH1306     0.0006
      9  C21      -40.5480  -21.5740   81.1210 C.3   1306  EPH1306     0.0000
     10  C22      -39.1570  -22.1880   81.2320 C.3   1306  EPH1306     0.0000
     11  C23      -39.2360  -23.6950   81.4560 C.3   1306  EPH1306     0.0000
     12  C24      -37.8470  -24.2910   81.6620 C.3   1306  EPH1306     0.0000
     13  C25      -37.8970  -25.5510   82.5200 C.3   1306  EPH1306     0.0000
     14  C26      -37.2370  -26.7230   81.8000 C.3   1306  EPH1306     0.0000
     15  C27      -36.9490  -27.8860   82.7450 C.3   1306  EPH1306     0.0000
     16  C28      -38.0500  -28.9420   82.6940 C.3   1306  EPH1306     0.0000
     17  C29      -37.7280  -30.0480   81.6960 C.3   1306  EPH1306     0.0000
     18  C30      -38.9450  -30.3690   80.8360 C.3   1306  EPH1306     0.0000
     19  C31      -38.5550  -31.1620   79.6080 C.3   1306  EPH1306     0.0000
     20  C37      -47.3530  -21.3150   86.6870 C.3   1306  EPH1306     0.1964
     21  O5       -48.6310  -20.7420   86.3950 O.3   1306  EPH1306    -0.3100
     22  C3       -47.8450  -23.4830   83.6510 C.2   1306  EPH1306     0.3171
     23  O1       -47.9390  -22.9930   85.0270 O.3   1306  EPH1306    -0.4457
     24  O3       -48.6630  -23.0630   82.8490 O.2   1306  EPH1306    -0.2501
     25  C5       -46.7930  -24.4930   83.2240 C.3   1306  EPH1306     0.1096
     26  C6       -46.4350  -24.3390   81.7450 C.3   1306  EPH1306     0.0116
     27  C7       -44.9490  -24.5780   81.4940 C.3   1306  EPH1306     0.0006
     28  C8       -44.6490  -24.7250   80.0040 C.3   1306  EPH1306     0.0000
     29  C9       -43.1510  -24.6320   79.7320 C.3   1306  EPH1306     0.0000
     30  C10      -42.6540  -25.8240   78.9180 C.3   1306  EPH1306     0.0000
     31  C11      -41.1370  -25.7880   78.7530 C.3   1306  EPH1306     0.0000
     32  C12      -40.6200  -26.9980   77.9770 C.3   1306  EPH1306     0.0000
     33  C13      -39.2440  -26.7270   77.3770 C.3   1306  EPH1306     0.0000
     34  C14      -38.2380  -27.8080   77.7630 C.3   1306  EPH1306     0.0000
     35  C15      -36.8090  -27.2720   77.7470 C.3   1306  EPH1306     0.0000
     36  C16      -35.8300  -28.2670   78.3630 C.3   1306  EPH1306     0.0000
     37  C17      -34.5220  -27.6020   78.7330 C.3   1306  EPH1306     0.0000
     38  P1       -48.8750  -19.1450   86.2770 P.3   1306  EPH1306     0.2141
     39  O6       -47.6640  -18.4930   85.6450 O.2   1306  EPH1306    -0.5172
     40  O7       -50.2390  -18.9400   85.6520 O.3   1306  EPH1306    -0.4373
     41  O8       -48.9500  -18.6480   87.8130 O.3   1306  EPH1306    -0.3125
     42  C38      -49.2120  -17.2800   88.1320 C.3   1306  EPH1306     0.1696
     43  C39      -47.9730  -16.6470   88.7560 C.3   1306  EPH1306     0.1417
     44  N1       -47.6390  -15.4280   88.0440 N.3   1306  EPH1306    -0.1286
@<TRIPOS>BOND
     1    33    34    1
     2    33    32    1
     3    35    34    1
     4    35    36    1
     5    32    31    1
     6    36    37    1
     7    31    30    1
     8    30    29    1
     9    19    18    1
    10    29    28    1
    11    28    27    1
    12    18    17    1
    13     9    10    1
    14     9     8    1
    15    10    11    1
    16    11    12    1
    17    27    26    1
    18    12    13    1
    19    17    16    1
    20    26    25    1
    21    14    13    1
    22    14    15    1
    23     8     7    1
    24    16    15    1
    25    24    22    2
    26     7     6    1
    27    25    22    1
    28    22    23    1
    29     6     3    1
    30     4     1    1
    31     4     3    1
    32     1     2    1
    33     3     5    2
    34    23     2    1
    35     2    20    1
    36    39    38    2
    37    40    38    1
    38    38    21    1
    39    38    41    1
    40    21    20    1
    41    41    42    1
    42    44    43    1
    43    42    43    1
