@<TRIPOS>MOLECULE
3ae6_JMP_C_1.pdb
 22 23 0 0 0
SMALL
GASTEIGER

@<TRIPOS>ATOM
      1  N        -20.6690  -24.0060   60.8760 N.am  1201  JMP1201    -0.1753
      2  C1       -22.9550  -26.9960   58.9590 C.2   1201  JMP1201     0.3879
      3  O1       -20.6580  -26.2680   60.8360 O.2   1201  JMP1201    -0.2680
      4  C2       -23.5820  -26.1150   59.9970 C.ar  1201  JMP1201     0.0842
      5  O2       -16.9540  -20.9580   61.0760 O.3   1201  JMP1201    -0.4791
      6  C3       -22.7750  -25.2570   60.9200 C.ar  1201  JMP1201     0.0617
      7  O3       -22.0440  -27.8940   59.3100 O.co2 1201  JMP1201    -0.2406
      8  C4       -23.4490  -24.4720   61.8530 C.ar  1201  JMP1201     0.0048
      9  O4       -23.2800  -26.9080   57.7880 O.co2 1201  JMP1201    -0.2406
     10  C5       -24.8410  -24.4950   61.9170 C.ar  1201  JMP1201     0.0002
     11  C6       -25.5910  -25.2970   61.0550 C.ar  1201  JMP1201     0.0002
     12  C7       -24.9700  -26.1010   60.1010 C.ar  1201  JMP1201     0.0067
     13  C8       -21.2710  -25.2100   60.8740 C.2   1201  JMP1201     0.2692
     14  C9       -19.3620  -23.7680   61.1850 C.ar  1201  JMP1201     0.0767
     15  C10      -18.8210  -22.4910   60.9740 C.ar  1201  JMP1201     0.0535
     16  C11      -17.4800  -22.2200   61.2800 C.ar  1201  JMP1201     0.1397
     17  C12      -16.6870  -23.2400   61.8110 C.ar  1201  JMP1201     0.0370
     18  C13      -17.2140  -24.5110   62.0230 C.ar  1201  JMP1201     0.0044
     19  C14      -18.5460  -24.7720   61.7140 C.ar  1201  JMP1201     0.0168
     20  C15      -15.6630  -20.7290   60.4920 C.3   1201  JMP1201     0.1661
     21  C16      -15.6940  -19.5220   59.5620 C.3   1201  JMP1201     0.0472
     22  C17      -14.6190  -20.4990   61.5780 C.3   1201  JMP1201     0.0472
@<TRIPOS>BOND
     1     9     2   ar
     2     2     7   ar
     3     2     4    1
     4    21    20    1
     5     4    12   ar
     6     4     6   ar
     7    12    11   ar
     8    20     5    1
     9    20    22    1
    10     3    13    2
    11    13     1   am
    12    13     6    1
    13     1    14    1
    14     6     8   ar
    15    15    14   ar
    16    15    16   ar
    17    11    10   ar
    18     5    16    1
    19    14    19   ar
    20    16    17   ar
    21    19    18   ar
    22    17    18   ar
    23     8    10   ar
