@<TRIPOS>MOLECULE
3ae7_HEM_C_1.pdb
 43 50 0 0 0
SMALL
GASTEIGER

@<TRIPOS>ATOM
      1  CHA       33.1580  -26.7930  -65.0810 C.2   1305  HEM1305     0.0000
      2  CHB       37.3240  -24.3540  -65.5080 C.2   1305  HEM1305     0.0000
      3  CHC       37.4290  -25.5380  -70.2130 C.2   1305  HEM1305     0.0000
      4  CHD       34.1710  -29.0270  -69.3110 C.2   1305  HEM1305     0.0000
      5  C1A       34.3020  -26.0970  -64.7450 C.2   1305  HEM1305     0.0000
      6  C2A       34.7630  -25.7540  -63.4100 C.2   1305  HEM1305     0.0000
      7  C3A       35.9170  -25.0810  -63.5320 C.2   1305  HEM1305     0.0000
      8  C4A       36.2250  -24.9720  -64.9460 C.2   1305  HEM1305     0.0000
      9  CMA       36.7820  -24.5100  -62.3830 C.3   1305  HEM1305     0.0000
     10  CAA       34.0440  -26.1110  -62.0860 C.3   1305  HEM1305     0.0000
     11  CBA       33.1070  -24.9780  -61.6790 C.3   1305  HEM1305     0.0000
     12  CGA       32.7550  -25.1080  -60.2190 C.2   1305  HEM1305     0.0000
     13  O1A       33.5440  -24.6300  -59.3620 O.co2 1305  HEM1305     0.0000
     14  O2A       31.6820  -25.6900  -59.9140 O.co2 1305  HEM1305     0.0000
     15  C1B       37.6340  -24.3370  -66.8520 C.ar  1305  HEM1305     0.0000
     16  C2B       38.5140  -23.4030  -67.5330 C.ar  1305  HEM1305     0.0000
     17  C3B       38.5380  -23.7330  -68.8300 C.ar  1305  HEM1305     0.0000
     18  C4B       37.6790  -24.8860  -69.0220 C.ar  1305  HEM1305     0.0000
     19  CMB       39.2850  -22.2350  -66.8730 C.3   1305  HEM1305     0.0000
     20  CAB       39.3430  -23.0200  -69.9370 C.2   1305  HEM1305     0.0000
     21  CBB       40.6160  -23.3680  -70.1430 C.2   1305  HEM1305     0.0000
     22  C1C       36.5780  -26.6110  -70.3920 C.2   1305  HEM1305     0.0000
     23  C2C       36.3610  -27.3540  -71.6210 C.2   1305  HEM1305     0.0000
     24  C3C       35.4620  -28.3150  -71.3710 C.2   1305  HEM1305     0.0000
     25  C4C       35.0740  -28.2200  -69.9750 C.2   1305  HEM1305     0.0000
     26  CMC       37.0510  -27.0760  -72.9770 C.3   1305  HEM1305     0.0000
     27  CAC       34.9260  -29.3510  -72.3870 C.2   1305  HEM1305     0.0000
     28  CBC       35.5720  -30.5090  -72.5590 C.2   1305  HEM1305     0.0000
     29  C1D       33.5160  -28.7300  -68.1310 C.ar  1305  HEM1305     0.0000
     30  C2D       32.3320  -29.3910  -67.6290 C.ar  1305  HEM1305     0.0000
     31  C3D       31.9970  -28.7040  -66.2940 C.ar  1305  HEM1305     0.0000
     32  C4D       33.0240  -27.6840  -66.1300 C.ar  1305  HEM1305     0.0000
     33  CMD       31.5610  -30.5540  -68.2930 C.3   1305  HEM1305     0.0000
     34  CAD       30.7940  -29.0690  -65.3840 C.3   1305  HEM1305     0.0000
     35  CBD       31.0170  -28.7430  -63.9090 C.3   1305  HEM1305     0.0000
     36  CGD       29.9540  -27.7860  -63.4280 C.2   1305  HEM1305     0.0000
     37  O1D       29.4000  -28.0240  -62.3240 O.co2 1305  HEM1305     0.0000
     38  O2D       29.6570  -26.7870  -64.1370 O.co2 1305  HEM1305     0.0000
     39  NA        35.2190  -25.6050  -65.6520 N.2   1305  HEM1305     0.0000
     40  NB        37.1450  -25.2240  -67.7930 N.ar  1305  HEM1305     0.0000
     41  NC        35.7760  -27.1710  -69.4150 N.2   1305  HEM1305     0.0000
     42  ND        33.8850  -27.7440  -67.2240 N.ar  1305  HEM1305     0.0000
     43 FE         35.4720  -26.4340  -67.5370 Fe    1305  HEM1305     0.0000
@<TRIPOS>BOND
     1    26    23    1
     2    28    27    2
     3    27    24    1
     4    23    24    2
     5    23    22    1
     6    24    25    1
     7    22     3    2
     8    22    41    1
     9     3    18    1
    10    21    20    2
    11    25    41    2
    12    25     4    1
    13    20    17    1
    14    41    43    1
    15     4    29    2
    16    18    17   ar
    17    18    40   ar
    18    17    16   ar
    19    33    30    1
    20    29    30   ar
    21    29    42   ar
    22    40    43    1
    23    40    15   ar
    24    30    31   ar
    25    43    42    1
    26    43    39    1
    27    16    19    1
    28    16    15   ar
    29    42    32   ar
    30    15     2    1
    31    31    32   ar
    32    31    34    1
    33    32     1    2
    34    39     8    1
    35    39     5    2
    36     2     8    2
    37    34    35    1
    38     1     5    1
    39     8     7    1
    40     5     6    1
    41    38    36   ar
    42    35    36    1
    43     7     6    2
    44     7     9    1
    45    36    37   ar
    46     6    10    1
    47    10    11    1
    48    11    12    1
    49    12    14   ar
    50    12    13   ar
