@<TRIPOS>MOLECULE
3ae7_12J_B_1.pdb
 20 21 0 0 0
SMALL
GASTEIGER

@<TRIPOS>ATOM
      1  I         22.9090  -27.4670  -58.4840 I     1201  12J1201    -0.0424
      2  N         20.9940  -24.3860  -61.4720 N.am  1201  12J1201    -0.1753
      3  C1        23.8840  -26.2650  -59.8870 C.ar  1201  12J1201     0.0345
      4  O1        21.0160  -26.2150  -60.1580 O.2   1201  12J1201    -0.2680
      5  C2        23.1160  -25.3960  -60.8250 C.ar  1201  12J1201     0.0607
      6  O2        17.1550  -21.7740  -60.3920 O.3   1201  12J1201    -0.4791
      7  C3        23.8210  -24.6150  -61.7400 C.ar  1201  12J1201     0.0050
      8  C4        25.2150  -24.6510  -61.7640 C.ar  1201  12J1201     0.0002
      9  C5        25.9330  -25.4650  -60.8870 C.ar  1201  12J1201     0.0004
     10  C6        25.2740  -26.2670  -59.9550 C.ar  1201  12J1201     0.0059
     11  C7        21.6140  -25.3590  -60.7940 C.2   1201  12J1201     0.2694
     12  C8        19.6500  -24.2290  -61.4980 C.ar  1201  12J1201     0.0767
     13  C9        19.0810  -23.0860  -60.9360 C.ar  1201  12J1201     0.0535
     14  C10       17.6980  -22.9050  -60.9590 C.ar  1201  12J1201     0.1397
     15  C11       16.8850  -23.8740  -61.5530 C.ar  1201  12J1201     0.0370
     16  C12       17.4490  -25.0140  -62.1230 C.ar  1201  12J1201     0.0044
     17  C13       18.8320  -25.1890  -62.0990 C.ar  1201  12J1201     0.0168
     18  C14       16.1060  -21.0280  -61.0200 C.3   1201  12J1201     0.1661
     19  C15       15.3420  -20.2330  -59.9670 C.3   1201  12J1201     0.0472
     20  C16       16.6790  -20.1020  -62.0860 C.3   1201  12J1201     0.0472
@<TRIPOS>BOND
     1    16    17   ar
     2    16    15   ar
     3    17    12   ar
     4    20    18    1
     5     8     7   ar
     6     8     9   ar
     7     7     5   ar
     8    15    14   ar
     9    12     2    1
    10    12    13   ar
    11     2    11   am
    12    18     6    1
    13    18    19    1
    14    14    13   ar
    15    14     6    1
    16     9    10   ar
    17     5    11    1
    18     5     3   ar
    19    11     4    2
    20    10     3   ar
    21     3     1    1
