@<TRIPOS>MOLECULE
3ae8_HEM_C_1.pdb
 43 50 0 0 0
SMALL
GASTEIGER

@<TRIPOS>ATOM
      1  CHA       33.6910  -26.8560  -65.0210 C.2   1305  HEM1305     0.0000
      2  CHB       37.8440  -24.4450  -65.6700 C.2   1305  HEM1305     0.0000
      3  CHC       37.6960  -25.6010  -70.3860 C.2   1305  HEM1305     0.0000
      4  CHD       34.2260  -28.8700  -69.4570 C.2   1305  HEM1305     0.0000
      5  C1A       34.8310  -26.1270  -64.7610 C.2   1305  HEM1305     0.0000
      6  C2A       35.2810  -25.6560  -63.4640 C.2   1305  HEM1305     0.0000
      7  C3A       36.4300  -24.9890  -63.6410 C.2   1305  HEM1305     0.0000
      8  C4A       36.7470  -25.0140  -65.0580 C.2   1305  HEM1305     0.0000
      9  CMA       37.2780  -24.3090  -62.5390 C.3   1305  HEM1305     0.0000
     10  CAA       34.5530  -25.8910  -62.1180 C.3   1305  HEM1305     0.0000
     11  CBA       33.5460  -24.7710  -61.8730 C.3   1305  HEM1305     0.0000
     12  CGA       32.8250  -25.0120  -60.5720 C.2   1305  HEM1305     0.0000
     13  O1A       33.3810  -24.6550  -59.5000 O.co2 1305  HEM1305     0.0000
     14  O2A       31.6930  -25.5610  -60.6070 O.co2 1305  HEM1305     0.0000
     15  C1B       38.1070  -24.4490  -67.0250 C.ar  1305  HEM1305     0.0000
     16  C2B       39.0420  -23.5910  -67.7290 C.ar  1305  HEM1305     0.0000
     17  C3B       38.9960  -23.9130  -69.0270 C.ar  1305  HEM1305     0.0000
     18  C4B       38.0350  -24.9860  -69.1980 C.ar  1305  HEM1305     0.0000
     19  CMB       39.9330  -22.4980  -67.0920 C.3   1305  HEM1305     0.0000
     20  CAB       39.8250  -23.2640  -70.1570 C.2   1305  HEM1305     0.0000
     21  CBB       40.9630  -23.8410  -70.5500 C.2   1305  HEM1305     0.0000
     22  C1C       36.8010  -26.6400  -70.5460 C.2   1305  HEM1305     0.0000
     23  C2C       36.6000  -27.4400  -71.7420 C.2   1305  HEM1305     0.0000
     24  C3C       35.6420  -28.3400  -71.4830 C.2   1305  HEM1305     0.0000
     25  C4C       35.1990  -28.1460  -70.1150 C.2   1305  HEM1305     0.0000
     26  CMC       37.3610  -27.2780  -73.0800 C.3   1305  HEM1305     0.0000
     27  CAC       35.0970  -29.4050  -72.4630 C.2   1305  HEM1305     0.0000
     28  CBC       35.5990  -30.6440  -72.4500 C.2   1305  HEM1305     0.0000
     29  C1D       33.7040  -28.6110  -68.2050 C.ar  1305  HEM1305     0.0000
     30  C2D       32.5450  -29.2560  -67.6220 C.ar  1305  HEM1305     0.0000
     31  C3D       32.3780  -28.6240  -66.2330 C.ar  1305  HEM1305     0.0000
     32  C4D       33.4540  -27.6630  -66.1150 C.ar  1305  HEM1305     0.0000
     33  CMD       31.6580  -30.3510  -68.2550 C.3   1305  HEM1305     0.0000
     34  CAD       31.2910  -28.9530  -65.1840 C.3   1305  HEM1305     0.0000
     35  CBD       30.2390  -27.8490  -65.1560 C.3   1305  HEM1305     0.0000
     36  CGD       30.0850  -27.2990  -63.7590 C.2   1305  HEM1305     0.0000
     37  O1D       30.1270  -28.0860  -62.7750 O.co2 1305  HEM1305     0.0000
     38  O2D       29.9070  -26.0600  -63.6270 O.co2 1305  HEM1305     0.0000
     39  NA        35.7480  -25.7160  -65.7070 N.2   1305  HEM1305     0.0000
     40  NB        37.5120  -25.2840  -67.9540 N.ar  1305  HEM1305     0.0000
     41  NC        35.9280  -27.1020  -69.5790 N.2   1305  HEM1305     0.0000
     42  ND        34.2030  -27.6880  -67.2900 N.ar  1305  HEM1305     0.0000
     43 FE         35.8850  -26.4960  -67.6210 Fe    1305  HEM1305     0.0000
@<TRIPOS>BOND
     1    26    23    1
     2    27    28    2
     3    27    24    1
     4    23    24    2
     5    23    22    1
     6    24    25    1
     7    21    20    2
     8    22     3    2
     9    22    41    1
    10     3    18    1
    11    20    17    1
    12    25    41    2
    13    25     4    1
    14    41    43    1
    15     4    29    2
    16    18    17   ar
    17    18    40   ar
    18    17    16   ar
    19    33    30    1
    20    29    30   ar
    21    29    42   ar
    22    40    43    1
    23    40    15   ar
    24    16    19    1
    25    16    15   ar
    26    30    31   ar
    27    43    42    1
    28    43    39    1
    29    42    32   ar
    30    15     2    1
    31    31    32   ar
    32    31    34    1
    33    32     1    2
    34    39     8    1
    35    39     5    2
    36     2     8    2
    37    34    35    1
    38    35    36    1
    39     8     7    1
    40     1     5    1
    41     5     6    1
    42    36    38   ar
    43    36    37   ar
    44     7     6    2
    45     7     9    1
    46     6    10    1
    47    10    11    1
    48    11    12    1
    49    14    12   ar
    50    12    13   ar
