@<TRIPOS>MOLECULE
3ae8_EPH_D_1.pdb
 44 43 0 0 0
SMALL
GASTEIGER

@<TRIPOS>ATOM
      1  C1        45.2610  -21.3600  -84.3710 C.3   1306  EPH1306     0.2543
      2  C2        46.0710  -21.6380  -85.6370 C.3   1306  EPH1306     0.2420
      3  C4        43.0420  -20.2390  -84.5600 C.2   1306  EPH1306     0.3171
      4  O2        43.8690  -21.4300  -84.6700 O.3   1306  EPH1306    -0.4444
      5  O4        42.9620  -19.4880  -85.5170 O.2   1306  EPH1306    -0.2501
      6  C18       42.2990  -19.9370  -83.2790 C.3   1306  EPH1306     0.1096
      7  C19       41.2910  -21.0420  -82.9880 C.3   1306  EPH1306     0.0116
      8  C20       40.4480  -20.7060  -81.7630 C.3   1306  EPH1306     0.0006
      9  C21       40.4210  -21.8670  -80.7740 C.3   1306  EPH1306     0.0000
     10  C22       39.0960  -22.6190  -80.8390 C.3   1306  EPH1306     0.0000
     11  C23       39.2770  -23.9740  -81.5120 C.3   1306  EPH1306     0.0000
     12  C24       37.9340  -24.6100  -81.8530 C.3   1306  EPH1306     0.0000
     13  C25       38.1040  -25.7530  -82.8490 C.3   1306  EPH1306     0.0000
     14  C26       38.0850  -27.1050  -82.1430 C.3   1306  EPH1306     0.0000
     15  C27       37.8030  -28.2410  -83.1210 C.3   1306  EPH1306     0.0000
     16  C28       38.8570  -29.3380  -83.0110 C.3   1306  EPH1306     0.0000
     17  C29       38.3580  -30.5110  -82.1740 C.3   1306  EPH1306     0.0000
     18  C30       39.2020  -30.6800  -80.9170 C.3   1306  EPH1306     0.0000
     19  C31       38.4250  -31.4010  -79.8370 C.3   1306  EPH1306     0.0000
     20  C37       47.0660  -20.4970  -85.8570 C.3   1306  EPH1306     0.1964
     21  O5        48.2510  -20.9710  -86.4960 O.3   1306  EPH1306    -0.3100
     22  C3        47.3510  -23.3560  -84.3580 C.2   1306  EPH1306     0.3171
     23  O1        46.7240  -22.9220  -85.6080 O.3   1306  EPH1306    -0.4457
     24  O3        48.3220  -22.7520  -83.9220 O.2   1306  EPH1306    -0.2501
     25  C5        46.8140  -24.5690  -83.6280 C.3   1306  EPH1306     0.1096
     26  C6        46.3830  -24.2040  -82.2110 C.3   1306  EPH1306     0.0116
     27  C7        44.9430  -24.6240  -81.9420 C.3   1306  EPH1306     0.0006
     28  C8        44.7430  -24.9670  -80.4700 C.3   1306  EPH1306     0.0000
     29  C9        43.2800  -24.8300  -80.0670 C.3   1306  EPH1306     0.0000
     30  C10       42.8160  -26.0340  -79.2560 C.3   1306  EPH1306     0.0000
     31  C11       41.3290  -25.9320  -78.9370 C.3   1306  EPH1306     0.0000
     32  C12       40.8300  -27.1770  -78.2140 C.3   1306  EPH1306     0.0000
     33  C13       39.4440  -26.9440  -77.6230 C.3   1306  EPH1306     0.0000
     34  C14       38.4220  -27.8940  -78.2350 C.3   1306  EPH1306     0.0000
     35  C15       37.0250  -27.2840  -78.2230 C.3   1306  EPH1306     0.0000
     36  C16       36.0580  -28.1240  -79.0490 C.3   1306  EPH1306     0.0000
     37  C17       34.6790  -27.5020  -79.0740 C.3   1306  EPH1306     0.0000
     38  P1        49.6010  -20.0870  -86.5120 P.3   1306  EPH1306     0.2141
     39  O6        49.9300  -19.6760  -85.0950 O.3   1306  EPH1306    -0.4373
     40  O7        50.6300  -20.8310  -87.3300 O.2   1306  EPH1306    -0.5172
     41  O8        49.1640  -18.7700  -87.3330 O.3   1306  EPH1306    -0.3125
     42  C38       50.0720  -17.6840  -87.5160 C.3   1306  EPH1306     0.1696
     43  C39       49.2890  -16.3850  -87.6620 C.3   1306  EPH1306     0.1417
     44  N1        49.0380  -15.8220  -86.3490 N.3   1306  EPH1306    -0.1286
@<TRIPOS>BOND
     1    43    42    1
     2    43    44    1
     3    42    41    1
     4    41    38    1
     5    40    38    2
     6    38    21    1
     7    38    39    1
     8    21    20    1
     9    20     2    1
    10     2    23    1
    11     2     1    1
    12    23    22    1
    13     5     3    2
    14     4     3    1
    15     4     1    1
    16     3     6    1
    17    22    24    2
    18    22    25    1
    19    25    26    1
    20     6     7    1
    21    15    16    1
    22    15    14    1
    23    16    17    1
    24     7     8    1
    25    13    14    1
    26    13    12    1
    27    26    27    1
    28    17    18    1
    29    27    28    1
    30    12    11    1
    31     8     9    1
    32    11    10    1
    33    18    19    1
    34    10     9    1
    35    28    29    1
    36    29    30    1
    37    30    31    1
    38    37    36    1
    39    36    35    1
    40    31    32    1
    41    34    35    1
    42    34    33    1
    43    32    33    1
