@<TRIPOS>MOLECULE
3ae8_FTN_B_1.pdb
 23 24 0 0 0
SMALL
GASTEIGER

@<TRIPOS>ATOM
      1  N         21.2880  -24.2640  -61.4110 N.am  1201  FTN1201    -0.1753
      2  C1        23.6010  -27.1850  -59.1130 C.3   1201  FTN1201     0.4187
      3  F1        22.7220  -26.5480  -58.3630 F     1201  FTN1201    -0.1659
      4  O1        21.3060  -26.4230  -60.7870 O.2   1201  FTN1201    -0.2680
      5  C2        24.2290  -26.2290  -60.0920 C.ar  1201  FTN1201     0.0759
      6  F2        22.9930  -28.1500  -59.7770 F     1201  FTN1201    -0.1659
      7  O2        17.2880  -21.7290  -60.9830 O.3   1201  FTN1201    -0.4791
      8  C3        23.4170  -25.3800  -61.0250 C.ar  1201  FTN1201     0.0593
      9  F3        24.5220  -27.7190  -58.3310 F     1201  FTN1201    -0.1659
     10  C4        24.0920  -24.5240  -61.8970 C.ar  1201  FTN1201     0.0045
     11  C5        25.4840  -24.4640  -61.9000 C.ar  1201  FTN1201     0.0001
     12  C6        26.2390  -25.2550  -61.0360 C.ar  1201  FTN1201    -0.0001
     13  C7        25.6200  -26.1280  -60.1430 C.ar  1201  FTN1201     0.0040
     14  C8        21.9090  -25.3980  -61.0640 C.2   1201  FTN1201     0.2689
     15  C9        19.9620  -24.1460  -61.6760 C.ar  1201  FTN1201     0.0767
     16  C10       19.2850  -23.0190  -61.2100 C.ar  1201  FTN1201     0.0535
     17  C11       17.9240  -22.8510  -61.4670 C.ar  1201  FTN1201     0.1397
     18  C12       17.2360  -23.8240  -62.1980 C.ar  1201  FTN1201     0.0370
     19  C13       17.9070  -24.9500  -62.6730 C.ar  1201  FTN1201     0.0044
     20  C14       19.2680  -25.1080  -62.4160 C.ar  1201  FTN1201     0.0168
     21  C15       16.3390  -20.9640  -61.7380 C.3   1201  FTN1201     0.1661
     22  C16       15.6250  -19.9920  -60.8060 C.3   1201  FTN1201     0.0472
     23  C17       17.0160  -20.2030  -62.8720 C.3   1201  FTN1201     0.0472
@<TRIPOS>BOND
     1    23    21    1
     2    19    20   ar
     3    19    18   ar
     4    20    15   ar
     5    18    17   ar
     6    11    10   ar
     7    11    12   ar
     8    10     8   ar
     9    21     7    1
    10    21    22    1
    11    15     1    1
    12    15    16   ar
    13    17    16   ar
    14    17     7    1
    15     1    14   am
    16    14     8    1
    17    14     4    2
    18    12    13   ar
    19     8     5   ar
    20    13     5   ar
    21     5     2    1
    22     6     2    1
    23     2     3    1
    24     2     9    1
