@<TRIPOS>MOLECULE
3ae9_HEM_C_1.pdb
 43 50 0 0 0
SMALL
GASTEIGER

@<TRIPOS>ATOM
      1  CHA      -34.0210  -27.1570   65.2010 C.2   1305  HEM1305     0.0000
      2  CHB      -38.2030  -24.8060   65.8660 C.2   1305  HEM1305     0.0000
      3  CHC      -38.0710  -26.0740   70.5510 C.2   1305  HEM1305     0.0000
      4  CHD      -34.5600  -29.2900   69.5660 C.2   1305  HEM1305     0.0000
      5  C1A      -35.2090  -26.5110   64.9340 C.ar  1305  HEM1305     0.0000
      6  C2A      -35.7850  -26.2460   63.6270 C.ar  1305  HEM1305     0.0000
      7  C3A      -36.9450  -25.5960   63.8120 C.ar  1305  HEM1305     0.0000
      8  C4A      -37.1380  -25.4240   65.2420 C.ar  1305  HEM1305     0.0000
      9  CMA      -37.9140  -25.1070   62.7080 C.3   1305  HEM1305     0.0000
     10  CAA      -35.1630  -26.6590   62.2690 C.3   1305  HEM1305     0.0000
     11  CBA      -34.2700  -25.5510   61.7190 C.3   1305  HEM1305     0.0000
     12  CGA      -33.9820  -25.8210   60.2630 C.2   1305  HEM1305     0.0000
     13  O1A      -34.6700  -25.2230   59.3950 O.co2 1305  HEM1305     0.0000
     14  O2A      -33.0650  -26.6340   59.9690 O.co2 1305  HEM1305     0.0000
     15  C1B      -38.4810  -24.8440   67.2180 C.2   1305  HEM1305     0.0000
     16  C2B      -39.4380  -24.0220   67.9350 C.2   1305  HEM1305     0.0000
     17  C3B      -39.3970  -24.3740   69.2260 C.2   1305  HEM1305     0.0000
     18  C4B      -38.4170  -25.4320   69.3780 C.2   1305  HEM1305     0.0000
     19  CMB      -40.3440  -22.9310   67.3140 C.3   1305  HEM1305     0.0000
     20  CAB      -40.2460  -23.7700   70.3650 C.2   1305  HEM1305     0.0000
     21  CBB      -41.4060  -24.3470   70.6930 C.2   1305  HEM1305     0.0000
     22  C1C      -37.1470  -27.0930   70.6930 C.ar  1305  HEM1305     0.0000
     23  C2C      -36.8930  -27.8700   71.8940 C.ar  1305  HEM1305     0.0000
     24  C3C      -35.9270  -28.7560   71.6210 C.ar  1305  HEM1305     0.0000
     25  C4C      -35.5290  -28.5760   70.2370 C.ar  1305  HEM1305     0.0000
     26  CMC      -37.6150  -27.6980   73.2520 C.3   1305  HEM1305     0.0000
     27  CAC      -35.3300  -29.7950   72.5990 C.2   1305  HEM1305     0.0000
     28  CBC      -35.9220  -30.9840   72.7540 C.2   1305  HEM1305     0.0000
     29  C1D      -34.0320  -28.9990   68.3240 C.2   1305  HEM1305     0.0000
     30  C2D      -32.8770  -29.6350   67.7260 C.2   1305  HEM1305     0.0000
     31  C3D      -32.6970  -28.9680   66.3550 C.2   1305  HEM1305     0.0000
     32  C4D      -33.7720  -27.9990   66.2650 C.2   1305  HEM1305     0.0000
     33  CMD      -32.0000  -30.7510   68.3350 C.3   1305  HEM1305     0.0000
     34  CAD      -31.5980  -29.2970   65.3110 C.3   1305  HEM1305     0.0000
     35  CBD      -30.7860  -28.0650   64.9170 C.3   1305  HEM1305     0.0000
     36  CGD      -30.7890  -27.9240   63.4140 C.2   1305  HEM1305     0.0000
     37  O1D      -31.8770  -27.7060   62.8200 O.co2 1305  HEM1305     0.0000
     38  O2D      -29.6990  -28.0290   62.7990 O.co2 1305  HEM1305     0.0000
     39  NA       -36.0620  -26.0020   65.8910 N.ar  1305  HEM1305     0.0000
     40  NB       -37.8770  -25.6850   68.1340 N.2   1305  HEM1305     0.0000
     41  NC       -36.2960  -27.5580   69.7050 N.ar  1305  HEM1305     0.0000
     42  ND       -34.5220  -28.0470   67.4370 N.2   1305  HEM1305     0.0000
     43 FE        -36.2110  -26.8350   67.7970 Fe    1305  HEM1305     0.0000
@<TRIPOS>BOND
     1    13    12   ar
     2    14    12   ar
     3    12    11    1
     4    11    10    1
     5    10     6    1
     6     9     7    1
     7    38    36   ar
     8    37    36   ar
     9    36    35    1
    10     6     7   ar
    11     6     5   ar
    12     7     8   ar
    13    35    34    1
    14     5     1    2
    15     5    39   ar
    16     1    32    1
    17     8     2    2
    18     8    39   ar
    19    34    31    1
    20     2    15    1
    21    39    43    1
    22    32    31    1
    23    32    42    2
    24    31    30    2
    25    15    16    1
    26    15    40    2
    27    19    16    1
    28    42    43    1
    29    42    29    1
    30    30    29    1
    31    30    33    1
    32    43    40    1
    33    43    41    1
    34    16    17    2
    35    40    18    1
    36    29     4    2
    37    17    18    1
    38    17    20    1
    39    18     3    2
    40     4    25    1
    41    41    25   ar
    42    41    22   ar
    43    25    24   ar
    44    20    21    2
    45     3    22    1
    46    22    23   ar
    47    24    23   ar
    48    24    27    1
    49    23    26    1
    50    27    28    2
