@<TRIPOS>MOLECULE
3ae9_FD8_C_1.pdb
 31 33 0 0 0
SMALL
GASTEIGER

@<TRIPOS>ATOM
      1  N        -22.0790  -24.2810   61.2010 N.am  1201  FD81201    -0.1753
      2  C1       -23.6610  -27.2540   59.5390 C.3   1201  FD81201     0.4187
      3  F1       -22.7960  -26.4960   58.8890 F     1201  FD81201    -0.1659
      4  O1       -22.2340  -26.1760   62.4190 O.2   1201  FD81201    -0.2680
      5  C2       -24.6200  -26.3880   60.3170 C.ar  1201  FD81201     0.0759
      6  F2       -23.0110  -28.0560   60.3630 F     1201  FD81201    -0.1659
      7  O2       -17.8360  -25.2150   63.2530 O.3   1201  FD81201    -0.4487
      8  C3       -24.1850  -25.4990   61.3150 C.ar  1201  FD81201     0.0593
      9  F3       -24.3210  -27.9900   58.6610 F     1201  FD81201    -0.1659
     10  C4       -25.1130  -24.7210   62.0070 C.ar  1201  FD81201     0.0045
     11  F4       -14.9700  -25.5300   63.6410 F     1201  FD81201    -0.1984
     12  C5       -26.4720  -24.8160   61.7180 C.ar  1201  FD81201     0.0001
     13  F5       -13.6450  -24.4970   66.0060 F     1201  FD81201    -0.1992
     14  C6       -26.9060  -25.6960   60.7320 C.ar  1201  FD81201    -0.0001
     15  F6       -15.1790  -23.1230   68.0430 F     1201  FD81201    -0.1993
     16  C7       -25.9850  -26.4760   60.0360 C.ar  1201  FD81201     0.0040
     17  F7       -18.0450  -22.7810   67.7130 F     1201  FD81201    -0.1992
     18  C8       -22.7370  -25.3400   61.6860 C.2   1201  FD81201     0.2689
     19  F8       -19.3610  -23.8120   65.3550 F     1201  FD81201    -0.1984
     20  C9       -20.7750  -23.9770   61.4340 C.ar  1201  FD81201     0.0767
     21  C10      -20.2470  -22.8290   60.8430 C.ar  1201  FD81201     0.0168
     22  C11      -18.9140  -22.4720   61.0510 C.ar  1201  FD81201     0.0045
     23  C12      -18.1000  -23.2670   61.8550 C.ar  1201  FD81201     0.0376
     24  C13      -18.6190  -24.4180   62.4530 C.ar  1201  FD81201     0.1468
     25  C14      -19.9510  -24.7680   62.2400 C.ar  1201  FD81201     0.0541
     26  C15      -17.2010  -24.7010   64.4280 C.ar  1201  FD81201     0.2044
     27  C16      -15.6940  -24.8800   64.6040 C.ar  1201  FD81201     0.2063
     28  C17      -14.9960  -24.3350   65.8510 C.ar  1201  FD81201     0.2001
     29  C18      -15.8060  -23.6100   66.9260 C.ar  1201  FD81201     0.1993
     30  C19      -17.3140  -23.4300   66.7530 C.ar  1201  FD81201     0.2001
     31  C20      -18.0100  -23.9750   65.5060 C.ar  1201  FD81201     0.2063
@<TRIPOS>BOND
     1     9     2    1
     2     3     2    1
     3     2     5    1
     4     2     6    1
     5    16     5   ar
     6    16    14   ar
     7     5     8   ar
     8    14    12   ar
     9    21    22   ar
    10    21    20   ar
    11    22    23   ar
    12     1    20    1
    13     1    18   am
    14     8    18    1
    15     8    10   ar
    16    20    25   ar
    17    18     4    2
    18    12    10   ar
    19    23    24   ar
    20    25    24   ar
    21    24     7    1
    22     7    26    1
    23    11    27    1
    24    26    27   ar
    25    26    31   ar
    26    27    28   ar
    27    19    31    1
    28    31    30   ar
    29    28    13    1
    30    28    29   ar
    31    30    29   ar
    32    30    17    1
    33    29    15    1
