@<TRIPOS>MOLECULE
3ae9_EPH_D_1.pdb
 44 43 0 0 0
SMALL
GASTEIGER

@<TRIPOS>ATOM
      1  C1       -45.9910  -21.6340   86.1950 C.3   1306  EPH1306     0.2543
      2  C2       -47.4770  -21.4660   85.8710 C.3   1306  EPH1306     0.2420
      3  C4       -44.0750  -20.8200   84.7740 C.2   1306  EPH1306     0.3171
      4  O2       -45.2290  -21.6810   84.9880 O.3   1306  EPH1306    -0.4444
      5  O4       -43.3130  -20.5860   85.6990 O.2   1306  EPH1306    -0.2501
      6  C18      -43.8240  -20.2260   83.4080 C.3   1306  EPH1306     0.1096
      7  C19      -43.4030  -21.3260   82.4410 C.3   1306  EPH1306     0.0116
      8  C20      -41.8890  -21.3610   82.2790 C.3   1306  EPH1306     0.0006
      9  C21      -41.4940  -22.1270   81.0220 C.3   1306  EPH1306     0.0000
     10  C22      -40.0320  -22.5520   81.0750 C.3   1306  EPH1306     0.0000
     11  C23      -39.9070  -24.0540   81.3010 C.3   1306  EPH1306     0.0000
     12  C24      -38.5090  -24.4210   81.7870 C.3   1306  EPH1306     0.0000
     13  C25      -38.5570  -25.5490   82.8120 C.3   1306  EPH1306     0.0000
     14  C26      -38.1770  -26.8820   82.1760 C.3   1306  EPH1306     0.0000
     15  C27      -37.7090  -27.8920   83.2200 C.3   1306  EPH1306     0.0000
     16  C28      -38.7340  -29.0030   83.4210 C.3   1306  EPH1306     0.0000
     17  C29      -38.4320  -30.2170   82.5490 C.3   1306  EPH1306     0.0000
     18  C30      -39.6250  -30.5620   81.6660 C.3   1306  EPH1306     0.0000
     19  C31      -39.2120  -31.4610   80.5210 C.3   1306  EPH1306     0.0000
     20  C37      -48.3130  -21.8560   87.0940 C.3   1306  EPH1306     0.1964
     21  O5       -49.6990  -21.9480   86.7550 O.3   1306  EPH1306    -0.3100
     22  C3       -47.8770  -23.6270   84.6600 C.2   1306  EPH1306     0.3171
     23  O1       -47.8610  -22.1620   84.6650 O.3   1306  EPH1306    -0.4457
     24  O3       -48.8500  -24.2200   85.0980 O.2   1306  EPH1306    -0.2501
     25  C5       -46.7190  -24.4170   84.0900 C.3   1306  EPH1306     0.1096
     26  C6       -46.7850  -24.4110   82.5670 C.3   1306  EPH1306     0.0116
     27  C7       -45.3900  -24.5380   81.9650 C.3   1306  EPH1306     0.0006
     28  C8       -45.4190  -25.3270   80.6600 C.3   1306  EPH1306     0.0000
     29  C9       -44.1390  -25.1110   79.8610 C.3   1306  EPH1306     0.0000
     30  C10      -43.2880  -26.3760   79.8270 C.3   1306  EPH1306     0.0000
     31  C11      -42.0540  -26.1840   78.9530 C.3   1306  EPH1306     0.0000
     32  C12      -41.0660  -27.3340   79.1240 C.3   1306  EPH1306     0.0000
     33  C13      -39.7890  -27.0790   78.3310 C.3   1306  EPH1306     0.0000
     34  C14      -38.7410  -28.1500   78.6120 C.3   1306  EPH1306     0.0000
     35  C15      -37.3300  -27.6070   78.4170 C.3   1306  EPH1306     0.0000
     36  C16      -36.2990  -28.5010   79.0970 C.3   1306  EPH1306     0.0000
     37  C17      -35.0570  -27.7190   79.4660 C.3   1306  EPH1306     0.0000
     38  P1       -50.6860  -20.6680   86.7340 P.3   1306  EPH1306     0.2141
     39  O6       -52.0470  -21.1280   87.2000 O.3   1306  EPH1306    -0.4373
     40  O7       -50.5520  -19.9930   85.3890 O.2   1306  EPH1306    -0.5172
     41  O8       -50.0780  -19.6840   87.8600 O.3   1306  EPH1306    -0.3125
     42  C38      -50.6310  -18.3850   88.0720 C.3   1306  EPH1306     0.1696
     43  C39      -49.6800  -17.3270   87.5210 C.3   1306  EPH1306     0.1417
     44  N1       -50.2480  -16.7410   86.3220 N.3   1306  EPH1306    -0.1286
@<TRIPOS>BOND
     1    33    34    1
     2    33    32    1
     3    35    34    1
     4    35    36    1
     5    31    32    1
     6    31    30    1
     7    36    37    1
     8    30    29    1
     9    29    28    1
    10    19    18    1
    11    28    27    1
    12     9    10    1
    13     9     8    1
    14    10    11    1
    15    11    12    1
    16    18    17    1
    17    12    13    1
    18    27    26    1
    19    14    13    1
    20    14    15    1
    21     8     7    1
    22     7     6    1
    23    17    16    1
    24    26    25    1
    25    15    16    1
    26     6     3    1
    27    25    22    1
    28    22    23    1
    29    22    24    2
    30    23     2    1
    31     3     4    1
    32     3     5    2
    33     4     1    1
    34    40    38    2
    35     2     1    1
    36     2    20    1
    37    44    43    1
    38    38    21    1
    39    38    39    1
    40    38    41    1
    41    21    20    1
    42    43    42    1
    43    41    42    1
