@<TRIPOS>MOLECULE
3aea_EPH_D_1.pdb
 44 43 0 0 0
SMALL
GASTEIGER

@<TRIPOS>ATOM
      1  C1       -13.2390   21.0910  -86.4250 C.3   1306  EPH1306     0.2543
      2  C2       -12.3060   20.0450  -87.0290 C.3   1306  EPH1306     0.2420
      3  C4       -12.0100   22.7970  -85.0520 C.2   1306  EPH1306     0.3171
      4  O2       -12.5620   22.3440  -86.3240 O.3   1306  EPH1306    -0.4444
      5  O4       -10.9500   22.3350  -84.6600 O.2   1306  EPH1306    -0.2501
      6  C18      -12.7450   23.8280  -84.2260 C.3   1306  EPH1306     0.1096
      7  C19      -11.8010   24.9590  -83.8280 C.3   1306  EPH1306     0.0116
      8  C20      -11.3180   24.7950  -82.3910 C.3   1306  EPH1306     0.0006
      9  C21       -9.8100   24.5840  -82.3240 C.3   1306  EPH1306     0.0000
     10  C22       -9.3410   24.4940  -80.8760 C.3   1306  EPH1306     0.0000
     11  C23       -7.9210   25.0270  -80.7210 C.3   1306  EPH1306     0.0000
     12  C24       -7.8050   25.9470  -79.5100 C.3   1306  EPH1306     0.0000
     13  C25       -6.4680   25.7530  -78.8020 C.3   1306  EPH1306     0.0000
     14  C26       -5.7080   27.0690  -78.6700 C.3   1306  EPH1306     0.0000
     15  C27       -4.4270   26.8840  -77.8620 C.3   1306  EPH1306     0.0000
     16  C28       -3.3910   27.9480  -78.2080 C.3   1306  EPH1306     0.0000
     17  C29       -1.9920   27.5160  -77.7810 C.3   1306  EPH1306     0.0000
     18  C30       -0.9240   28.3450  -78.4880 C.3   1306  EPH1306     0.0000
     19  C31        0.4030   27.6180  -78.5340 C.3   1306  EPH1306     0.0000
     20  C37      -13.0380   18.7090  -87.1220 C.3   1306  EPH1306     0.1964
     21  O5       -12.4770   17.9090  -88.1660 O.3   1306  EPH1306    -0.3100
     22  C3        -9.8930   20.3490  -86.7840 C.2   1306  EPH1306     0.3171
     23  O1       -11.1530   19.8970  -86.1960 O.3   1306  EPH1306    -0.4457
     24  O3        -9.8890   21.0850  -87.7610 O.2   1306  EPH1306    -0.2501
     25  C5        -8.5870   19.9010  -86.1660 C.3   1306  EPH1306     0.1096
     26  C6        -8.0390   20.9790  -85.2340 C.3   1306  EPH1306     0.0116
     27  C7        -7.2790   20.3700  -84.0600 C.3   1306  EPH1306     0.0006
     28  C8        -6.8480   21.4450  -83.0690 C.3   1306  EPH1306     0.0000
     29  C9        -5.4830   21.1280  -82.4670 C.3   1306  EPH1306     0.0000
     30  C10       -5.2210   21.9630  -81.2180 C.3   1306  EPH1306     0.0000
     31  C11       -3.7640   22.4050  -81.1480 C.3   1306  EPH1306     0.0000
     32  C12       -3.6530   23.8930  -80.8370 C.3   1306  EPH1306     0.0000
     33  C13       -2.6640   24.5820  -81.7700 C.3   1306  EPH1306     0.0000
     34  C14       -2.7870   26.0980  -81.6700 C.3   1306  EPH1306     0.0000
     35  C15       -2.0320   26.7950  -82.7970 C.3   1306  EPH1306     0.0000
     36  C16       -2.1810   28.3100  -82.6980 C.3   1306  EPH1306     0.0000
     37  C17       -1.0570   29.0180  -83.4240 C.3   1306  EPH1306     0.0000
     38  P1       -12.2290   16.3220  -87.9840 P.3   1306  EPH1306     0.2141
     39  O6       -10.6800   16.0310  -87.7530 O.2   1306  EPH1306    -0.5172
     40  O7       -13.1280   15.7750  -86.7920 O.3   1306  EPH1306    -0.4373
     41  O8       -12.7350   15.6890  -89.3810 O.3   1306  EPH1306    -0.3125
     42  C38      -12.1060   14.5420  -89.9520 C.3   1306  EPH1306     0.1696
     43  C39      -13.1650   13.6060  -90.5200 C.3   1306  EPH1306     0.1417
     44  N1       -12.7010   12.2380  -90.4060 N.3   1306  EPH1306    -0.1286
@<TRIPOS>BOND
     1    43    44    1
     2    43    42    1
     3    42    41    1
     4    41    38    1
     5    21    38    1
     6    21    20    1
     7    38    39    2
     8    38    40    1
     9    24    22    2
    10    20     2    1
    11     2     1    1
    12     2    23    1
    13    22    23    1
    14    22    25    1
    15     1     4    1
    16     4     3    1
    17    25    26    1
    18    26    27    1
    19     3     5    2
    20     3     6    1
    21     6     7    1
    22    27    28    1
    23     7     8    1
    24    37    36    1
    25    28    29    1
    26    35    36    1
    27    35    34    1
    28    29    30    1
    29     8     9    1
    30     9    10    1
    31    33    34    1
    32    33    32    1
    33    30    31    1
    34    31    32    1
    35    10    11    1
    36    11    12    1
    37    12    13    1
    38    13    14    1
    39    14    15    1
    40    19    18    1
    41    18    17    1
    42    16    15    1
    43    16    17    1
