@<TRIPOS>MOLECULE
3aea_F9A_D_1.pdb
 23 24 0 0 0
SMALL
GASTEIGER

@<TRIPOS>ATOM
      1  O         14.7350   26.4060  -61.2330 O.2   1201  F9A1201    -0.2680
      2  C1        12.5460   27.1160  -59.0830 C.3   1201  F9A1201     0.4187
      3  F1        13.7070   26.6220  -58.6970 F     1201  F9A1201    -0.1659
      4  N1        14.6890   24.1490  -61.2860 N.am  1201  F9A1201    -0.1755
      5  C2        11.8680   26.1860  -60.0540 C.ar  1201  F9A1201     0.0759
      6  F2        12.7370   28.2800  -59.6750 F     1201  F9A1201    -0.1659
      7  N2        18.4630   20.1120  -60.4270 N.3   1201  F9A1201    -0.2665
      8  C3        12.6160   25.3580  -61.0550 C.ar  1201  F9A1201     0.0593
      9  F3        11.7830   27.2860  -58.0170 F     1201  F9A1201    -0.1659
     10  C4        11.8850   24.5300  -61.9090 C.ar  1201  F9A1201     0.0045
     11  C5        10.4950   24.4770  -61.8370 C.ar  1201  F9A1201     0.0001
     12  C6         9.7990   25.2510  -60.9100 C.ar  1201  F9A1201    -0.0001
     13  C7        10.4760   26.0940  -60.0300 C.ar  1201  F9A1201     0.0040
     14  C8        14.1160   25.3520  -61.1960 C.2   1201  F9A1201     0.2689
     15  C9        16.0050   23.8550  -61.4250 C.ar  1201  F9A1201     0.0734
     16  C10       16.3440   22.5050  -61.4930 C.ar  1201  F9A1201     0.0137
     17  C11       17.6720   22.1090  -61.6320 C.ar  1201  F9A1201    -0.0048
     18  C12       18.6750   23.0750  -61.7100 C.ar  1201  F9A1201    -0.0028
     19  C13       18.3440   24.4290  -61.6430 C.ar  1201  F9A1201     0.0011
     20  C14       17.0120   24.8200  -61.5000 C.ar  1201  F9A1201     0.0166
     21  C15       18.0060   20.6330  -61.7090 C.3   1201  F9A1201     0.0993
     22  C16       17.5050   19.8150  -59.3710 C.3   1201  F9A1201     0.0899
     23  C17       19.8840   19.8800  -60.2100 C.3   1201  F9A1201     0.0899
@<TRIPOS>BOND
     1    10    11   ar
     2    10     8   ar
     3    11    12   ar
     4    18    19   ar
     5    18    17   ar
     6    21    17    1
     7    21     7    1
     8    19    20   ar
     9    17    16   ar
    10    20    15   ar
    11    16    15   ar
    12    15     4    1
    13     4    14   am
    14     1    14    2
    15    14     8    1
    16     8     5   ar
    17    12    13   ar
    18     7    23    1
    19     7    22    1
    20     5    13   ar
    21     5     2    1
    22     6     2    1
    23     2     3    1
    24     2     9    1
