@<TRIPOS>MOLECULE
3aea_HEM_C_1.pdb
 43 50 0 0 0
SMALL
GASTEIGER

@<TRIPOS>ATOM
      1  CHA        2.3750   26.8610  -65.0650 C.2   1305  HEM1305     0.0000
      2  CHB       -1.8150   24.5140  -65.6820 C.2   1305  HEM1305     0.0000
      3  CHC       -1.7490   25.8090  -70.3600 C.2   1305  HEM1305     0.0000
      4  CHD        1.7940   29.0060  -69.4170 C.2   1305  HEM1305     0.0000
      5  C1A        1.1890   26.2170  -64.7870 C.2   1305  HEM1305     0.0000
      6  C2A        0.6170   25.9650  -63.4770 C.2   1305  HEM1305     0.0000
      7  C3A       -0.5420   25.3170  -63.6480 C.2   1305  HEM1305     0.0000
      8  C4A       -0.7430   25.1330  -65.0740 C.2   1305  HEM1305     0.0000
      9  CMA       -1.5050   24.8420  -62.5320 C.3   1305  HEM1305     0.0000
     10  CAA        1.2370   26.3840  -62.1220 C.3   1305  HEM1305     0.0000
     11  CBA        2.3590   25.4350  -61.7120 C.3   1305  HEM1305     0.0000
     12  CGA        2.9190   25.8910  -60.3890 C.2   1305  HEM1305     0.0000
     13  O1A        3.8180   26.7750  -60.3890 O.co2 1305  HEM1305     0.0000
     14  O2A        2.4580   25.3740  -59.3360 O.co2 1305  HEM1305     0.0000
     15  C1B       -2.1090   24.5620  -67.0290 C.ar  1305  HEM1305     0.0000
     16  C2B       -3.0690   23.7340  -67.7370 C.ar  1305  HEM1305     0.0000
     17  C3B       -3.0440   24.0940  -69.0250 C.ar  1305  HEM1305     0.0000
     18  C4B       -2.0750   25.1620  -69.1840 C.ar  1305  HEM1305     0.0000
     19  CMB       -3.9570   22.6320  -67.1090 C.3   1305  HEM1305     0.0000
     20  CAB       -3.9030   23.4860  -70.1550 C.2   1305  HEM1305     0.0000
     21  CBB       -5.1480   23.9290  -70.3500 C.2   1305  HEM1305     0.0000
     22  C1C       -0.8430   26.8430  -70.5020 C.2   1305  HEM1305     0.0000
     23  C2C       -0.6730   27.6900  -71.6700 C.2   1305  HEM1305     0.0000
     24  C3C        0.3040   28.5670  -71.4050 C.2   1305  HEM1305     0.0000
     25  C4C        0.7910   28.3130  -70.0630 C.2   1305  HEM1305     0.0000
     26  CMC       -1.4790   27.5940  -72.9880 C.3   1305  HEM1305     0.0000
     27  CAC        0.8280   29.6700  -72.3510 C.2   1305  HEM1305     0.0000
     28  CBC        0.3380   30.9100  -72.2510 C.2   1305  HEM1305     0.0000
     29  C1D        2.3100   28.7400  -68.1670 C.ar  1305  HEM1305     0.0000
     30  C2D        3.4090   29.4410  -67.5360 C.ar  1305  HEM1305     0.0000
     31  C3D        3.5940   28.7660  -66.1690 C.ar  1305  HEM1305     0.0000
     32  C4D        2.5870   27.7290  -66.1150 C.ar  1305  HEM1305     0.0000
     33  CMD        4.2280   30.6180  -68.1100 C.3   1305  HEM1305     0.0000
     34  CAD        4.6320   29.1190  -65.0810 C.3   1305  HEM1305     0.0000
     35  CBD        5.8400   28.1930  -65.1790 C.3   1305  HEM1305     0.0000
     36  CGD        6.1470   27.6000  -63.8260 C.2   1305  HEM1305     0.0000
     37  O1D        6.2420   28.3620  -62.8260 O.co2 1305  HEM1305     0.0000
     38  O2D        6.3130   26.3550  -63.7480 O.co2 1305  HEM1305     0.0000
     39  NA         0.3330   25.6960  -65.7360 N.2   1305  HEM1305     0.0000
     40  NB        -1.5230   25.4180  -67.9440 N.ar  1305  HEM1305     0.0000
     41  NC         0.0700   27.2540  -69.5450 N.2   1305  HEM1305     0.0000
     42  ND         1.8600   27.7510  -67.3010 N.ar  1305  HEM1305     0.0000
     43 FE          0.2000   26.5310  -67.6210 Fe    1305  HEM1305     0.0000
@<TRIPOS>BOND
     1    26    23    1
     2    27    28    2
     3    27    24    1
     4    23    24    2
     5    23    22    1
     6    24    25    1
     7    22     3    2
     8    22    41    1
     9     3    18    1
    10    21    20    2
    11    20    17    1
    12    25    41    2
    13    25     4    1
    14    41    43    1
    15     4    29    2
    16    18    17   ar
    17    18    40   ar
    18    17    16   ar
    19    29    30   ar
    20    29    42   ar
    21    33    30    1
    22    40    43    1
    23    40    15   ar
    24    16    19    1
    25    16    15   ar
    26    43    42    1
    27    43    39    1
    28    30    31   ar
    29    42    32   ar
    30    15     2    1
    31    31    32   ar
    32    31    34    1
    33    32     1    2
    34    39     8    1
    35    39     5    2
    36     2     8    2
    37    35    34    1
    38    35    36    1
    39     8     7    1
    40     1     5    1
    41     5     6    1
    42    36    38   ar
    43    36    37   ar
    44     7     6    2
    45     7     9    1
    46     6    10    1
    47    10    11    1
    48    11    12    1
    49    13    12   ar
    50    12    14   ar
