@<TRIPOS>MOLECULE
3aeb_EPH_D_1.pdb
 44 43 0 0 0
SMALL
GASTEIGER

@<TRIPOS>ATOM
      1  C1       -45.3860  -21.2310   83.9090 C.3   1306  EPH1306     0.2543
      2  C2       -46.4530  -21.1900   84.9510 C.3   1306  EPH1306     0.2420
      3  C4       -43.5730  -21.1150   85.3990 C.2   1306  EPH1306     0.3171
      4  O2       -44.3970  -21.9440   84.5900 O.3   1306  EPH1306    -0.4444
      5  O4       -43.8080  -21.0100   86.5730 O.2   1306  EPH1306    -0.2501
      6  C18      -42.4640  -20.3920   84.7110 C.3   1306  EPH1306     0.1096
      7  C19      -42.5680  -20.8090   83.2530 C.3   1306  EPH1306     0.0116
      8  C20      -41.1810  -21.0770   82.7070 C.3   1306  EPH1306     0.0006
      9  C21      -41.1960  -21.8240   81.3920 C.3   1306  EPH1306     0.0000
     10  C22      -39.7780  -22.2490   81.0850 C.3   1306  EPH1306     0.0000
     11  C23      -39.7380  -23.7040   80.6680 C.3   1306  EPH1306     0.0000
     12  C24      -38.6520  -24.4530   81.4140 C.3   1306  EPH1306     0.0000
     13  C25      -39.0910  -25.8940   81.5870 C.3   1306  EPH1306     0.0000
     14  C26      -37.9110  -26.8320   81.4650 C.3   1306  EPH1306     0.0000
     15  C27      -37.7820  -27.7060   82.6980 C.3   1306  EPH1306     0.0000
     16  C28      -38.8060  -28.8350   82.6930 C.3   1306  EPH1306     0.0000
     17  C29      -38.2710  -30.0970   82.0370 C.3   1306  EPH1306     0.0000
     18  C30      -39.2940  -30.6660   81.0710 C.3   1306  EPH1306     0.0000
     19  C31      -38.6520  -31.6770   80.1580 C.3   1306  EPH1306     0.0000
     20  C37      -47.7750  -21.0520   84.2540 C.3   1306  EPH1306     0.1964
     21  O5       -48.7280  -21.2130   85.2760 O.3   1306  EPH1306    -0.3100
     22  C3       -47.0540  -23.3880   84.5830 C.2   1306  EPH1306     0.3171
     23  O1       -46.4360  -22.4750   85.5080 O.3   1306  EPH1306    -0.4457
     24  O3       -48.2440  -23.2950   84.4300 O.2   1306  EPH1306    -0.2501
     25  C5       -46.2540  -24.4420   83.8590 C.3   1306  EPH1306     0.1096
     26  C6       -46.4610  -24.4530   82.3530 C.3   1306  EPH1306     0.0116
     27  C7       -45.1060  -24.4990   81.6640 C.3   1306  EPH1306     0.0006
     28  C8       -45.1000  -25.3430   80.3990 C.3   1306  EPH1306     0.0000
     29  C9       -43.8280  -25.1490   79.5800 C.3   1306  EPH1306     0.0000
     30  C10      -43.0600  -26.4540   79.3900 C.3   1306  EPH1306     0.0000
     31  C11      -41.8610  -26.2850   78.4640 C.3   1306  EPH1306     0.0000
     32  C12      -40.8560  -27.4270   78.5240 C.3   1306  EPH1306     0.0000
     33  C13      -39.6070  -27.0690   77.7310 C.3   1306  EPH1306     0.0000
     34  C14      -38.5020  -28.0990   77.9090 C.3   1306  EPH1306     0.0000
     35  C15      -37.1050  -27.5160   77.7690 C.3   1306  EPH1306     0.0000
     36  C16      -36.1370  -28.3110   78.6300 C.3   1306  EPH1306     0.0000
     37  C17      -34.7790  -27.6740   78.7590 C.3   1306  EPH1306     0.0000
     38  P1       -48.2230  -21.6630   86.7040 P.3   1306  EPH1306     0.2141
     39  O6       -46.8180  -20.9990   87.1910 O.3   1306  EPH1306    -0.4373
     40  O7       -48.2350  -23.2210   86.7280 O.2   1306  EPH1306    -0.5172
     41  O8       -49.3830  -21.0260   87.5770 O.3   1306  EPH1306    -0.3125
     42  C38      -50.4090  -20.3660   86.8420 C.3   1306  EPH1306     0.1696
     43  C39      -51.0460  -21.4510   85.9950 C.3   1306  EPH1306     0.1417
     44  N1       -50.4530  -22.7010   86.4210 N.3   1306  EPH1306    -0.1286
@<TRIPOS>BOND
     1    33    34    1
     2    33    32    1
     3    35    34    1
     4    35    36    1
     5    31    32    1
     6    31    30    1
     7    36    37    1
     8    30    29    1
     9    29    28    1
    10    19    18    1
    11    28    27    1
    12    11    10    1
    13    11    12    1
    14    18    17    1
    15    10     9    1
    16     9     8    1
    17    12    13    1
    18    14    13    1
    19    14    15    1
    20    27    26    1
    21    17    16    1
    22    26    25    1
    23    16    15    1
    24     8     7    1
    25     7     6    1
    26    25    22    1
    27     1     4    1
    28     1     2    1
    29    20     2    1
    30    20    21    1
    31    24    22    2
    32    22    23    1
    33     4     3    1
    34     6     3    1
    35     2    23    1
    36    21    38    1
    37     3     5    2
    38    43    44    1
    39    43    42    1
    40    38    40    2
    41    38    39    1
    42    38    41    1
    43    42    41    1
