@<TRIPOS>MOLECULE
3aeb_F7A_C_1.pdb
 26 28 0 0 0
SMALL
GASTEIGER

@<TRIPOS>ATOM
      1  C1       -23.2970  -27.4200   59.3000 C.3   1201  F7A1201     0.4187
      2  F1       -22.1320  -26.8590   59.0390 F     1201  F7A1201    -0.1659
      3  N1       -21.4310  -24.5840   61.0560 N.am  1201  F7A1201    -0.1753
      4  O1       -21.6100  -26.5500   62.1230 O.2   1201  F7A1201    -0.2680
      5  C2       -24.1320  -26.5590   60.2060 C.ar  1201  F7A1201     0.0759
      6  F2       -23.1030  -28.5850   59.8850 F     1201  F7A1201    -0.1659
      7  O2       -17.6650  -21.7920   60.3810 O.3   1201  F7A1201    -0.4535
      8  C3       -23.5870  -25.7450   61.2000 C.ar  1201  F7A1201     0.0593
      9  F3       -23.9440  -27.6020   58.1650 F     1201  F7A1201    -0.1659
     10  C4       -24.4250  -24.9780   62.0080 C.ar  1201  F7A1201     0.0045
     11  C5       -25.8030  -25.0070   61.8280 C.ar  1201  F7A1201     0.0001
     12  C6       -26.3490  -25.8130   60.8370 C.ar  1201  F7A1201    -0.0001
     13  C7       -25.5160  -26.5840   60.0330 C.ar  1201  F7A1201     0.0040
     14  C8       -22.1160  -25.6480   61.4830 C.2   1201  F7A1201     0.2689
     15  C9       -20.0980  -24.3730   61.2630 C.ar  1201  F7A1201     0.0767
     16  C10      -19.5300  -23.2120   60.7440 C.ar  1201  F7A1201     0.0541
     17  C11      -18.1760  -22.9410   60.9290 C.ar  1201  F7A1201     0.1466
     18  C12      -17.3710  -23.8410   61.6310 C.ar  1201  F7A1201     0.0376
     19  C13      -17.9270  -25.0040   62.1580 C.ar  1201  F7A1201     0.0045
     20  C14      -19.2840  -25.2660   61.9700 C.ar  1201  F7A1201     0.0168
     21  C15      -16.8400  -20.8910   61.0140 C.ar  1201  F7A1201     0.1453
     22  C16      -17.1690  -20.3600   62.2650 C.ar  1201  F7A1201     0.0375
     23  C17      -16.3180  -19.4350   62.8720 C.ar  1201  F7A1201     0.0031
     24  C18      -15.1490  -19.0380   62.2220 C.ar  1201  F7A1201     0.0002
     25  C19      -14.8240  -19.5570   60.9690 C.ar  1201  F7A1201     0.0031
     26  C20      -15.6740  -20.4800   60.3640 C.ar  1201  F7A1201     0.0375
@<TRIPOS>BOND
     1     9     1    1
     2     2     1    1
     3     1     6    1
     4     1     5    1
     5    13     5   ar
     6    13    12   ar
     7     5     8   ar
     8    26    25   ar
     9    26    21   ar
    10     7    17    1
    11     7    21    1
    12    16    17   ar
    13    16    15   ar
    14    12    11   ar
    15    17    18   ar
    16    25    24   ar
    17    21    22   ar
    18     3    15    1
    19     3    14   am
    20     8    14    1
    21     8    10   ar
    22    15    20   ar
    23    14     4    2
    24    18    19   ar
    25    11    10   ar
    26    20    19   ar
    27    24    23   ar
    28    22    23   ar
