@<TRIPOS>MOLECULE
3aeb_HEM_C_1.pdb
 43 50 0 0 0
SMALL
GASTEIGER

@<TRIPOS>ATOM
      1  CHA      -33.6960  -27.2310   65.0860 C.2   1305  HEM1305     0.0000
      2  CHB      -37.6860  -24.6020   65.8530 C.2   1305  HEM1305     0.0000
      3  CHC      -37.6590  -25.8910   70.5260 C.2   1305  HEM1305     0.0000
      4  CHD      -34.2000  -29.1700   69.5480 C.2   1305  HEM1305     0.0000
      5  C1A      -34.7910  -26.4280   64.8740 C.ar  1305  HEM1305     0.0000
      6  C2A      -35.2130  -25.8730   63.6050 C.ar  1305  HEM1305     0.0000
      7  C3A      -36.3170  -25.1470   63.8160 C.ar  1305  HEM1305     0.0000
      8  C4A      -36.6260  -25.2170   65.2290 C.ar  1305  HEM1305     0.0000
      9  CMA      -37.1370  -24.3620   62.7640 C.3   1305  HEM1305     0.0000
     10  CAA      -34.5040  -26.1070   62.2510 C.3   1305  HEM1305     0.0000
     11  CBA      -33.4280  -25.0540   62.0290 C.3   1305  HEM1305     0.0000
     12  CGA      -32.7650  -25.3140   60.7020 C.2   1305  HEM1305     0.0000
     13  O1A      -31.5580  -25.6790   60.7040 O.co2 1305  HEM1305     0.0000
     14  O2A      -33.4450  -25.1570   59.6500 O.co2 1305  HEM1305     0.0000
     15  C1B      -37.9780  -24.6440   67.1970 C.2   1305  HEM1305     0.0000
     16  C2B      -38.9310  -23.7980   67.8890 C.2   1305  HEM1305     0.0000
     17  C3B      -38.9230  -24.1530   69.1820 C.2   1305  HEM1305     0.0000
     18  C4B      -37.9690  -25.2370   69.3520 C.2   1305  HEM1305     0.0000
     19  CMB      -39.7930  -22.6910   67.2310 C.3   1305  HEM1305     0.0000
     20  CAB      -39.7860  -23.5300   70.3010 C.2   1305  HEM1305     0.0000
     21  CBB      -41.0480  -23.9420   70.4470 C.2   1305  HEM1305     0.0000
     22  C1C      -36.7800  -26.9500   70.6590 C.ar  1305  HEM1305     0.0000
     23  C2C      -36.6240  -27.8090   71.8230 C.ar  1305  HEM1305     0.0000
     24  C3C      -35.6690  -28.7080   71.5470 C.ar  1305  HEM1305     0.0000
     25  C4C      -35.1840  -28.4570   70.2020 C.ar  1305  HEM1305     0.0000
     26  CMC      -37.4170  -27.7010   73.1470 C.3   1305  HEM1305     0.0000
     27  CAC      -35.1650  -29.8290   72.4840 C.2   1305  HEM1305     0.0000
     28  CBC      -35.5260  -31.0960   72.2510 C.2   1305  HEM1305     0.0000
     29  C1D      -33.6960  -28.9350   68.2870 C.2   1305  HEM1305     0.0000
     30  C2D      -32.5620  -29.6110   67.6930 C.2   1305  HEM1305     0.0000
     31  C3D      -32.4050  -28.9980   66.2960 C.2   1305  HEM1305     0.0000
     32  C4D      -33.4620  -28.0210   66.1880 C.2   1305  HEM1305     0.0000
     33  CMD      -31.6850  -30.7180   68.3190 C.3   1305  HEM1305     0.0000
     34  CAD      -31.3480  -29.3490   65.2260 C.3   1305  HEM1305     0.0000
     35  CBD      -30.2120  -28.3330   65.2620 C.3   1305  HEM1305     0.0000
     36  CGD      -29.7310  -28.0330   63.8650 C.2   1305  HEM1305     0.0000
     37  O1D      -29.7990  -28.9290   62.9820 O.co2 1305  HEM1305     0.0000
     38  O2D      -29.2630  -26.8880   63.6280 O.co2 1305  HEM1305     0.0000
     39  NA       -35.6790  -26.0110   65.8420 N.ar  1305  HEM1305     0.0000
     40  NB       -37.4080  -25.5040   68.1180 N.2   1305  HEM1305     0.0000
     41  NC       -35.8890  -27.3840   69.6910 N.ar  1305  HEM1305     0.0000
     42  ND       -34.1910  -28.0100   67.3740 N.2   1305  HEM1305     0.0000
     43 FE        -35.8000  -26.7180   67.7580 Fe    1305  HEM1305     0.0000
@<TRIPOS>BOND
     1    14    12   ar
     2    12    13   ar
     3    12    11    1
     4    11    10    1
     5    10     6    1
     6     9     7    1
     7    37    36   ar
     8     6     7   ar
     9     6     5   ar
    10    38    36   ar
    11     7     8   ar
    12    36    35    1
    13     5     1    2
    14     5    39   ar
    15     1    32    1
    16    34    35    1
    17    34    31    1
    18     8    39   ar
    19     8     2    2
    20    39    43    1
    21     2    15    1
    22    32    31    1
    23    32    42    2
    24    31    30    2
    25    15    16    1
    26    15    40    2
    27    19    16    1
    28    42    43    1
    29    42    29    1
    30    30    29    1
    31    30    33    1
    32    43    40    1
    33    43    41    1
    34    16    17    2
    35    40    18    1
    36    29     4    2
    37    17    18    1
    38    17    20    1
    39    18     3    2
    40     4    25    1
    41    41    25   ar
    42    41    22   ar
    43    25    24   ar
    44    20    21    2
    45     3    22    1
    46    22    23   ar
    47    24    23   ar
    48    24    27    1
    49    23    26    1
    50    28    27    2
