@<TRIPOS>MOLECULE
3aec_EPH_D_1.pdb
 44 43 0 0 0
SMALL
GASTEIGER

@<TRIPOS>ATOM
      1  C1       -45.6980  -21.0650   85.3020 C.3   1306  EPH1306     0.2543
      2  C2       -46.0650  -21.8370   86.5710 C.3   1306  EPH1306     0.2420
      3  C4       -43.2300  -20.9020   84.8990 C.2   1306  EPH1306     0.3171
      4  O2       -44.4970  -21.6030   84.7520 O.3   1306  EPH1306    -0.4444
      5  O4       -42.7710  -20.7210   86.0150 O.2   1306  EPH1306    -0.2501
      6  C18      -42.4880  -20.4060   83.6800 C.3   1306  EPH1306     0.1096
      7  C19      -42.1080  -21.5820   82.7880 C.3   1306  EPH1306     0.0116
      8  C20      -41.2500  -21.1230   81.6160 C.3   1306  EPH1306     0.0006
      9  C21      -40.7630  -22.3030   80.7860 C.3   1306  EPH1306     0.0000
     10  C22      -39.2810  -22.5710   81.0240 C.3   1306  EPH1306     0.0000
     11  C23      -39.0050  -24.0700   81.0700 C.3   1306  EPH1306     0.0000
     12  C24      -37.6170  -24.3620   81.6270 C.3   1306  EPH1306     0.0000
     13  C25      -37.6470  -25.5560   82.5760 C.3   1306  EPH1306     0.0000
     14  C26      -36.9380  -26.7620   81.9680 C.3   1306  EPH1306     0.0000
     15  C27      -37.1660  -28.0220   82.7960 C.3   1306  EPH1306     0.0000
     16  C28      -38.2340  -28.9120   82.1700 C.3   1306  EPH1306     0.0000
     17  C29      -37.6260  -30.1760   81.5730 C.3   1306  EPH1306     0.0000
     18  C30      -38.6850  -30.9950   80.8460 C.3   1306  EPH1306     0.0000
     19  C31      -38.1680  -31.4870   79.5120 C.3   1306  EPH1306     0.0000
     20  C37      -46.9360  -20.9460   87.4560 C.3   1306  EPH1306     0.1964
     21  O5       -48.3210  -21.1910   87.2080 O.3   1306  EPH1306    -0.3100
     22  C3       -47.1690  -23.4350   84.9900 C.2   1306  EPH1306     0.3171
     23  O1       -46.7300  -23.0920   86.3410 O.3   1306  EPH1306    -0.4457
     24  O3       -48.2190  -22.9700   84.5710 O.2   1306  EPH1306    -0.2501
     25  C5       -46.3500  -24.3860   84.1420 C.3   1306  EPH1306     0.1096
     26  C6       -46.1110  -23.8090   82.7500 C.3   1306  EPH1306     0.0116
     27  C7       -44.7740  -24.2650   82.1790 C.3   1306  EPH1306     0.0006
     28  C8       -44.9180  -24.6610   80.7140 C.3   1306  EPH1306     0.0000
     29  C9       -43.5610  -24.7580   80.0270 C.3   1306  EPH1306     0.0000
     30  C10      -43.1460  -26.2110   79.8220 C.3   1306  EPH1306     0.0000
     31  C11      -42.1120  -26.3360   78.7090 C.3   1306  EPH1306     0.0000
     32  C12      -40.8830  -27.1110   79.1720 C.3   1306  EPH1306     0.0000
     33  C13      -39.6460  -26.7140   78.3710 C.3   1306  EPH1306     0.0000
     34  C14      -38.5220  -27.7300   78.5450 C.3   1306  EPH1306     0.0000
     35  C15      -37.1660  -27.1280   78.1910 C.3   1306  EPH1306     0.0000
     36  C16      -36.0370  -28.1070   78.4950 C.3   1306  EPH1306     0.0000
     37  C17      -34.7610  -27.3810   78.8590 C.3   1306  EPH1306     0.0000
     38  P1       -49.2610  -20.0760   86.5200 P.3   1306  EPH1306     0.2141
     39  O6       -49.2110  -18.8250   87.3680 O.3   1306  EPH1306    -0.4373
     40  O7       -48.9150  -20.0040   85.0500 O.2   1306  EPH1306    -0.5172
     41  O8       -50.7360  -20.7180   86.6510 O.3   1306  EPH1306    -0.3125
     42  C38      -51.8710  -20.0870   86.0570 C.3   1306  EPH1306     0.1696
     43  C39      -52.5520  -21.0570   85.0990 C.3   1306  EPH1306     0.1417
     44  N1       -53.1020  -20.3200   83.9780 N.3   1306  EPH1306    -0.1286
@<TRIPOS>BOND
     1    35    36    1
     2    35    34    1
     3    33    34    1
     4    33    32    1
     5    36    37    1
     6    31    32    1
     7    31    30    1
     8    19    18    1
     9    30    29    1
    10    29    28    1
    11    28    27    1
    12     9    10    1
    13     9     8    1
    14    18    17    1
    15    10    11    1
    16    11    12    1
    17    17    16    1
    18     8     7    1
    19    12    13    1
    20    14    13    1
    21    14    15    1
    22    16    15    1
    23    27    26    1
    24    26    25    1
    25     7     6    1
    26     6     3    1
    27    44    43    1
    28    25    22    1
    29    24    22    2
    30     4     3    1
    31     4     1    1
    32     3     5    2
    33    22    23    1
    34    40    38    2
    35    43    42    1
    36     1     2    1
    37    42    41    1
    38    23     2    1
    39    38    41    1
    40    38    21    1
    41    38    39    1
    42     2    20    1
    43    21    20    1
