@<TRIPOS>MOLECULE
3aec_HEM_C_1.pdb
 43 50 0 0 0
SMALL
GASTEIGER

@<TRIPOS>ATOM
      1  CHA      -33.2620  -26.9940   65.1840 C.2   1305  HEM1305     0.0000
      2  CHB      -37.3070  -24.4660   66.0230 C.2   1305  HEM1305     0.0000
      3  CHC      -37.2450  -25.9750   70.6380 C.2   1305  HEM1305     0.0000
      4  CHD      -33.7470  -29.1690   69.5330 C.2   1305  HEM1305     0.0000
      5  C1A      -34.4060  -26.2550   64.9770 C.ar  1305  HEM1305     0.0000
      6  C2A      -34.9490  -25.8450   63.6950 C.ar  1305  HEM1305     0.0000
      7  C3A      -36.0680  -25.1460   63.9270 C.ar  1305  HEM1305     0.0000
      8  C4A      -36.2700  -25.0910   65.3630 C.ar  1305  HEM1305     0.0000
      9  CMA      -36.9880  -24.5050   62.8600 C.3   1305  HEM1305     0.0000
     10  CAA      -34.3340  -26.1630   62.3100 C.3   1305  HEM1305     0.0000
     11  CBA      -33.2120  -25.1710   62.0170 C.3   1305  HEM1305     0.0000
     12  CGA      -32.8440  -25.2330   60.5580 C.2   1305  HEM1305     0.0000
     13  O1A      -33.4380  -24.4650   59.7570 O.co2 1305  HEM1305     0.0000
     14  O2A      -31.9550  -26.0480   60.1990 O.co2 1305  HEM1305     0.0000
     15  C1B      -37.6140  -24.5970   67.3620 C.2   1305  HEM1305     0.0000
     16  C2B      -38.6350  -23.8600   68.0850 C.2   1305  HEM1305     0.0000
     17  C3B      -38.6160  -24.2770   69.3570 C.2   1305  HEM1305     0.0000
     18  C4B      -37.5860  -25.2920   69.4880 C.2   1305  HEM1305     0.0000
     19  CMB      -39.5710  -22.7850   67.4810 C.3   1305  HEM1305     0.0000
     20  CAB      -39.5350  -23.7730   70.4930 C.2   1305  HEM1305     0.0000
     21  CBB      -40.7950  -24.2150   70.5670 C.2   1305  HEM1305     0.0000
     22  C1C      -36.3380  -27.0130   70.7380 C.ar  1305  HEM1305     0.0000
     23  C2C      -36.1240  -27.8700   71.8910 C.ar  1305  HEM1305     0.0000
     24  C3C      -35.1600  -28.7460   71.5830 C.ar  1305  HEM1305     0.0000
     25  C4C      -34.7250  -28.4820   70.2240 C.ar  1305  HEM1305     0.0000
     26  CMC      -36.8780  -27.7820   73.2380 C.3   1305  HEM1305     0.0000
     27  CAC      -34.6040  -29.8550   72.5040 C.2   1305  HEM1305     0.0000
     28  CBC      -35.0780  -31.1010   72.3920 C.2   1305  HEM1305     0.0000
     29  C1D      -33.2510  -28.8840   68.2760 C.2   1305  HEM1305     0.0000
     30  C2D      -32.1470  -29.5600   67.6290 C.2   1305  HEM1305     0.0000
     31  C3D      -31.9830  -28.8800   66.2620 C.2   1305  HEM1305     0.0000
     32  C4D      -33.0180  -27.8640   66.2250 C.2   1305  HEM1305     0.0000
     33  CMD      -31.3010  -30.7240   68.1900 C.3   1305  HEM1305     0.0000
     34  CAD      -30.9390  -29.2420   65.1750 C.3   1305  HEM1305     0.0000
     35  CBD      -30.1200  -28.0370   64.7160 C.3   1305  HEM1305     0.0000
     36  CGD      -30.1500  -27.8940   63.2080 C.2   1305  HEM1305     0.0000
     37  O1D      -30.4380  -28.8850   62.4850 O.co2 1305  HEM1305     0.0000
     38  O2D      -29.8720  -26.7690   62.7150 O.co2 1305  HEM1305     0.0000
     39  NA       -35.2380  -25.7800   65.9700 N.ar  1305  HEM1305     0.0000
     40  NB       -36.9960  -25.4590   68.2490 N.2   1305  HEM1305     0.0000
     41  NC       -35.4650  -27.4200   69.7440 N.ar  1305  HEM1305     0.0000
     42  ND       -33.7310  -27.9020   67.4200 N.2   1305  HEM1305     0.0000
     43 FE        -35.3170  -26.6170   67.8670 Fe    1305  HEM1305     0.0000
@<TRIPOS>BOND
     1    13    12   ar
     2    14    12   ar
     3    12    11    1
     4    11    10    1
     5    10     6    1
     6    37    36   ar
     7    38    36   ar
     8     9     7    1
     9    36    35    1
    10     6     7   ar
    11     6     5   ar
    12     7     8   ar
    13    35    34    1
    14     5     1    2
    15     5    39   ar
    16    34    31    1
    17     1    32    1
    18     8    39   ar
    19     8     2    2
    20    39    43    1
    21     2    15    1
    22    32    31    1
    23    32    42    2
    24    31    30    2
    25    15    16    1
    26    15    40    2
    27    42    43    1
    28    42    29    1
    29    19    16    1
    30    30    33    1
    31    30    29    1
    32    43    40    1
    33    43    41    1
    34    16    17    2
    35    40    18    1
    36    29     4    2
    37    17    18    1
    38    17    20    1
    39    18     3    2
    40     4    25    1
    41    41    25   ar
    42    41    22   ar
    43    25    24   ar
    44    20    21    2
    45     3    22    1
    46    22    23   ar
    47    24    23   ar
    48    24    27    1
    49    23    26    1
    50    28    27    2
