@<TRIPOS>MOLECULE
3aec_EBM_C_1.pdb
 13 13 0 0 0
SMALL
GASTEIGER

@<TRIPOS>ATOM
      1  I        -23.4580  -27.7400   58.5290 I     1201  EBM1201    -0.0424
      2  N        -20.9010  -25.1200   61.4940 N.am  1201  EBM1201    -0.2034
      3  O        -21.3100  -26.9070   60.2230 O.2   1201  EBM1201    -0.2684
      4  C1       -24.1500  -26.3820   59.9660 C.ar  1201  EBM1201     0.0345
      5  C2       -23.2120  -25.6900   60.9000 C.ar  1201  EBM1201     0.0604
      6  C3       -23.7420  -24.7980   61.8350 C.ar  1201  EBM1201     0.0050
      7  C4       -25.1170  -24.5650   61.8850 C.ar  1201  EBM1201     0.0002
      8  C5       -25.9920  -25.2120   61.0100 C.ar  1201  EBM1201     0.0004
      9  C6       -25.5160  -26.1140   60.0580 C.ar  1201  EBM1201     0.0059
     10  C7       -21.7280  -25.9430   60.8470 C.2   1201  EBM1201     0.2651
     11  C8       -19.8420  -24.3910   60.8230 C.3   1201  EBM1201     0.0957
     12  C9       -20.2080  -22.9150   60.7170 C.3   1201  EBM1201     0.0234
     13  C10      -18.5290  -24.5770   61.5740 C.3   1201  EBM1201     0.0234
@<TRIPOS>BOND
     1     1     4    1
     2     4     9   ar
     3     4     5   ar
     4     9     8   ar
     5     3    10    2
     6    12    11    1
     7    11     2    1
     8    11    13    1
     9    10     5    1
    10    10     2   am
    11     5     6   ar
    12     8     7   ar
    13     6     7   ar
