@<TRIPOS>MOLECULE
3aed_HEM_C_1.pdb
 43 50 0 0 0
SMALL
GASTEIGER

@<TRIPOS>ATOM
      1  CHA      -33.5190  -26.8970   65.2760 C.2   1305  HEM1305     0.0000
      2  CHB      -37.6850  -24.4700   65.7500 C.2   1305  HEM1305     0.0000
      3  CHC      -37.7710  -25.6620   70.4590 C.2   1305  HEM1305     0.0000
      4  CHD      -34.2000  -28.8680   69.7000 C.2   1305  HEM1305     0.0000
      5  C1A      -34.6580  -26.1880   64.9670 C.ar  1305  HEM1305     0.0000
      6  C2A      -35.0940  -25.7900   63.6420 C.ar  1305  HEM1305     0.0000
      7  C3A      -36.2480  -25.1190   63.7700 C.ar  1305  HEM1305     0.0000
      8  C4A      -36.5780  -25.0670   65.1830 C.ar  1305  HEM1305     0.0000
      9  CMA      -37.0940  -24.5010   62.6290 C.3   1305  HEM1305     0.0000
     10  CAA      -34.3400  -26.1090   62.3280 C.3   1305  HEM1305     0.0000
     11  CBA      -33.4630  -24.9320   61.9180 C.3   1305  HEM1305     0.0000
     12  CGA      -33.4640  -24.8390   60.4160 C.2   1305  HEM1305     0.0000
     13  O1A      -34.4040  -24.2200   59.8480 O.co2 1305  HEM1305     0.0000
     14  O2A      -32.5230  -25.3900   59.7890 O.co2 1305  HEM1305     0.0000
     15  C1B      -38.0020  -24.4710   67.0940 C.2   1305  HEM1305     0.0000
     16  C2B      -38.9260  -23.5730   67.7700 C.2   1305  HEM1305     0.0000
     17  C3B      -38.9420  -23.9060   69.0670 C.2   1305  HEM1305     0.0000
     18  C4B      -38.0370  -25.0240   69.2650 C.2   1305  HEM1305     0.0000
     19  CMB      -39.7440  -22.4340   67.1110 C.3   1305  HEM1305     0.0000
     20  CAB      -39.7850  -23.2280   70.1700 C.2   1305  HEM1305     0.0000
     21  CBB      -40.9680  -23.7520   70.5050 C.2   1305  HEM1305     0.0000
     22  C1C      -36.8520  -26.6710   70.6630 C.ar  1305  HEM1305     0.0000
     23  C2C      -36.6570  -27.4260   71.8880 C.ar  1305  HEM1305     0.0000
     24  C3C      -35.6710  -28.3100   71.6750 C.ar  1305  HEM1305     0.0000
     25  C4C      -35.2040  -28.1470   70.3110 C.ar  1305  HEM1305     0.0000
     26  CMC      -37.4530  -27.2350   73.2010 C.3   1305  HEM1305     0.0000
     27  CAC      -35.1150  -29.3350   72.6910 C.2   1305  HEM1305     0.0000
     28  CBC      -35.7630  -30.4860   72.9020 C.2   1305  HEM1305     0.0000
     29  C1D      -33.6660  -28.6540   68.4460 C.2   1305  HEM1305     0.0000
     30  C2D      -32.5770  -29.3990   67.8560 C.2   1305  HEM1305     0.0000
     31  C3D      -32.3560  -28.7820   66.4700 C.2   1305  HEM1305     0.0000
     32  C4D      -33.3430  -27.7300   66.3610 C.2   1305  HEM1305     0.0000
     33  CMD      -31.7950  -30.5710   68.4890 C.3   1305  HEM1305     0.0000
     34  CAD      -31.3080  -29.2130   65.4190 C.3   1305  HEM1305     0.0000
     35  CBD      -30.2600  -28.1310   65.1760 C.3   1305  HEM1305     0.0000
     36  CGD      -30.0920  -27.8870   63.6950 C.2   1305  HEM1305     0.0000
     37  O1D      -30.5440  -28.7190   62.8620 O.co2 1305  HEM1305     0.0000
     38  O2D      -29.4940  -26.8420   63.3390 O.co2 1305  HEM1305     0.0000
     39  NA       -35.5840  -25.7290   65.8800 N.ar  1305  HEM1305     0.0000
     40  NB       -37.4790  -25.3380   68.0400 N.2   1305  HEM1305     0.0000
     41  NC       -35.9470  -27.1400   69.7280 N.ar  1305  HEM1305     0.0000
     42  ND       -34.0840  -27.6900   67.5370 N.2   1305  HEM1305     0.0000
     43 FE        -35.8120  -26.5160   67.7800 Fe    1305  HEM1305     0.0000
@<TRIPOS>BOND
     1    14    12   ar
     2    13    12   ar
     3    12    11    1
     4    11    10    1
     5    10     6    1
     6     9     7    1
     7    37    36   ar
     8    38    36   ar
     9     6     7   ar
    10     6     5   ar
    11    36    35    1
    12     7     8   ar
    13     5     1    2
    14     5    39   ar
    15    35    34    1
    16     8     2    2
    17     8    39   ar
    18     1    32    1
    19    34    31    1
    20     2    15    1
    21    39    43    1
    22    32    31    1
    23    32    42    2
    24    31    30    2
    25    15    16    1
    26    15    40    2
    27    19    16    1
    28    42    43    1
    29    42    29    1
    30    16    17    2
    31    43    40    1
    32    43    41    1
    33    30    29    1
    34    30    33    1
    35    40    18    1
    36    29     4    2
    37    17    18    1
    38    17    20    1
    39    18     3    2
    40     4    25    1
    41    41    25   ar
    42    41    22   ar
    43    20    21    2
    44    25    24   ar
    45     3    22    1
    46    22    23   ar
    47    24    23   ar
    48    24    27    1
    49    23    26    1
    50    27    28    2
