@<TRIPOS>MOLECULE
3aed_BOL_C_1.pdb
 16 17 0 0 0
SMALL
GASTEIGER

@<TRIPOS>ATOM
      1  I        -23.6910  -27.4120   58.7170 I     1201  BOL1201    -0.0424
      2  N        -21.0570  -25.1630   61.6960 N.am  1201  BOL1201    -0.1754
      3  O        -21.5520  -26.6300   60.1130 O.2   1201  BOL1201    -0.2680
      4  C1       -24.3170  -26.0360   60.1600 C.ar  1201  BOL1201     0.0345
      5  C2       -23.3750  -25.4010   60.9750 C.ar  1201  BOL1201     0.0607
      6  C3       -23.8070  -24.4800   61.9330 C.ar  1201  BOL1201     0.0050
      7  C4       -25.1660  -24.1990   62.0730 C.ar  1201  BOL1201     0.0002
      8  C5       -26.1030  -24.8350   61.2590 C.ar  1201  BOL1201     0.0004
      9  C6       -25.6770  -25.7540   60.3010 C.ar  1201  BOL1201     0.0059
     10  C7       -21.9060  -25.7050   60.8270 C.2   1201  BOL1201     0.2694
     11  C8       -20.1530  -24.0860   61.3450 C.ar  1201  BOL1201     0.0737
     12  C9       -20.6890  -22.8920   60.8580 C.ar  1201  BOL1201     0.0166
     13  C10      -19.7920  -21.8740   60.5320 C.ar  1201  BOL1201     0.0013
     14  C11      -18.4170  -22.0760   60.7040 C.ar  1201  BOL1201     0.0001
     15  C12      -17.9170  -23.2870   61.1990 C.ar  1201  BOL1201     0.0013
     16  C13      -18.7950  -24.3190   61.5300 C.ar  1201  BOL1201     0.0166
@<TRIPOS>BOND
     1     1     4    1
     2     3    10    2
     3     4     9   ar
     4     4     5   ar
     5     9     8   ar
     6    13    14   ar
     7    13    12   ar
     8    14    15   ar
     9    10     5    1
    10    10     2   am
    11    12    11   ar
    12     5     6   ar
    13    15    16   ar
    14     8     7   ar
    15    11    16   ar
    16    11     2    1
    17     6     7   ar
