@<TRIPOS>MOLECULE
3aed_EPH_D_1.pdb
 44 43 0 0 0
SMALL
GASTEIGER

@<TRIPOS>ATOM
      1  C1       -40.9390  -22.0710   82.7840 C.3   1306  EPH1306     0.2543
      2  C2       -41.9500  -20.9730   82.4470 C.3   1306  EPH1306     0.2420
      3  C4       -39.1240  -23.0900   81.3600 C.2   1306  EPH1306     0.3171
      4  O2       -39.7380  -21.9380   82.0170 O.3   1306  EPH1306    -0.4444
      5  O4       -39.2980  -23.2350   80.1610 O.2   1306  EPH1306    -0.2501
      6  C18      -38.2750  -24.0830   82.1280 C.3   1306  EPH1306     0.1096
      7  C19      -38.9590  -25.4470   82.1900 C.3   1306  EPH1306     0.0116
      8  C20      -37.9750  -26.5900   81.9660 C.3   1306  EPH1306     0.0006
      9  C21      -37.8870  -27.5050   83.1860 C.3   1306  EPH1306     0.0000
     10  C22      -36.8790  -28.6350   82.9850 C.3   1306  EPH1306     0.0000
     11  C23      -35.4850  -28.2520   83.4810 C.3   1306  EPH1306     0.0000
     12  C24      -34.7220  -29.4560   84.0250 C.3   1306  EPH1306     0.0000
     13  C25      -33.5150  -29.8120   83.1580 C.3   1306  EPH1306     0.0000
     14  C26      -32.4640  -30.5980   83.9420 C.3   1306  EPH1306     0.0000
     15  C27      -32.6180  -32.1060   83.7510 C.3   1306  EPH1306     0.0000
     16  C28      -32.1630  -32.8750   84.9890 C.3   1306  EPH1306     0.0000
     17  C29      -33.3150  -33.6460   85.6290 C.3   1306  EPH1306     0.0000
     18  C30      -32.9370  -34.1660   87.0130 C.3   1306  EPH1306     0.0000
     19  C31      -34.1610  -34.4400   87.8610 C.3   1306  EPH1306     0.0000
     20  C37      -42.6220  -20.5050   83.7450 C.3   1306  EPH1306     0.1964
     21  O5       -44.0310  -20.7860   83.7460 O.3   1306  EPH1306    -0.3100
     22  C3       -42.5990  -21.5390   80.1210 C.2   1306  EPH1306     0.3171
     23  O1       -42.9500  -21.4640   81.5410 O.3   1306  EPH1306    -0.4457
     24  O3       -42.4280  -20.5140   79.4730 O.2   1306  EPH1306    -0.2501
     25  C5       -42.4710  -22.8900   79.4450 C.3   1306  EPH1306     0.1096
     26  C6       -43.8080  -23.6350   79.4460 C.3   1306  EPH1306     0.0116
     27  C7       -43.6620  -25.0650   79.9610 C.3   1306  EPH1306     0.0006
     28  C8       -43.3220  -26.0330   78.8330 C.3   1306  EPH1306     0.0000
     29  C9       -42.0480  -26.8110   79.1440 C.3   1306  EPH1306     0.0000
     30  C10      -40.9500  -26.5260   78.1240 C.3   1306  EPH1306     0.0000
     31  C11      -39.7740  -27.4850   78.2840 C.3   1306  EPH1306     0.0000
     32  C12      -38.5440  -26.9740   77.5450 C.3   1306  EPH1306     0.0000
     33  C13      -37.3610  -27.9180   77.7240 C.3   1306  EPH1306     0.0000
     34  C14      -36.1790  -27.2020   78.3680 C.3   1306  EPH1306     0.0000
     35  C15      -34.9650  -28.1180   78.4750 C.3   1306  EPH1306     0.0000
     36  C16      -34.2580  -27.9470   79.8140 C.3   1306  EPH1306     0.0000
     37  C17      -32.7780  -27.6920   79.6210 C.3   1306  EPH1306     0.0000
     38  P1       -44.8790  -21.1290   85.0830 P.3   1306  EPH1306     0.2141
     39  O6       -43.9490  -21.7720   86.0860 O.3   1306  EPH1306    -0.4373
     40  O7       -45.6530  -19.8930   85.4870 O.2   1306  EPH1306    -0.5172
     41  O8       -45.9220  -22.2660   84.5910 O.3   1306  EPH1306    -0.3125
     42  C38      -47.3370  -22.0640   84.5560 C.3   1306  EPH1306     0.1696
     43  C39      -47.9700  -22.5480   85.8540 C.3   1306  EPH1306     0.1417
     44  N1       -48.2850  -21.4080   86.6940 N.3   1306  EPH1306    -0.1286
@<TRIPOS>BOND
     1    32    33    1
     2    32    31    1
     3    33    34    1
     4    30    31    1
     5    30    29    1
     6    34    35    1
     7    35    36    1
     8    28    29    1
     9    28    27    1
    10    25    26    1
    11    25    22    1
    12    26    27    1
    13    24    22    2
    14    37    36    1
    15    22    23    1
    16     5     3    2
    17     3     4    1
    18     3     6    1
    19    23     2    1
    20     8     7    1
    21     8     9    1
    22     4     1    1
    23     6     7    1
    24     2     1    1
    25     2    20    1
    26    10     9    1
    27    10    11    1
    28    13    14    1
    29    13    12    1
    30    11    12    1
    31    20    21    1
    32    21    38    1
    33    15    14    1
    34    15    16    1
    35    42    41    1
    36    42    43    1
    37    41    38    1
    38    16    17    1
    39    38    40    2
    40    38    39    1
    41    17    18    1
    42    43    44    1
    43    18    19    1
