@<TRIPOS>MOLECULE
3aee_HEM_C_1.pdb
 43 50 0 0 0
SMALL
GASTEIGER

@<TRIPOS>ATOM
      1  CHA      -33.1780  -26.5100   64.7720 C.2   1305  HEM1305     0.0000
      2  CHB      -37.2200  -23.9780   65.4740 C.2   1305  HEM1305     0.0000
      3  CHC      -37.1790  -25.2460   70.1480 C.2   1305  HEM1305     0.0000
      4  CHD      -33.6100  -28.4120   69.2570 C.2   1305  HEM1305     0.0000
      5  C1A      -34.3030  -25.7600   64.5200 C.ar  1305  HEM1305     0.0000
      6  C2A      -34.7920  -25.3300   63.2160 C.ar  1305  HEM1305     0.0000
      7  C3A      -35.9200  -24.6320   63.4230 C.ar  1305  HEM1305     0.0000
      8  C4A      -36.1630  -24.5980   64.8520 C.ar  1305  HEM1305     0.0000
      9  CMA      -36.8290  -23.9660   62.3610 C.3   1305  HEM1305     0.0000
     10  CAA      -34.1250  -25.6550   61.8480 C.3   1305  HEM1305     0.0000
     11  CBA      -33.5820  -24.4130   61.1420 C.3   1305  HEM1305     0.0000
     12  CGA      -32.3330  -24.7610   60.3720 C.2   1305  HEM1305     0.0000
     13  O1A      -31.2290  -24.7850   60.9870 O.co2 1305  HEM1305     0.0000
     14  O2A      -32.4450  -25.0120   59.1400 O.co2 1305  HEM1305     0.0000
     15  C1B      -37.5360  -24.0610   66.8090 C.2   1305  HEM1305     0.0000
     16  C2B      -38.5890  -23.3200   67.4730 C.2   1305  HEM1305     0.0000
     17  C3B      -38.5690  -23.6690   68.7590 C.2   1305  HEM1305     0.0000
     18  C4B      -37.5130  -24.6400   68.9570 C.2   1305  HEM1305     0.0000
     19  CMB      -39.5540  -22.3080   66.8080 C.3   1305  HEM1305     0.0000
     20  CAB      -39.5200  -23.1420   69.8480 C.2   1305  HEM1305     0.0000
     21  CBB      -40.7720  -23.6050   69.8680 C.2   1305  HEM1305     0.0000
     22  C1C      -36.2870  -26.2850   70.3010 C.ar  1305  HEM1305     0.0000
     23  C2C      -36.1670  -27.1560   71.4580 C.ar  1305  HEM1305     0.0000
     24  C3C      -35.1780  -28.0310   71.2140 C.ar  1305  HEM1305     0.0000
     25  C4C      -34.6370  -27.7430   69.8910 C.ar  1305  HEM1305     0.0000
     26  CMC      -37.0280  -27.0820   72.7430 C.3   1305  HEM1305     0.0000
     27  CAC      -34.7010  -29.1550   72.1730 C.2   1305  HEM1305     0.0000
     28  CBC      -35.3690  -30.3150   72.2530 C.2   1305  HEM1305     0.0000
     29  C1D      -33.1430  -28.2070   67.9750 C.2   1305  HEM1305     0.0000
     30  C2D      -32.0580  -28.9310   67.3440 C.2   1305  HEM1305     0.0000
     31  C3D      -31.9270  -28.3290   65.9390 C.2   1305  HEM1305     0.0000
     32  C4D      -32.9470  -27.3130   65.8670 C.2   1305  HEM1305     0.0000
     33  CMD      -31.2070  -30.0730   67.9460 C.3   1305  HEM1305     0.0000
     34  CAD      -30.9310  -28.7220   64.8260 C.3   1305  HEM1305     0.0000
     35  CBD      -29.6200  -27.9610   64.9600 C.3   1305  HEM1305     0.0000
     36  CGD      -29.0800  -27.6540   63.5840 C.2   1305  HEM1305     0.0000
     37  O1D      -28.7460  -28.6000   62.8180 O.co2 1305  HEM1305     0.0000
     38  O2D      -28.9760  -26.4450   63.2480 O.co2 1305  HEM1305     0.0000
     39  NA       -35.1600  -25.2930   65.4940 N.ar  1305  HEM1305     0.0000
     40  NB       -36.9000  -24.8560   67.7410 N.2   1305  HEM1305     0.0000
     41  NC       -35.3410  -26.6740   69.3690 N.ar  1305  HEM1305     0.0000
     42  ND       -33.6360  -27.2750   67.0730 N.2   1305  HEM1305     0.0000
     43 FE        -35.3110  -26.0800   67.4240 Fe    1305  HEM1305     0.0000
@<TRIPOS>BOND
     1    14    12   ar
     2    12    13   ar
     3    12    11    1
     4    11    10    1
     5    10     6    1
     6     9     7    1
     7    37    36   ar
     8     6     7   ar
     9     6     5   ar
    10    38    36   ar
    11     7     8   ar
    12    36    35    1
    13     5     1    2
    14     5    39   ar
    15     1    32    1
    16    34    35    1
    17    34    31    1
    18     8     2    2
    19     8    39   ar
    20     2    15    1
    21    39    43    1
    22    32    31    1
    23    32    42    2
    24    31    30    2
    25    19    16    1
    26    15    16    1
    27    15    40    2
    28    42    43    1
    29    42    29    1
    30    30    33    1
    31    30    29    1
    32    43    40    1
    33    43    41    1
    34    16    17    2
    35    40    18    1
    36    29     4    2
    37    17    18    1
    38    17    20    1
    39    18     3    2
    40     4    25    1
    41    41    25   ar
    42    41    22   ar
    43    20    21    2
    44    25    24   ar
    45     3    22    1
    46    22    23   ar
    47    24    23   ar
    48    24    27    1
    49    23    26    1
    50    27    28    2
