@<TRIPOS>MOLECULE
3aee_AT5_C_1.pdb
 23 23 0 0 0
SMALL
GASTEIGER

@<TRIPOS>ATOM
      1  O5       -20.0430  -21.7570   61.2490 O.2   1201  AT51201    -0.2944
      2  C7       -20.0740  -22.9500   61.0170 C.2   1201  AT51201     0.1741
      3  C8       -18.7700  -23.6920   60.8740 C.3   1201  AT51201     0.0593
      4  C11      -18.0270  -24.0620   62.1670 C.3   1201  AT51201     0.0086
      5  C12      -18.6520  -23.7350   63.5210 C.3   1201  AT51201     0.0167
      6  C17      -17.5460  -23.4650   64.5440 C.3   1201  AT51201     0.0013
      7  C13      -19.5640  -24.8780   63.9670 C.3   1201  AT51201     0.0961
      8 CL12      -18.6080  -26.3860   64.0290 Cl    1201  AT51201    -0.1137
      9  C14      -20.2250  -24.6350   65.3220 C.3   1201  AT51201     0.1110
     10 CL16      -21.9920  -24.8750   65.1550 Cl    1201  AT51201    -0.1124
     11  C10      -17.8450  -22.8640   59.9870 C.3   1201  AT51201     0.0078
     12  C6       -21.4060  -23.6350   60.8110 C.3   1201  AT51201     0.2396
     13  C5       -22.6690  -22.8310   60.8410 C.1   1201  AT51201     0.1969
     14  N4       -23.8880  -23.3890   60.6560 N.2   1201  AT51201    -0.2949
     15  C3       -24.0690  -24.7100   60.4240 C.2   1201  AT51201     0.3259
     16  C2       -22.9060  -25.6330   60.3600 C.2   1201  AT51201     0.2419
     17  C1       -21.5320  -25.1020   60.5510 C.2   1201  AT51201     0.2359
     18  O1       -20.4600  -25.9510   60.4900 O.2   1201  AT51201    -0.2862
     19  O2       -23.1080  -26.9580   60.1100 O.2   1201  AT51201    -0.4636
     20  CM2      -23.1970  -27.3740   58.7470 C.3   1201  AT51201     0.2529
     21  O3       -25.3280  -25.2210   60.2360 O.2   1201  AT51201    -0.4450
     22  CM3      -26.4840  -24.5810   60.7700 C.3   1201  AT51201     0.2554
     23  O4       -22.6230  -21.4940   61.0690 O.2   1201  AT51201    -0.2132
@<TRIPOS>BOND
     1    20    19    1
     2    11     3    1
     3    19    16    1
     4    21    15    1
     5    21    22    1
     6    16    15    1
     7    16    17    2
     8    15    14    2
     9    18    17    1
    10    17    12    1
    11    14    13    2
    12    12    13    1
    13    12     2    1
    14    13    23    2
    15     3     2    1
    16     3     4    1
    17     2     1    2
    18     4     5    1
    19     5     7    1
    20     5     6    1
    21     7     8    1
    22     7     9    1
    23    10     9    1
