@<TRIPOS>MOLECULE
3aef_HEM_C_1.pdb
 43 50 0 0 0
SMALL
GASTEIGER

@<TRIPOS>ATOM
      1  CHA      -33.3090  -27.1590   64.7120 C.2   1305  HEM1305     0.0000
      2  CHB      -37.3910  -24.6770   65.4460 C.2   1305  HEM1305     0.0000
      3  CHC      -37.2500  -25.6950   70.1570 C.2   1305  HEM1305     0.0000
      4  CHD      -34.0520  -29.1480   69.0280 C.2   1305  HEM1305     0.0000
      5  C1A      -34.4360  -26.4060   64.4860 C.ar  1305  HEM1305     0.0000
      6  C2A      -34.8910  -25.8990   63.1960 C.ar  1305  HEM1305     0.0000
      7  C3A      -36.0230  -25.2040   63.4120 C.ar  1305  HEM1305     0.0000
      8  C4A      -36.3070  -25.2590   64.8340 C.ar  1305  HEM1305     0.0000
      9  CMA      -36.9050  -24.4770   62.3760 C.3   1305  HEM1305     0.0000
     10  CAA      -34.1760  -26.1350   61.8370 C.3   1305  HEM1305     0.0000
     11  CBA      -32.7880  -25.4880   61.8700 C.3   1305  HEM1305     0.0000
     12  CGA      -32.1190  -25.5010   60.5150 C.2   1305  HEM1305     0.0000
     13  O1A      -32.8200  -25.3480   59.4650 O.co2 1305  HEM1305     0.0000
     14  O2A      -30.8620  -25.6560   60.5070 O.co2 1305  HEM1305     0.0000
     15  C1B      -37.6620  -24.6560   66.7940 C.2   1305  HEM1305     0.0000
     16  C2B      -38.6340  -23.7910   67.4360 C.2   1305  HEM1305     0.0000
     17  C3B      -38.6000  -24.0690   68.7430 C.2   1305  HEM1305     0.0000
     18  C4B      -37.6090  -25.1100   68.9700 C.2   1305  HEM1305     0.0000
     19  CMB      -39.5370  -22.7550   66.7200 C.3   1305  HEM1305     0.0000
     20  CAB      -39.4730  -23.4010   69.8210 C.2   1305  HEM1305     0.0000
     21  CBB      -40.7280  -23.8340   69.9610 C.2   1305  HEM1305     0.0000
     22  C1C      -36.4120  -26.7870   70.2480 C.ar  1305  HEM1305     0.0000
     23  C2C      -36.1830  -27.6300   71.4230 C.ar  1305  HEM1305     0.0000
     24  C3C      -35.2940  -28.5750   71.0670 C.ar  1305  HEM1305     0.0000
     25  C4C      -34.9420  -28.3560   69.6890 C.ar  1305  HEM1305     0.0000
     26  CMC      -36.8370  -27.4710   72.8140 C.3   1305  HEM1305     0.0000
     27  CAC      -34.6800  -29.7300   71.8950 C.2   1305  HEM1305     0.0000
     28  CBC      -35.3610  -30.3060   72.8870 C.2   1305  HEM1305     0.0000
     29  C1D      -33.4670  -28.8990   67.8280 C.2   1305  HEM1305     0.0000
     30  C2D      -32.3000  -29.5680   67.3160 C.2   1305  HEM1305     0.0000
     31  C3D      -32.0560  -28.9330   65.9480 C.2   1305  HEM1305     0.0000
     32  C4D      -33.1130  -27.9670   65.7970 C.2   1305  HEM1305     0.0000
     33  CMD      -31.4750  -30.6840   68.0000 C.3   1305  HEM1305     0.0000
     34  CAD      -30.9270  -29.2900   64.9580 C.3   1305  HEM1305     0.0000
     35  CBD      -29.8210  -28.2530   64.9780 C.3   1305  HEM1305     0.0000
     36  CGD      -29.4710  -27.9830   63.5470 C.2   1305  HEM1305     0.0000
     37  O1D      -29.8870  -28.8050   62.6740 O.co2 1305  HEM1305     0.0000
     38  O2D      -28.7940  -26.9410   63.2860 O.co2 1305  HEM1305     0.0000
     39  NA       -35.3240  -26.0000   65.4630 N.ar  1305  HEM1305     0.0000
     40  NB       -37.0540  -25.4450   67.7550 N.2   1305  HEM1305     0.0000
     41  NC       -35.6310  -27.2660   69.2080 N.ar  1305  HEM1305     0.0000
     42  ND       -33.9120  -27.9670   66.9290 N.2   1305  HEM1305     0.0000
     43 FE        -35.4910  -26.6740   67.3840 Fe    1305  HEM1305     0.0000
@<TRIPOS>BOND
     1    13    12   ar
     2    14    12   ar
     3    12    11    1
     4    10    11    1
     5    10     6    1
     6     9     7    1
     7    37    36   ar
     8     6     7   ar
     9     6     5   ar
    10    38    36   ar
    11     7     8   ar
    12    36    35    1
    13     5     1    2
    14     5    39   ar
    15     1    32    1
    16     8     2    2
    17     8    39   ar
    18    34    35    1
    19    34    31    1
    20     2    15    1
    21    39    43    1
    22    32    31    1
    23    32    42    2
    24    31    30    2
    25    19    16    1
    26    15    16    1
    27    15    40    2
    28    42    43    1
    29    42    29    1
    30    30    29    1
    31    30    33    1
    32    43    40    1
    33    43    41    1
    34    16    17    2
    35    40    18    1
    36    29     4    2
    37    17    18    1
    38    17    20    1
    39    18     3    2
    40     4    25    1
    41    41    25   ar
    42    41    22   ar
    43    25    24   ar
    44    20    21    2
    45     3    22    1
    46    22    23   ar
    47    24    23   ar
    48    24    27    1
    49    23    26    1
    50    27    28    2
