@<TRIPOS>MOLECULE
3aef_EPH_D_1.pdb
 44 43 0 0 0
SMALL
GASTEIGER

@<TRIPOS>ATOM
      1  C1       -45.2280  -20.8070   84.6700 C.3   1306  EPH1306     0.2543
      2  C2       -45.8020  -22.1230   85.1590 C.3   1306  EPH1306     0.2420
      3  C4       -42.7790  -20.8790   84.3050 C.2   1306  EPH1306     0.3171
      4  O2       -44.1270  -21.0790   83.8100 O.3   1306  EPH1306    -0.4444
      5  O4       -42.5970  -21.0630   85.4970 O.2   1306  EPH1306    -0.2501
      6  C18      -41.6530  -20.4520   83.3800 C.3   1306  EPH1306     0.1096
      7  C19      -41.6960  -21.2230   82.0630 C.3   1306  EPH1306     0.0116
      8  C20      -40.3370  -21.2340   81.3720 C.3   1306  EPH1306     0.0006
      9  C21      -40.1190  -22.5160   80.5700 C.3   1306  EPH1306     0.0000
     10  C22      -38.7360  -23.1130   80.8220 C.3   1306  EPH1306     0.0000
     11  C23      -38.7890  -24.6340   80.9220 C.3   1306  EPH1306     0.0000
     12  C24      -37.5970  -25.1670   81.7090 C.3   1306  EPH1306     0.0000
     13  C25      -37.9320  -26.4470   82.4770 C.3   1306  EPH1306     0.0000
     14  C26      -37.2230  -27.6590   81.8680 C.3   1306  EPH1306     0.0000
     15  C27      -37.1810  -28.8660   82.8100 C.3   1306  EPH1306     0.0000
     16  C28      -38.2040  -29.9340   82.4220 C.3   1306  EPH1306     0.0000
     17  C29      -37.6950  -30.8120   81.2810 C.3   1306  EPH1306     0.0000
     18  C30      -38.6330  -30.7770   80.0800 C.3   1306  EPH1306     0.0000
     19  C31      -38.2830  -31.8590   79.0810 C.3   1306  EPH1306     0.0000
     20  C37      -46.1770  -21.9420   86.6260 C.3   1306  EPH1306     0.1964
     21  O5       -47.5930  -21.9560   86.8000 O.3   1306  EPH1306    -0.3100
     22  C3       -46.7970  -23.7470   83.6460 C.2   1306  EPH1306     0.3171
     23  O1       -46.9270  -22.4670   84.3470 O.3   1306  EPH1306    -0.4457
     24  O3       -47.7480  -24.5130   83.6910 O.2   1306  EPH1306    -0.2501
     25  C5       -45.5310  -24.1300   82.8890 C.3   1306  EPH1306     0.1096
     26  C6       -45.8010  -24.6720   81.4850 C.3   1306  EPH1306     0.0116
     27  C7       -44.6460  -24.3320   80.5440 C.3   1306  EPH1306     0.0006
     28  C8       -44.3640  -25.4340   79.5230 C.3   1306  EPH1306     0.0000
     29  C9       -42.9780  -25.2820   78.8960 C.3   1306  EPH1306     0.0000
     30  C10      -42.1410  -26.5590   78.9730 C.3   1306  EPH1306     0.0000
     31  C11      -41.2040  -26.6810   77.7700 C.3   1306  EPH1306     0.0000
     32  C12      -39.9850  -27.5560   78.0580 C.3   1306  EPH1306     0.0000
     33  C13      -38.7530  -27.1000   77.2760 C.3   1306  EPH1306     0.0000
     34  C14      -37.6180  -28.1230   77.3450 C.3   1306  EPH1306     0.0000
     35  C15      -36.2430  -27.4720   77.5000 C.3   1306  EPH1306     0.0000
     36  C16      -35.2880  -28.3400   78.3240 C.3   1306  EPH1306     0.0000
     37  C17      -34.1330  -27.5310   78.8900 C.3   1306  EPH1306     0.0000
     38  P1       -48.4810  -20.6030   86.8560 P.3   1306  EPH1306     0.2141
     39  O6       -47.7260  -19.4150   86.2840 O.3   1306  EPH1306    -0.4373
     40  O7       -49.8140  -20.9720   86.2310 O.2   1306  EPH1306    -0.5172
     41  O8       -48.6570  -20.3590   88.4570 O.3   1306  EPH1306    -0.3125
     42  C38      -47.6640  -19.7270   89.2740 C.3   1306  EPH1306     0.1696
     43  C39      -48.3030  -18.6420   90.1350 C.3   1306  EPH1306     0.1417
     44  N1       -48.5410  -17.4640   89.3210 N.3   1306  EPH1306    -0.1286
@<TRIPOS>BOND
     1    33    34    1
     2    33    32    1
     3    34    35    1
     4    35    36    1
     5    31    32    1
     6    31    30    1
     7    36    37    1
     8    29    30    1
     9    29    28    1
    10    19    18    1
    11    28    27    1
    12    18    17    1
    13    27    26    1
    14     9    10    1
    15     9     8    1
    16    10    11    1
    17    11    12    1
    18    17    16    1
    19     8     7    1
    20    26    25    1
    21    12    13    1
    22    14    13    1
    23    14    15    1
    24     7     6    1
    25    16    15    1
    26    25    22    1
    27     6     3    1
    28    22    24    2
    29    22    23    1
    30     4     3    1
    31     4     1    1
    32     3     5    2
    33    23     2    1
    34     1     2    1
    35     2    20    1
    36    40    38    2
    37    39    38    1
    38    20    21    1
    39    21    38    1
    40    38    41    1
    41    41    42    1
    42    42    43    1
    43    44    43    1
