@<TRIPOS>MOLECULE
3aeg_11J_C_1.pdb
 22 24 0 0 0
SMALL
GASTEIGER

@<TRIPOS>ATOM
      1  I        -23.6170  -27.7060   58.5470 I     1201  11J1201    -0.0424
      2  N        -21.3800  -24.4430   60.7210 N.am  1201  11J1201    -0.1754
      3  O        -21.5240  -26.6970   60.6960 O.2   1201  11J1201    -0.2680
      4  C1       -24.4250  -26.3630   59.9360 C.ar  1201  11J1201     0.0345
      5  C2       -23.5580  -25.5240   60.8170 C.ar  1201  11J1201     0.0607
      6  C3       -24.1670  -24.6470   61.7170 C.ar  1201  11J1201     0.0050
      7  C4       -25.5590  -24.5660   61.7850 C.ar  1201  11J1201     0.0002
      8  C5       -26.3680  -25.3520   60.9640 C.ar  1201  11J1201     0.0004
      9  C6       -25.8100  -26.2420   60.0460 C.ar  1201  11J1201     0.0059
     10  C7       -22.0580  -25.5990   60.7460 C.2   1201  11J1201     0.2694
     11  C8       -20.1160  -24.2390   61.1740 C.ar  1201  11J1201     0.0737
     12  C9       -19.4750  -23.0410   60.8390 C.ar  1201  11J1201     0.0166
     13  C10      -18.1730  -22.7800   61.2800 C.ar  1201  11J1201     0.0013
     14  C11      -17.5150  -23.7300   62.0650 C.ar  1201  11J1201     0.0001
     15  C12      -18.1480  -24.9250   62.4060 C.ar  1201  11J1201     0.0013
     16  C13      -19.4460  -25.1780   61.9630 C.ar  1201  11J1201     0.0166
     17  C14      -17.4830  -21.5030   60.9210 C.ar  1201  11J1201     0.0000
     18  C15      -16.8480  -20.7410   61.9060 C.ar  1201  11J1201     0.0000
     19  C16      -16.2010  -19.5490   61.5710 C.ar  1201  11J1201     0.0000
     20  C17      -16.1840  -19.1120   60.2460 C.ar  1201  11J1201     0.0000
     21  C18      -16.8140  -19.8690   59.2580 C.ar  1201  11J1201     0.0000
     22  C19      -17.4590  -21.0610   59.5950 C.ar  1201  11J1201     0.0000
@<TRIPOS>BOND
     1     1     4    1
     2    21    22   ar
     3    21    20   ar
     4    22    17   ar
     5     4     9   ar
     6     4     5   ar
     7     9     8   ar
     8    20    19   ar
     9     3    10    2
    10     2    10   am
    11     2    11    1
    12    10     5    1
    13     5     6   ar
    14    12    11   ar
    15    12    13   ar
    16    17    13    1
    17    17    18   ar
    18     8     7   ar
    19    11    16   ar
    20    13    14   ar
    21    19    18   ar
    22     6     7   ar
    23    16    15   ar
    24    14    15   ar
