@<TRIPOS>MOLECULE
3aeg_HEM_C_1.pdb
 43 50 0 0 0
SMALL
GASTEIGER

@<TRIPOS>ATOM
      1  CHA      -33.7440  -27.3040   65.0980 C.2   1305  HEM1305     0.0000
      2  CHB      -37.6090  -24.5030   65.8650 C.2   1305  HEM1305     0.0000
      3  CHC      -37.8620  -26.1070   70.4460 C.2   1305  HEM1305     0.0000
      4  CHD      -34.3100  -29.2940   69.5390 C.2   1305  HEM1305     0.0000
      5  C1A      -34.8420  -26.5110   64.8550 C.ar  1305  HEM1305     0.0000
      6  C2A      -35.3790  -26.1200   63.5570 C.ar  1305  HEM1305     0.0000
      7  C3A      -36.4500  -25.3460   63.7810 C.ar  1305  HEM1305     0.0000
      8  C4A      -36.6220  -25.2160   65.2170 C.ar  1305  HEM1305     0.0000
      9  CMA      -37.3530  -24.6960   62.7040 C.3   1305  HEM1305     0.0000
     10  CAA      -34.8470  -26.5200   62.1500 C.3   1305  HEM1305     0.0000
     11  CBA      -33.3210  -26.5180   62.0560 C.3   1305  HEM1305     0.0000
     12  CGA      -32.8460  -25.7250   60.8640 C.2   1305  HEM1305     0.0000
     13  O1A      -33.1170  -26.1410   59.7050 O.co2 1305  HEM1305     0.0000
     14  O2A      -32.1830  -24.6770   61.0820 O.co2 1305  HEM1305     0.0000
     15  C1B      -37.9970  -24.6510   67.1820 C.2   1305  HEM1305     0.0000
     16  C2B      -39.0280  -23.8930   67.8690 C.2   1305  HEM1305     0.0000
     17  C3B      -39.0920  -24.3380   69.1290 C.2   1305  HEM1305     0.0000
     18  C4B      -38.1090  -25.3920   69.2920 C.2   1305  HEM1305     0.0000
     19  CMB      -39.8960  -22.7700   67.2480 C.3   1305  HEM1305     0.0000
     20  CAB      -40.0470  -23.8240   70.2320 C.2   1305  HEM1305     0.0000
     21  CBB      -41.2320  -24.4110   70.4160 C.2   1305  HEM1305     0.0000
     22  C1C      -36.9400  -27.1220   70.6100 C.ar  1305  HEM1305     0.0000
     23  C2C      -36.7170  -27.9040   71.8140 C.ar  1305  HEM1305     0.0000
     24  C3C      -35.7370  -28.7810   71.5610 C.ar  1305  HEM1305     0.0000
     25  C4C      -35.3010  -28.5890   70.1900 C.ar  1305  HEM1305     0.0000
     26  CMC      -37.4830  -27.7430   73.1500 C.3   1305  HEM1305     0.0000
     27  CAC      -35.1590  -29.8210   72.5490 C.2   1305  HEM1305     0.0000
     28  CBC      -35.7550  -31.0080   72.6930 C.2   1305  HEM1305     0.0000
     29  C1D      -33.7800  -29.0370   68.2880 C.2   1305  HEM1305     0.0000
     30  C2D      -32.6160  -29.6820   67.7180 C.2   1305  HEM1305     0.0000
     31  C3D      -32.4290  -29.0610   66.3270 C.2   1305  HEM1305     0.0000
     32  C4D      -33.5100  -28.1050   66.1970 C.2   1305  HEM1305     0.0000
     33  CMD      -31.7360  -30.7730   68.3680 C.3   1305  HEM1305     0.0000
     34  CAD      -31.3220  -29.4140   65.3010 C.3   1305  HEM1305     0.0000
     35  CBD      -30.5050  -28.1950   64.8790 C.3   1305  HEM1305     0.0000
     36  CGD      -30.3850  -28.1250   63.3730 C.2   1305  HEM1305     0.0000
     37  O1D      -31.0220  -28.9390   62.6490 O.co2 1305  HEM1305     0.0000
     38  O2D      -29.6370  -27.2400   62.8830 O.co2 1305  HEM1305     0.0000
     39  NA       -35.6230  -25.9400   65.8400 N.ar  1305  HEM1305     0.0000
     40  NB       -37.4600  -25.5520   68.0830 N.2   1305  HEM1305     0.0000
     41  NC       -36.0570  -27.5710   69.6450 N.ar  1305  HEM1305     0.0000
     42  ND       -34.2690  -28.1210   67.3640 N.2   1305  HEM1305     0.0000
     43 FE        -35.8800  -26.8310   67.7190 Fe    1305  HEM1305     0.0000
@<TRIPOS>BOND
     1    13    12   ar
     2    12    14   ar
     3    12    11    1
     4    11    10    1
     5    10     6    1
     6    37    36   ar
     7     9     7    1
     8    38    36   ar
     9    36    35    1
    10     6     7   ar
    11     6     5   ar
    12     7     8   ar
    13     5     1    2
    14     5    39   ar
    15    35    34    1
    16     1    32    1
    17     8    39   ar
    18     8     2    2
    19    34    31    1
    20    39    43    1
    21     2    15    1
    22    32    31    1
    23    32    42    2
    24    31    30    2
    25    15    16    1
    26    15    40    2
    27    19    16    1
    28    42    43    1
    29    42    29    1
    30    30    29    1
    31    30    33    1
    32    43    40    1
    33    43    41    1
    34    16    17    2
    35    40    18    1
    36    29     4    2
    37    17    18    1
    38    17    20    1
    39    18     3    2
    40     4    25    1
    41    41    25   ar
    42    41    22   ar
    43    25    24   ar
    44    20    21    2
    45     3    22    1
    46    22    23   ar
    47    24    23   ar
    48    24    27    1
    49    23    26    1
    50    27    28    2
