@<TRIPOS>MOLECULE
3aej_AA5_A_1.pdb
 24 24 0 0 0
SMALL
GASTEIGER

@<TRIPOS>ATOM
      1  N         -3.1290   13.3170   44.3290 N.2   2001  AA52001    -0.2593
      2  CA        -1.8950   14.0980   44.2380 C.3   2001  AA52001     0.2065
      3  C         -1.8720   15.1490   45.3240 C.2   2001  AA52001     0.3866
      4  O1        -0.7860   15.6440   45.6700 O.co2 2001  AA52001    -0.2435
      5  CB        -1.8390   14.6510   42.8050 C.3   2001  AA52001     0.0476
      6  CG        -1.6420   16.1630   42.6890 C.3   2001  AA52001     0.0602
      7  SD        -2.1550   16.7410   41.1010 S.3   2001  AA52001    -0.1392
      8  CE        -3.3810   17.8630   41.6910 C.3   2001  AA52001     0.0692
      9  O2        -2.9390   15.4960   45.8700 O.co2 2001  AA52001    -0.2435
     10  C2        -6.0960   10.2790   46.3230 C.ar  2001  AA52001     0.0981
     11  C2A       -6.7090   10.0730   47.6820 C.3   2001  AA52001     0.0555
     12  C3        -4.8710   11.1070   46.1690 C.ar  2001  AA52001     0.2103
     13  C4        -4.3180   11.2770   44.8020 C.ar  2001  AA52001     0.0587
     14  C4A       -3.0930   12.1000   44.6600 C.2   2001  AA52001     0.0967
     15  C5        -4.9730   10.6440   43.7480 C.ar  2001  AA52001     0.0316
     16  C5A       -4.4730   10.7730   42.3280 C.3   2001  AA52001     0.1819
     17  C6        -6.1240    9.8840   43.9910 C.ar  2001  AA52001     0.0968
     18  N1        -6.6500    9.7160   45.2210 N.ar  2001  AA52001    -0.2452
     19  O1P       -2.3830   10.6950   40.4960 O.3   2001  AA52001    -0.1145
     20  O2P       -4.2690    9.4700   39.3430 O.2   2001  AA52001    -0.2224
     21  O3        -4.2670   11.7000   47.2420 O.3   2001  AA52001    -0.2853
     22  O3P       -2.4530    8.1670   40.5410 O.3   2001  AA52001    -0.1145
     23  O4P       -4.0980    9.5070   41.7930 O.3   2001  AA52001    -0.2653
     24  P         -3.2320    9.4520   40.4390 P.3   2001  AA52001     0.5329
@<TRIPOS>BOND
     1    20    24    2
     2    24    19    1
     3    24    22    1
     4    24    23    1
     5     7     8    1
     6     7     6    1
     7    23    16    1
     8    16    15    1
     9     6     5    1
    10     5     2    1
    11    15    17   ar
    12    15    13   ar
    13    17    18   ar
    14     2     1    1
    15     2     3    1
    16     1    14    2
    17    14    13    1
    18    13    12   ar
    19    18    10   ar
    20     3     4   ar
    21     3     9   ar
    22    12    10   ar
    23    12    21    1
    24    10    11    1
