@<TRIPOS>MOLECULE
3aek_PMR_B_1.pdb
 45 51 0 0 0
SMALL
GASTEIGER

@<TRIPOS>ATOM
      1 MG         22.9790   50.9120  146.0700 Mg    526  PMR526      0.0000
      2  CBB       17.3330   52.6160  145.0160 C.3   526  PMR526      0.0000
      3  CAB       18.3460   53.5750  144.9720 C.3   526  PMR526      0.0000
      4  C3B       19.7010   53.2230  144.9780 C.ar  526  PMR526      0.0000
      5  C2B       20.6870   53.8350  144.2630 C.ar  526  PMR526      0.0000
      6  CMB       20.5490   55.0120  143.2890 C.3   526  PMR526      0.0000
      7  C1B       21.8640   53.1880  144.5710 C.ar  526  PMR526      0.0000
      8  CHB       23.0890   53.5010  144.0460 C.2   526  PMR526      0.0000
      9  NB        21.6540   52.1890  145.4600 N.ar  526  PMR526      0.0000
     10  C4B       20.3190   52.2170  145.7120 C.ar  526  PMR526      0.0000
     11  CHC       19.7180   51.3500  146.5920 C.2   526  PMR526      0.0000
     12  C1C       20.2920   50.2270  147.1480 C.2   526  PMR526      0.0000
     13  NC        21.6100   49.9070  147.0360 N.2   526  PMR526      0.0000
     14  C2C       19.6110   49.2790  147.8990 C.2   526  PMR526      0.0000
     15  CMC       18.1040   49.2890  148.2310 C.3   526  PMR526      0.0000
     16  C3C       20.5050   48.3180  148.2780 C.2   526  PMR526      0.0000
     17  CAC       20.2810   47.0410  149.1220 C.3   526  PMR526      0.0000
     18  CBC       18.8260   46.5750  149.2550 C.3   526  PMR526      0.0000
     19  C4C       21.7170   48.7430  147.7420 C.1   526  PMR526      0.0000
     20  CHD       22.9000   48.0580  147.8960 C.2   526  PMR526      0.0000
     21  C1D       24.1310   48.5950  147.6280 C.ar  526  PMR526      0.0000
     22  C2D       25.3690   48.1220  148.0500 C.ar  526  PMR526      0.0000
     23  CMD       25.6400   46.8880  148.9340 C.3   526  PMR526      0.0000
     24  ND        24.2610   49.7000  146.8630 N.ar  526  PMR526      0.0000
     25  C4D       25.5900   49.8850  146.8350 C.ar  526  PMR526      0.0000
     26  C3D       26.3260   48.9500  147.5370 C.ar  526  PMR526      0.0000
     27  CAD       27.6770   49.2480  147.4240 C.2   526  PMR526      0.0000
     28  OAD       28.6020   48.5980  147.9080 O.2   526  PMR526      0.0000
     29  CBD       27.8400   50.4970  146.5780 C.3   526  PMR526      0.0000
     30  CGD       28.5750   51.5950  147.3650 C.2   526  PMR526      0.0000
     31  O1D       29.7420   51.8640  147.0770 O.2   526  PMR526      0.0000
     32  O2D       27.9440   52.2540  148.3760 O.3   526  PMR526      0.0000
     33  C2O       28.7760   53.2110  149.0510 C.3   526  PMR526      0.0000
     34  CHA       26.3750   50.8400  146.2150 C.2   526  PMR526      0.0000
     35  C1A       25.8080   51.7890  145.3830 C.1   526  PMR526      0.0000
     36  NA        24.4530   51.9820  145.3480 N.2   526  PMR526      0.0000
     37  C4A       24.2930   52.9620  144.4200 C.2   526  PMR526      0.0000
     38  C3A       25.5020   53.3470  143.8760 C.2   526  PMR526      0.0000
     39  CMA       25.6820   54.4210  142.7870 C.3   526  PMR526      0.0000
     40  C2A       26.4820   52.6070  144.4650 C.2   526  PMR526      0.0000
     41  CAA       27.9930   52.7060  144.1670 C.3   526  PMR526      0.0000
     42  CBA       28.3620   52.0840  142.8050 C.3   526  PMR526      0.0000
     43  CGA       28.1570   50.5580  142.7780 C.2   526  PMR526      0.0000
     44  O1A       27.3230   50.1280  141.9570 O.co2 526  PMR526      0.0000
     45  O2A       28.8290   49.8530  143.5650 O.co2 526  PMR526      0.0000
@<TRIPOS>BOND
     1    44    43   ar
     2    43    42    1
     3    43    45   ar
     4    39    38    1
     5    42    41    1
     6     6     5    1
     7    38    37    1
     8    38    40    2
     9     8    37    1
    10     8     7    2
    11    41    40    1
    12     5     7   ar
    13     5     4   ar
    14    37    36    2
    15    40    35    1
    16     7     9   ar
    17     3     4    1
    18     3     2    1
    19     4    10   ar
    20    36    35    2
    21    35    34    2
    22     9    10   ar
    23     9     1    1
    24    10    11    2
    25     1    24    1
    26    34    29    1
    27    34    25    1
    28    29    30    1
    29    29    27    1
    30    11    12    1
    31    25    24   ar
    32    25    26   ar
    33    24    21   ar
    34    13    12    2
    35    13    19    2
    36    31    30    2
    37    12    14    1
    38    30    32    1
    39    27    26    1
    40    27    28    2
    41    26    22   ar
    42    21    20    1
    43    21    22   ar
    44    19    20    2
    45    19    16    1
    46    14    15    1
    47    14    16    2
    48    22    23    1
    49    16    17    1
    50    32    33    1
    51    17    18    1
