@<TRIPOS>MOLECULE
3ael_2LM_B_1.pdb
 24 24 0 0 0
SMALL
GASTEIGER

@<TRIPOS>ATOM
      1  C         32.7680    7.0020   17.2660 C.2   2003  2LM2003     0.3866
      2  N         33.0280    4.7120   18.0140 N.2   2003  2LM2003    -0.2593
      3  O1        32.0300    7.9930   17.2250 O.co2 2003  2LM2003    -0.2435
      4  P         31.5090    1.4320   22.2360 P.3   2003  2LM2003     0.5329
      5  N1        34.7100    0.0240   17.1500 N.ar  2003  2LM2003    -0.2452
      6  C2        34.4830    1.0520   16.2950 C.ar  2003  2LM2003     0.0981
      7  C3        33.9320    2.2110   16.8170 C.ar  2003  2LM2003     0.2103
      8  O3        33.6930    3.2380   15.9640 O.3   2003  2LM2003    -0.2853
      9  C4        33.5930    2.3360   18.1910 C.ar  2003  2LM2003     0.0587
     10  C5        33.9000    1.2800   19.0530 C.ar  2003  2LM2003     0.0316
     11  C6        34.4470    0.1060   18.5000 C.ar  2003  2LM2003     0.0968
     12  CA        32.6550    5.9850   18.3530 C.3   2003  2LM2003     0.2065
     13  CB        32.2190    6.3490   19.7840 C.3   2003  2LM2003     0.0476
     14  SD        33.4590    8.4640   21.3000 S.3   2003  2LM2003    -0.1392
     15  CE        35.0790    9.0170   20.8560 C.3   2003  2LM2003     0.0692
     16  CG        32.3110    7.8700   20.0610 C.3   2003  2LM2003     0.0602
     17  C2A       34.8000    0.9490   14.7880 C.3   2003  2LM2003     0.0555
     18  C4A       33.0720    3.6390   18.7320 C.2   2003  2LM2003     0.0967
     19  C5A       33.5930    1.3420   20.5700 C.3   2003  2LM2003     0.1819
     20  OP1       30.1640    0.7890   22.0770 O.2   2003  2LM2003    -0.2224
     21  OP2       31.5650    2.9110   22.1250 O.3   2003  2LM2003    -0.1145
     22  OP3       32.4410    0.9630   23.3170 O.3   2003  2LM2003    -0.1145
     23  OP4       32.2530    0.9040   20.8380 O.3   2003  2LM2003    -0.2653
     24  O2        33.6650    6.8730   16.3820 O.co2 2003  2LM2003    -0.2435
@<TRIPOS>BOND
     1    17     6    1
     2     8     7    1
     3     6     7   ar
     4     6     5   ar
     5    24     1   ar
     6     7     9   ar
     7     5    11   ar
     8     3     1   ar
     9     1    12    1
    10     2    12    1
    11     2    18    2
    12     9    18    1
    13     9    10   ar
    14    12    13    1
    15    11    10   ar
    16    10    19    1
    17    13    16    1
    18    16    14    1
    19    19    23    1
    20    23     4    1
    21    15    14    1
    22    20     4    2
    23    21     4    1
    24     4    22    1
