@<TRIPOS>MOLECULE
3ael_4LM_A_1.pdb
 22 22 0 0 0
SMALL
GASTEIGER

@<TRIPOS>ATOM
      1  C         -2.0350   15.0380   45.6570 C.2   2001  4LM2001     0.4048
      2  N         -3.2210   12.9890   44.9830 N.2   2001  4LM2001    -0.2374
      3  O1        -0.9670   15.5740   45.6580 O.co2 2001  4LM2001    -0.2389
      4  P         -3.3160    9.3420   40.7450 P.3   2001  4LM2001     0.5329
      5  N1        -6.7790    9.4780   45.7630 N.ar  2001  4LM2001    -0.2452
      6  C2        -6.0630   10.2300   46.6170 C.ar  2001  4LM2001     0.0981
      7  C3        -5.0220   11.0180   46.1450 C.ar  2001  4LM2001     0.2103
      8  O3        -4.3410   11.7480   47.0540 O.3   2001  4LM2001    -0.2853
      9  C4        -4.6500   11.0260   44.8000 C.ar  2001  4LM2001     0.0591
     10  C5        -5.4310   10.2620   43.9400 C.ar  2001  4LM2001     0.0316
     11  C6        -6.4720    9.4900   44.4590 C.ar  2001  4LM2001     0.0968
     12  CA        -2.3110   13.9650   44.6650 C.2   2001  4LM2001     0.1565
     13  CB        -1.7490   13.9000   43.4330 C.2   2001  4LM2001     0.0000
     14  CG        -0.7260   14.8720   42.8830 C.3   2001  4LM2001     0.0325
     15  C2A       -6.3710   10.2510   48.0940 C.3   2001  4LM2001     0.0555
     16  C4A       -3.5840   11.9500   44.2880 C.2   2001  4LM2001     0.1021
     17  C5A       -5.1820   10.2090   42.4430 C.3   2001  4LM2001     0.1819
     18  OP1       -2.3980    8.1530   40.8280 O.3   2001  4LM2001    -0.1145
     19  OP2       -2.6170   10.6610   40.9030 O.3   2001  4LM2001    -0.1145
     20  OP3       -4.2930    9.2850   39.6250 O.2   2001  4LM2001    -0.2224
     21  OP4       -4.1720    9.2370   42.1390 O.3   2001  4LM2001    -0.2653
     22  O2        -2.8880   15.3850   46.5060 O.co2 2001  4LM2001    -0.2389
@<TRIPOS>BOND
     1    20     4    2
     2     4    18    1
     3     4    19    1
     4     4    21    1
     5    21    17    1
     6    17    10    1
     7    14    13    1
     8    13    12    2
     9    10    11   ar
    10    10     9   ar
    11    16     9    1
    12    16     2    2
    13    11     5   ar
    14    12     2    1
    15    12     1    1
    16     9     7   ar
    17     1     3   ar
    18     1    22   ar
    19     5     6   ar
    20     7     6   ar
    21     7     8    1
    22     6    15    1
