@<TRIPOS>MOLECULE
3aem_2LM_A_1.pdb
 24 24 0 0 0
SMALL
GASTEIGER

@<TRIPOS>ATOM
      1  C         -1.9180   15.0320   45.5910 C.2   2001  2LM2001     0.3866
      2  N         -3.0500   13.0000   44.8380 N.2   2001  2LM2001    -0.2593
      3  O1        -0.8560   15.5800   45.6990 O.co2 2001  2LM2001    -0.2435
      4  P         -3.2390    9.3350   40.8180 P.3   2001  2LM2001     0.5329
      5  N1        -6.7400    9.4700   45.7670 N.ar  2001  2LM2001    -0.2452
      6  C2        -6.0110   10.1990   46.6430 C.ar  2001  2LM2001     0.0981
      7  C3        -4.9300   10.9780   46.1820 C.ar  2001  2LM2001     0.2103
      8  O3        -4.2440   11.7020   47.1010 O.3   2001  2LM2001    -0.2853
      9  C4        -4.5240   10.9850   44.8320 C.ar  2001  2LM2001     0.0587
     10  C5        -5.3420   10.2580   43.9740 C.ar  2001  2LM2001     0.0316
     11  C6        -6.4050    9.4930   44.4760 C.ar  2001  2LM2001     0.0968
     12  CA        -2.1630   14.0500   44.5090 C.3   2001  2LM2001     0.2065
     13  CB        -1.5190   14.3040   43.1340 C.3   2001  2LM2001     0.0476
     14  SD        -2.0540   16.9070   41.6900 S.3   2001  2LM2001    -0.1392
     15  CE        -3.5610   17.7830   42.0080 C.3   2001  2LM2001     0.0692
     16  CG        -1.4290   15.8740   43.0270 C.3   2001  2LM2001     0.0602
     17  C2A       -6.3860   10.1580   48.1130 C.3   2001  2LM2001     0.0555
     18  C4A       -3.4840   11.9040   44.2390 C.2   2001  2LM2001     0.0967
     19  C5A       -5.1160   10.2110   42.4920 C.3   2001  2LM2001     0.1819
     20  OP1       -2.3370    8.1260   40.8890 O.3   2001  2LM2001    -0.1145
     21  OP2       -2.4850   10.6270   41.0490 O.3   2001  2LM2001    -0.1145
     22  OP3       -4.1900    9.3430   39.6720 O.2   2001  2LM2001    -0.2224
     23  OP4       -4.1180    9.2460   42.1830 O.3   2001  2LM2001    -0.2653
     24  O2        -2.7530   15.3100   46.4600 O.co2 2001  2LM2001    -0.2435
@<TRIPOS>BOND
     1    22     4    2
     2     4    20    1
     3     4    21    1
     4     4    23    1
     5    14    15    1
     6    14    16    1
     7    23    19    1
     8    19    10    1
     9    16    13    1
    10    13    12    1
    11    10    11   ar
    12    10     9   ar
    13    18     9    1
    14    18     2    2
    15    11     5   ar
    16    12     2    1
    17    12     1    1
    18     9     7   ar
    19     1     3   ar
    20     1    24   ar
    21     5     6   ar
    22     7     6   ar
    23     7     8    1
    24     6    17    1
