@<TRIPOS>MOLECULE
3aen_4LM_B_1.pdb
 22 22 0 0 0
SMALL
GASTEIGER

@<TRIPOS>ATOM
      1  C         32.8470    7.0950   17.3990 C.2   2002  4LM2002     0.4048
      2  N         33.1010    4.7780   18.0560 N.2   2002  4LM2002    -0.2374
      3  O1        33.7790    6.9730   16.5480 O.co2 2002  4LM2002    -0.2389
      4  P         31.5980    1.4750   22.3180 P.3   2002  4LM2002     0.5329
      5  N1        34.7650    0.1060   17.3270 N.ar  2002  4LM2002    -0.2452
      6  C2        34.5090    1.0910   16.4350 C.ar  2002  4LM2002     0.0981
      7  C3        33.9530    2.2800   16.8990 C.ar  2002  4LM2002     0.2103
      8  O3        33.6770    3.2870   16.0250 O.3   2002  4LM2002    -0.2853
      9  C4        33.6210    2.4290   18.2560 C.ar  2002  4LM2002     0.0591
     10  C5        33.9500    1.4010   19.1470 C.ar  2002  4LM2002     0.0316
     11  C6        34.5120    0.2310   18.6400 C.ar  2002  4LM2002     0.0968
     12  CA        32.7090    6.0310   18.4300 C.2   2002  4LM2002     0.1565
     13  CB        32.2910    6.2160   19.7170 C.2   2002  4LM2002     0.0000
     14  CG        31.8100    7.4990   20.3660 C.3   2002  4LM2002     0.0325
     15  C2A       34.8290    0.8810   14.9620 C.3   2002  4LM2002     0.0555
     16  C4A       33.0900    3.7180   18.7770 C.2   2002  4LM2002     0.1021
     17  C5A       33.6670    1.4900   20.6440 C.3   2002  4LM2002     0.1819
     18  OP1       30.2200    0.8900   22.1930 O.2   2002  4LM2002    -0.2224
     19  OP2       31.6290    2.9700   22.2110 O.3   2002  4LM2002    -0.1145
     20  OP3       32.4510    0.9840   23.4460 O.3   2002  4LM2002    -0.1145
     21  OP4       32.3420    0.9900   20.9500 O.3   2002  4LM2002    -0.2653
     22  O2        32.1190    8.1010   17.3860 O.co2 2002  4LM2002    -0.2389
@<TRIPOS>BOND
     1    15     6    1
     2     8     7    1
     3     6     7   ar
     4     6     5   ar
     5     3     1   ar
     6     7     9   ar
     7     5    11   ar
     8    22     1   ar
     9     1    12    1
    10     2    12    1
    11     2    16    2
    12     9    16    1
    13     9    10   ar
    14    12    13    2
    15    11    10   ar
    16    10    17    1
    17    13    14    1
    18    17    21    1
    19    21     4    1
    20    18     4    2
    21    19     4    1
    22     4    20    1
