@<TRIPOS>MOLECULE
3aeo_3LM_A_1.pdb
 24 24 0 0 0
SMALL
GASTEIGER

@<TRIPOS>ATOM
      1  C         -1.4890   15.0100   46.2030 C.2   2001  3LM2001     0.4048
      2  N         -2.5960   13.0130   45.5700 N.2   2001  3LM2001    -0.2374
      3  O1        -0.3980   15.5910   46.2530 O.co2 2001  3LM2001    -0.2389
      4  P         -2.8170    9.3790   41.3420 P.3   2001  3LM2001     0.5329
      5  N1        -6.3440    9.4690   46.3000 N.ar  2001  3LM2001    -0.2452
      6  C2        -5.6880   10.2340   47.1670 C.ar  2001  3LM2001     0.0981
      7  C3        -4.5600   11.0920   46.7080 C.ar  2001  3LM2001     0.2103
      8  O3        -3.9090   11.8640   47.6150 O.3   2001  3LM2001    -0.2853
      9  C4        -4.2090   11.0930   45.2840 C.ar  2001  3LM2001     0.0591
     10  C5        -5.0400   10.2370   44.4160 C.ar  2001  3LM2001     0.0316
     11  C6        -6.0700    9.4700   44.9870 C.ar  2001  3LM2001     0.0968
     12  CA        -1.8080   14.0530   45.1460 C.2   2001  3LM2001     0.1574
     13  CB        -1.4150   14.1770   43.8390 C.2   2001  3LM2001     0.0114
     14  SD        -1.5800   16.7480   42.7940 S.3   2001  3LM2001    -0.1345
     15  CE        -1.6300   17.0590   41.0550 C.3   2001  3LM2001     0.0695
     16  CG        -0.5930   15.3060   43.2200 C.3   2001  3LM2001     0.0852
     17  C2A       -6.0000   10.2510   48.6370 C.3   2001  3LM2001     0.0555
     18  C4A       -3.1100   11.9600   44.6940 C.2   2001  3LM2001     0.1021
     19  C5A       -4.7800   10.1720   42.9210 C.3   2001  3LM2001     0.1819
     20  OP1       -3.7740    9.3790   40.2260 O.2   2001  3LM2001    -0.2224
     21  OP2       -2.1370   10.6940   41.5360 O.3   2001  3LM2001    -0.1145
     22  OP3       -1.8910    8.1710   41.4440 O.3   2001  3LM2001    -0.1145
     23  OP4       -3.6980    9.2800   42.6900 O.3   2001  3LM2001    -0.2653
     24  O2        -2.3500   15.1950   47.0940 O.co2 2001  3LM2001    -0.2389
@<TRIPOS>BOND
     1    20     4    2
     2    15    14    1
     3     4    22    1
     4     4    21    1
     5     4    23    1
     6    23    19    1
     7    14    16    1
     8    19    10    1
     9    16    13    1
    10    13    12    2
    11    10    11   ar
    12    10     9   ar
    13    18     9    1
    14    18     2    2
    15    11     5   ar
    16    12     2    1
    17    12     1    1
    18     9     7   ar
    19     1     3   ar
    20     1    24   ar
    21     5     6   ar
    22     7     6   ar
    23     7     8    1
    24     6    17    1
