@<TRIPOS>MOLECULE
3aep_4LM_A_1.pdb
 22 22 0 0 0
SMALL
GASTEIGER

@<TRIPOS>ATOM
      1  C         -2.0400   14.8730   45.9460 C.2   2001  4LM2001     0.4048
      2  N         -3.2490   12.9250   45.1650 N.2   2001  4LM2001    -0.2374
      3  O1        -2.8760   15.0450   46.8570 O.co2 2001  4LM2001    -0.2389
      4  P         -3.2630    9.3390   41.0080 P.3   2001  4LM2001     0.5329
      5  N1        -6.8100    9.4320   45.9190 N.ar  2001  4LM2001    -0.2452
      6  C2        -6.1330   10.2300   46.7740 C.ar  2001  4LM2001     0.0981
      7  C3        -5.1020   11.0360   46.2990 C.ar  2001  4LM2001     0.2103
      8  O3        -4.4570   11.8220   47.1900 O.3   2001  4LM2001    -0.2853
      9  C4        -4.7180   11.0200   44.9640 C.ar  2001  4LM2001     0.0591
     10  C5        -5.4460   10.2060   44.1150 C.ar  2001  4LM2001     0.0316
     11  C6        -6.4770    9.4170   44.6250 C.ar  2001  4LM2001     0.0968
     12  CA        -2.3320   13.8830   44.8770 C.2   2001  4LM2001     0.1565
     13  CB        -1.7890   13.8540   43.6400 C.2   2001  4LM2001     0.0000
     14  CG        -0.7670   14.8080   43.0790 C.3   2001  4LM2001     0.0325
     15  C2A       -6.4880   10.2620   48.2420 C.3   2001  4LM2001     0.0555
     16  C4A       -3.6580   11.9380   44.4340 C.2   2001  4LM2001     0.1021
     17  C5A       -5.1480   10.1540   42.6360 C.3   2001  4LM2001     0.1819
     18  OP1       -2.3450    8.1400   41.0490 O.3   2001  4LM2001    -0.1145
     19  OP2       -2.5700   10.6420   41.2100 O.3   2001  4LM2001    -0.1145
     20  OP3       -4.2590    9.3480   39.8740 O.2   2001  4LM2001    -0.2224
     21  OP4       -4.1810    9.1660   42.3160 O.3   2001  4LM2001    -0.2653
     22  O2        -0.9860   15.4960   45.9450 O.co2 2001  4LM2001    -0.2389
@<TRIPOS>BOND
     1    20     4    2
     2     4    18    1
     3     4    19    1
     4     4    21    1
     5    21    17    1
     6    17    10    1
     7    14    13    1
     8    13    12    2
     9    10    11   ar
    10    10     9   ar
    11    16     9    1
    12    16     2    2
    13    11     5   ar
    14    12     2    1
    15    12     1    1
    16     9     7   ar
    17     5     6   ar
    18    22     1   ar
    19     1     3   ar
    20     7     6   ar
    21     7     8    1
    22     6    15    1
