@<TRIPOS>MOLECULE
3aeq_PMR_B_1.pdb
 45 51 0 0 0
SMALL
GASTEIGER

@<TRIPOS>ATOM
      1 MG         23.8430   50.9040  147.4030 Mg    526  PMR526      0.0000
      2  CBB       18.1790   52.7300  146.3860 C.3   526  PMR526      0.0000
      3  CAB       19.2060   53.6460  146.5730 C.3   526  PMR526      0.0000
      4  C3B       20.5550   53.2780  146.4940 C.ar  526  PMR526      0.0000
      5  C2B       21.5130   53.8710  145.7270 C.ar  526  PMR526      0.0000
      6  CMB       21.3630   55.0520  144.7670 C.3   526  PMR526      0.0000
      7  C1B       22.6830   53.1900  145.9590 C.ar  526  PMR526      0.0000
      8  CHB       23.8870   53.4780  145.3740 C.2   526  PMR526      0.0000
      9  NB        22.5010   52.1940  146.8550 N.ar  526  PMR526      0.0000
     10  C4B       21.1900   52.2510  147.1840 C.ar  526  PMR526      0.0000
     11  CHC       20.6230   51.3810  148.0860 C.2   526  PMR526      0.0000
     12  C1C       21.1980   50.2260  148.5710 C.2   526  PMR526      0.0000
     13  NC        22.5010   49.8970  148.3990 N.2   526  PMR526      0.0000
     14  C2C       20.5340   49.2560  149.3080 C.2   526  PMR526      0.0000
     15  CMC       19.0520   49.2990  149.7030 C.3   526  PMR526      0.0000
     16  C3C       21.4300   48.2720  149.6180 C.2   526  PMR526      0.0000
     17  CAC       21.2300   46.9670  150.4300 C.3   526  PMR526      0.0000
     18  CBC       19.8320   46.3340  150.3750 C.3   526  PMR526      0.0000
     19  C4C       22.6210   48.7050  149.0460 C.1   526  PMR526      0.0000
     20  CHD       23.8060   48.0130  149.1220 C.2   526  PMR526      0.0000
     21  C1D       25.0360   48.5590  148.8540 C.ar  526  PMR526      0.0000
     22  C2D       26.2860   48.1100  149.2770 C.ar  526  PMR526      0.0000
     23  CMD       26.5950   46.9020  150.1770 C.3   526  PMR526      0.0000
     24  ND        25.1550   49.6500  148.0700 N.ar  526  PMR526      0.0000
     25  C4D       26.4730   49.8490  148.0370 C.ar  526  PMR526      0.0000
     26  C3D       27.2300   48.9440  148.7480 C.ar  526  PMR526      0.0000
     27  CAD       28.5730   49.2660  148.6200 C.2   526  PMR526      0.0000
     28  OAD       29.5200   48.6640  149.1240 O.2   526  PMR526      0.0000
     29  CBD       28.7010   50.4790  147.7230 C.3   526  PMR526      0.0000
     30  CGD       29.3860   51.6060  148.4920 C.2   526  PMR526      0.0000
     31  O1D       30.4410   52.0920  148.0660 O.2   526  PMR526      0.0000
     32  O2D       28.8130   52.0500  149.6440 O.3   526  PMR526      0.0000
     33  C2O       29.5160   53.1650  150.2000 C.3   526  PMR526      0.0000
     34  CHA       27.2310   50.7910  147.3910 C.2   526  PMR526      0.0000
     35  C1A       26.6300   51.7200  146.5750 C.1   526  PMR526      0.0000
     36  NA        25.2880   51.9610  146.6230 N.2   526  PMR526      0.0000
     37  C4A       25.0940   52.9150  145.6840 C.2   526  PMR526      0.0000
     38  C3A       26.2700   53.2420  145.0570 C.2   526  PMR526      0.0000
     39  CMA       26.4150   54.2760  143.9340 C.3   526  PMR526      0.0000
     40  C2A       27.2670   52.4910  145.6050 C.2   526  PMR526      0.0000
     41  CAA       28.7520   52.5070  145.2070 C.3   526  PMR526      0.0000
     42  CBA       28.9870   51.6590  143.9370 C.3   526  PMR526      0.0000
     43  CGA       29.3780   50.2020  144.2660 C.2   526  PMR526      0.0000
     44  O1A       28.4440   49.4030  144.4910 O.co2 526  PMR526      0.0000
     45  O2A       30.5970   49.9100  144.2850 O.co2 526  PMR526      0.0000
@<TRIPOS>BOND
     1    39    38    1
     2    42    43    1
     3    42    41    1
     4    43    45   ar
     5    43    44   ar
     6     6     5    1
     7    38    40    2
     8    38    37    1
     9    41    40    1
    10     8    37    1
    11     8     7    2
    12    40    35    1
    13    37    36    2
    14     5     7   ar
    15     5     4   ar
    16     7     9   ar
    17     2     3    1
    18     4     3    1
    19     4    10   ar
    20    35    36    2
    21    35    34    2
    22     9    10   ar
    23     9     1    1
    24    10    11    2
    25    34    29    1
    26    34    25    1
    27     1    24    1
    28    29    30    1
    29    29    27    1
    30    25    24   ar
    31    25    26   ar
    32    31    30    2
    33    24    21   ar
    34    11    12    1
    35    13    12    2
    36    13    19    2
    37    30    32    1
    38    12    14    1
    39    27    26    1
    40    27    28    2
    41    26    22   ar
    42    21    20    1
    43    21    22   ar
    44    19    20    2
    45    19    16    1
    46    22    23    1
    47    14    16    2
    48    14    15    1
    49    16    17    1
    50    32    33    1
    51    18    17    1
