@<TRIPOS>MOLECULE
3aex_AN7_A_1.pdb
 21 21 0 0 0
SMALL
GASTEIGER

@<TRIPOS>ATOM
      1  CAA      -62.0130    0.6310  -12.6180 C.3   1001  AN71001     0.0555
      2  OAB      -65.2970   -6.3250  -17.2180 O.co2 1001  AN71001    -0.2369
      3  OAC      -66.9120   -4.6770  -15.7140 O.2   1001  AN71001    -0.2795
      4  OAD      -69.0090   -3.7330  -12.9380 O.2   1001  AN71001    -0.2224
      5  OAE      -63.5310   -5.1920  -16.5620 O.co2 1001  AN71001    -0.2369
      6  OAF      -62.8700   -1.6500  -14.1880 O.3   1001  AN71001    -0.2853
      7  OAG      -69.1360   -3.9410  -10.4220 O.3   1001  AN71001    -0.1145
      8  OAH      -70.5030   -2.1610  -11.6530 O.3   1001  AN71001    -0.1145
      9  CAI      -65.1230   -3.4340  -15.0060 C.2   1001  AN71001     0.0491
     10  CAJ      -65.7710   -2.5180  -14.1720 C.2   1001  AN71001     0.0065
     11  CAK      -65.6860    0.4470  -11.8840 C.ar  1001  AN71001     0.0968
     12  CAL      -67.6800   -0.8890  -12.4400 C.3   1001  AN71001     0.1818
     13  NAM      -64.3950    0.7880  -11.9270 N.ar  1001  AN71001    -0.2452
     14  OAN      -67.9300   -1.8960  -11.4520 O.3   1001  AN71001    -0.2653
     15  CAO      -64.7790   -5.4020  -16.5690 C.2   1001  AN71001     0.4260
     16  CAP      -65.7050   -4.4810  -15.7320 C.2   1001  AN71001     0.2747
     17  CAQ      -63.4600    0.1170  -12.6710 C.ar  1001  AN71001     0.0981
     18  CAR      -63.8410   -1.0150  -13.4600 C.ar  1001  AN71001     0.2088
     19  CAS      -66.1720   -0.6500  -12.6220 C.ar  1001  AN71001     0.0301
     20  CAT      -65.2390   -1.4140  -13.4380 C.ar  1001  AN71001     0.0401
     21  PAU      -69.1140   -2.9660  -11.6810 P.3   1001  AN71001     0.5329
@<TRIPOS>BOND
     1     2    15   ar
     2    15     5   ar
     3    15    16    1
     4    16     3    2
     5    16     9    1
     6     9    10    2
     7     6    18    1
     8    10    20    1
     9    18    20   ar
    10    18    17   ar
    11    20    19   ar
    12     4    21    2
    13    17     1    1
    14    17    13   ar
    15    19    12    1
    16    19    11   ar
    17    12    14    1
    18    13    11   ar
    19    21     8    1
    20    21    14    1
    21    21     7    1
