@<TRIPOS>MOLECULE
3aez_PAZ_A_1.pdb
 19 18 0 0 0
SMALL
GASTEIGER

@<TRIPOS>ATOM
      1  O8       -38.1240   32.9690    6.9940 O.3   314  PAZ314     -0.1145
      2  P1       -38.4570   32.4210    5.5320 P.3   314  PAZ314      0.5326
      3  O6       -38.5740   30.9230    5.5420 O.3   314  PAZ314     -0.1145
      4  O7       -37.2570   32.8970    4.5340 O.2   314  PAZ314     -0.2224
      5  O2       -39.7990   33.2070    5.0790 O.3   314  PAZ314     -0.2702
      6  C2       -39.9770   33.8200    3.7920 C.3   314  PAZ314      0.1565
      7  C1       -41.3010   34.5870    3.7290 C.3   314  PAZ314      0.0647
      8  C4       -42.4210   33.6710    4.2110 C.3   314  PAZ314      0.0056
      9  C3       -41.3160   35.8070    4.6420 C.3   314  PAZ314      0.0056
     10  C5       -41.5540   35.0140    2.2750 C.3   314  PAZ314      0.2312
     11  O5'      -41.5570   33.8290    1.4730 O.3   314  PAZ314     -0.2131
     12  C6       -42.9650   35.5740    2.1430 C.2   314  PAZ314      0.2719
     13  O6'      -43.9020   34.7930    1.9240 O.2   314  PAZ314     -0.2706
     14  N        -43.0800   36.9090    2.1730 N.am  314  PAZ314     -0.2027
     15  C8       -44.4420   37.4650    2.0200 C.3   314  PAZ314      0.1270
     16  C9       -44.4670   38.9680    1.7150 C.3   314  PAZ314      0.1374
     17  C        -45.9260   39.4600    1.6990 C.2   314  PAZ314      0.3667
     18  O        -46.5210   39.4080    0.5950 O.co2 314  PAZ314     -0.2456
     19  OXT      -46.4860   39.6700    2.8010 O.co2 314  PAZ314     -0.2456
@<TRIPOS>BOND
     1    18    17   ar
     2    11    10    1
     3    17    16    1
     4    17    19   ar
     5    16    15    1
     6    13    12    2
     7    15    14    1
     8    12    14   am
     9    12    10    1
    10    10     7    1
    11     7     6    1
    12     7     8    1
    13     7     9    1
    14     6     5    1
    15     4     2    2
    16     5     2    1
    17     2     3    1
    18     2     1    1
