@<TRIPOS>MOLECULE
3aez_GDP_A_1.pdb
 28 30 0 0 0
SMALL
GASTEIGER

@<TRIPOS>ATOM
      1  PB       -36.5810   31.1330   -1.9110 P.3   313  GDP313      0.5373
      2  O1B      -37.1510   31.4460   -3.3720 O.2   313  GDP313     -0.2221
      3  O2B      -36.6550   29.6250   -1.5480 O.3   313  GDP313     -0.1143
      4  O3B      -35.2050   31.6440   -1.6930 O.3   313  GDP313     -0.1143
      5  O3A      -37.5930   31.8480   -0.8610 O.3   313  GDP313     -0.2261
      6  PA       -39.0490   32.4370   -1.0820 P.3   313  GDP313      0.2231
      7  O1A      -39.3940   32.9510    0.2610 O.3   313  GDP313     -0.4370
      8  O2A      -39.1740   33.3350   -2.2530 O.2   313  GDP313     -0.5169
      9  O5'      -39.9560   31.1600   -1.3270 O.3   313  GDP313     -0.3111
     10  C5'      -40.0290   30.1170   -0.3450 C.3   313  GDP313      0.1813
     11  C4'      -41.0540   29.0690   -0.7690 C.3   313  GDP313      0.1799
     12  O4'      -42.3720   29.6770   -0.7780 O.3   313  GDP313     -0.3326
     13  C3'      -40.7420   28.6780   -2.2240 C.3   313  GDP313      0.2158
     14  O3'      -41.1160   27.3070   -2.4190 O.3   313  GDP313     -0.2175
     15  C2'      -41.7340   29.4880   -3.0390 C.3   313  GDP313      0.2310
     16  O2'      -42.0760   28.6920   -4.1670 O.3   313  GDP313     -0.2158
     17  C1'      -42.9490   29.4960   -2.0990 C.3   313  GDP313      0.2293
     18  N9       -43.6690   30.7520   -2.3310 N.pl3 313  GDP313     -0.2354
     19  C8       -43.1390   31.9850   -2.3640 C.3   313  GDP313      0.2246
     20  N7       -44.1340   32.8520   -2.5660 N.2   313  GDP313     -0.2322
     21  C5       -45.2800   32.1710   -2.6320 C.2   313  GDP313      0.2182
     22  C6       -46.6150   32.5390   -2.7630 C.1   313  GDP313      0.2372
     23  O6       -46.9480   33.7220   -2.8860 O.2   313  GDP313     -0.2069
     24  N1       -47.5900   31.5290   -2.7770 N.2   313  GDP313     -0.2485
     25  C2       -47.2260   30.1880   -2.6110 C.1   313  GDP313      0.2531
     26  N2       -48.1750   29.2440   -2.5550 N.pl3 313  GDP313     -0.0226
     27  N3       -45.9320   29.8830   -2.4310 N.2   313  GDP313     -0.3074
     28  C4       -44.9850   30.8280   -2.4610 C.2   313  GDP313      0.2300
@<TRIPOS>BOND
     1    16    15    1
     2     2     1    2
     3    15    13    1
     4    15    17    1
     5    23    22    2
     6    24    22    2
     7    24    25    2
     8    22    21    1
     9    21    20    2
    10    21    28    1
    11    25    26    1
    12    25    27    2
    13    20    19    1
    14    28    27    2
    15    28    18    1
    16    14    13    1
    17    19    18    1
    18    18    17    1
    19     8     6    2
    20    13    11    1
    21    17    12    1
    22     1     4    1
    23     1     3    1
    24     1     5    1
    25     9     6    1
    26     9    10    1
    27     6     5    1
    28     6     7    1
    29    12    11    1
    30    11    10    1
