@<TRIPOS>MOLECULE
3af0_PAU_A_1.pdb
 15 14 0 0 0
SMALL
GASTEIGER

@<TRIPOS>ATOM
      1  O2        10.6700   54.4570  -10.3620 O.3   314  PAU314     -0.2203
      2  C1         8.8190   53.4290  -11.4190 C.3   314  PAU314      0.0674
      3  C2         9.2650   54.2500  -10.2160 C.3   314  PAU314      0.1849
      4  C3         7.2940   53.3890  -11.4870 C.3   314  PAU314      0.0057
      5  C4         9.3580   52.0070  -11.2550 C.3   314  PAU314      0.0057
      6  C5         9.4080   54.0820  -12.6750 C.3   314  PAU314      0.2313
      7  O5'        8.8040   53.5840  -13.8770 O.3   314  PAU314     -0.2131
      8  C6         9.2720   55.6080  -12.6220 C.2   314  PAU314      0.2719
      9  O6'        8.2950   56.1590  -12.1130 O.2   314  PAU314     -0.2706
     10  N         10.2760   56.2620  -13.1980 N.am  314  PAU314     -0.2027
     11  C8        10.2510   57.7220  -13.3150 C.3   314  PAU314      0.1270
     12  C9        11.6090   58.3050  -12.9470 C.3   314  PAU314      0.1374
     13  C         11.4120   59.8160  -12.8640 C.2   314  PAU314      0.3667
     14  OXT       11.3870   60.3120  -11.7180 O.co2 314  PAU314     -0.2456
     15  O         11.0950   60.4020  -13.9240 O.co2 314  PAU314     -0.2456
@<TRIPOS>BOND
     1    15    13   ar
     2     7     6    1
     3    11    10    1
     4    11    12    1
     5    10     8   am
     6    12    13    1
     7    13    14   ar
     8     6     8    1
     9     6     2    1
    10     8     9    2
    11     4     2    1
    12     2     5    1
    13     2     3    1
    14     1     3    1
