@<TRIPOS>MOLECULE
3af0_GDP_A_1.pdb
 28 30 0 0 0
SMALL
GASTEIGER

@<TRIPOS>ATOM
      1  PB         8.6370   47.7830  -16.8440 P.3   313  GDP313      0.5373
      2  O1B        8.6320   48.3810  -18.3390 O.2   313  GDP313     -0.2221
      3  O2B        7.2590   46.9610  -16.6260 O.3   313  GDP313     -0.1143
      4  O3B        9.8130   46.9360  -16.5320 O.3   313  GDP313     -0.1143
      5  O3A        8.5080   48.9730  -15.7840 O.3   313  GDP313     -0.2261
      6  PA         8.3990   50.5480  -16.0050 P.3   313  GDP313      0.2231
      7  O1A        8.5350   51.1440  -14.6600 O.3   313  GDP313     -0.4370
      8  O2A        9.3240   51.0070  -17.0620 O.2   313  GDP313     -0.5169
      9  O5'        6.8840   50.7230  -16.4550 O.3   313  GDP313     -0.3111
     10  C5'        5.8400   50.2940  -15.5830 C.3   313  GDP313      0.1813
     11  C4'        4.4780   50.6560  -16.1790 C.3   313  GDP313      0.1799
     12  O4'        4.3870   52.0570  -15.8730 O.3   313  GDP313     -0.3326
     13  C3'        4.5230   50.5340  -17.7090 C.3   313  GDP313      0.2158
     14  O3'        3.5810   49.5520  -18.1640 O.3   313  GDP313     -0.2175
     15  C2'        4.0490   51.8840  -18.2250 C.3   313  GDP313      0.2310
     16  O2'        2.7950   51.6760  -18.8680 O.3   313  GDP313     -0.2158
     17  C1'        3.7600   52.7180  -16.9800 C.3   313  GDP313      0.2293
     18  N9         4.5770   53.9230  -17.1680 N.pl3 313  GDP313     -0.2354
     19  C8         5.9090   53.9800  -17.2390 C.3   313  GDP313      0.2246
     20  N7         6.2820   55.2390  -17.4530 N.2   313  GDP313     -0.2322
     21  C5         5.1800   55.9840  -17.4930 C.2   313  GDP313      0.2182
     22  C6         4.9730   57.3530  -17.6030 C.1   313  GDP313      0.2372
     23  O6         5.9420   58.1120  -17.7260 O.2   313  GDP313     -0.2069
     24  N1         3.6500   57.8280  -17.5300 N.2   313  GDP313     -0.2485
     25  C2         2.5960   56.9190  -17.3590 C.1   313  GDP313      0.2531
     26  N2         1.3340   57.3370  -17.3300 N.pl3 313  GDP313     -0.0226
     27  N3         2.8360   55.6010  -17.2950 N.2   313  GDP313     -0.3074
     28  C4         4.0900   55.1400  -17.3430 C.2   313  GDP313      0.2300
@<TRIPOS>BOND
     1    16    15    1
     2     2     1    2
     3    15    13    1
     4    15    17    1
     5    14    13    1
     6    23    22    2
     7    13    11    1
     8    22    24    2
     9    22    21    1
    10    24    25    2
    11    21    20    2
    12    21    28    1
    13    20    19    1
    14    25    26    1
    15    25    27    2
    16    28    27    2
    17    28    18    1
    18    19    18    1
    19    18    17    1
    20     8     6    2
    21    17    12    1
    22     1     3    1
    23     1     4    1
    24     1     5    1
    25     9     6    1
    26     9    10    1
    27    11    12    1
    28    11    10    1
    29     6     5    1
    30     6     7    1
