@<TRIPOS>MOLECULE
3af1_GDP_A_1.pdb
 28 30 0 0 0
SMALL
GASTEIGER

@<TRIPOS>ATOM
      1  PB        36.6870   31.0570   16.9410 P.3   313  GDP313      0.5373
      2  O1B       37.2660   31.4040   18.3970 O.3   313  GDP313     -0.1143
      3  O2B       36.6420   29.4630   16.7740 O.3   313  GDP313     -0.1143
      4  O3B       35.3300   31.6140   16.7160 O.2   313  GDP313     -0.2221
      5  O3A       37.8100   31.5350   15.8790 O.3   313  GDP313     -0.2261
      6  PA        39.2580   32.2010   16.1640 P.3   313  GDP313      0.2231
      7  O1A       39.9360   32.5800   14.9110 O.2   313  GDP313     -0.5169
      8  O2A       39.1820   33.2340   17.2260 O.3   313  GDP313     -0.4370
      9  O5'       40.0070   30.8970   16.6920 O.3   313  GDP313     -0.3111
     10  C5'       40.2000   29.7740   15.8320 C.3   313  GDP313      0.1813
     11  C4'       41.2420   28.8280   16.4220 C.3   313  GDP313      0.1799
     12  O4'       42.4890   29.4540   16.0880 O.3   313  GDP313     -0.3326
     13  C3'       41.1220   28.9010   17.9500 C.3   313  GDP313      0.2158
     14  O3'       40.6530   27.6490   18.4510 O.3   313  GDP313     -0.2175
     15  C2'       42.5480   29.0360   18.4500 C.3   313  GDP313      0.2310
     16  O2'       42.9240   27.7520   18.9380 O.3   313  GDP313     -0.2158
     17  C1'       43.3860   29.2910   17.2010 C.3   313  GDP313      0.2293
     18  N9        44.0080   30.6070   17.4000 N.pl3 313  GDP313     -0.2354
     19  C8        43.4080   31.7970   17.4750 C.3   313  GDP313      0.2246
     20  N7        44.3460   32.7350   17.6240 N.2   313  GDP313     -0.2322
     21  C5        45.5360   32.1350   17.6040 C.2   313  GDP313      0.2182
     22  C6        46.8420   32.6020   17.6540 C.1   313  GDP313      0.2372
     23  O6        47.0550   33.8050   17.8150 O.2   313  GDP313     -0.2069
     24  N1        47.8920   31.6700   17.6100 N.2   313  GDP313     -0.2485
     25  C2        47.5940   30.3000   17.4770 C.1   313  GDP313      0.2531
     26  N2        48.5680   29.3910   17.4050 N.pl3 313  GDP313     -0.0226
     27  N3        46.3170   29.8800   17.4350 N.2   313  GDP313     -0.3074
     28  C4        45.3170   30.7710   17.4720 C.2   313  GDP313      0.2300
@<TRIPOS>BOND
     1     7     6    2
     2    10    11    1
     3    10     9    1
     4     5     6    1
     5     5     1    1
     6    12    11    1
     7    12    17    1
     8     6     9    1
     9     6     8    1
    10    11    13    1
    11     4     1    2
    12     3     1    1
    13     1     2    1
    14    17    18    1
    15    17    15    1
    16    18    28    1
    17    18    19    1
    18    26    25    1
    19    27    28    2
    20    27    25    2
    21    28    21    1
    22    19    20    1
    23    25    24    2
    24    21    20    2
    25    21    22    1
    26    24    22    2
    27    22    23    2
    28    13    15    1
    29    13    14    1
    30    15    16    1
