@<TRIPOS>MOLECULE
3af2_ACP_A_1.pdb
 31 33 0 0 0
SMALL
GASTEIGER

@<TRIPOS>ATOM
      1  PG       -37.4620   28.3070   -4.0900 P.3   313  ACP313      0.1295
      2  O1G      -37.6140   29.0090   -5.5450 O.2   313  ACP313     -0.4595
      3  O2G      -35.8540   28.1830   -3.9490 O.3   313  ACP313     -0.3567
      4  O3G      -38.1260   26.9880   -3.9830 O.3   313  ACP313     -0.3567
      5  PB       -36.7830   30.8050   -2.4030 P.3   313  ACP313      0.3815
      6  O1B      -36.4690   31.7590   -3.4880 O.2   313  ACP313     -0.2547
      7  O2B      -35.6740   30.0400   -1.7990 O.3   313  ACP313     -0.1391
      8  C3B      -38.0780   29.5800   -2.8990 C.3   313  ACP313      0.1768
      9  PA       -38.8410   32.4930   -1.2120 P.3   313  ACP313      0.2209
     10  O1A      -38.9390   33.1120   -2.5520 O.2   313  ACP313     -0.5170
     11  O2A      -38.8180   33.3840   -0.0200 O.3   313  ACP313     -0.4371
     12  O3A      -37.4810   31.6020   -1.1600 O.3   313  ACP313     -0.2483
     13  O5'      -40.0270   31.3990   -0.9450 O.3   313  ACP313     -0.3111
     14  C5'      -41.3390   31.7030   -1.4000 C.3   313  ACP313      0.1813
     15  C4'      -42.4280   30.8110   -0.7790 C.3   313  ACP313      0.1821
     16  O4'      -43.6240   31.6210   -0.5980 O.3   313  ACP313     -0.3135
     17  C3'      -42.8900   29.6610   -1.6880 C.3   313  ACP313      0.2184
     18  O3'      -43.3130   28.5400   -0.8900 O.3   313  ACP313     -0.2174
     19  C2'      -44.0510   30.2570   -2.5110 C.3   313  ACP313      0.2570
     20  O2'      -45.1900   29.3970   -2.4590 O.3   313  ACP313     -0.2130
     21  C1'      -44.4310   31.5760   -1.8230 C.3   313  ACP313      0.3186
     22  N9       -44.3690   32.8210   -2.6730 N.pl3 313  ACP313     -0.1439
     23  C8       -43.3880   33.0930   -3.5350 C.3   313  ACP313      0.3377
     24  N7       -43.5540   34.3050   -4.0700 N.2   313  ACP313     -0.2095
     25  C5       -44.6710   34.8190   -3.5680 C.2   313  ACP313      0.2526
     26  C6       -45.3390   36.0220   -3.7770 C.2   313  ACP313      0.4393
     27  N6       -44.8580   36.8710   -4.6760 N.pl3 313  ACP313      0.2180
     28  N1       -46.4580   36.3020   -3.0860 N.2   313  ACP313      0.0021
     29  C2       -46.9230   35.4020   -2.2330 C.3   313  ACP313      0.5254
     30  N3       -46.3260   34.2320   -2.0320 N.2   313  ACP313     -0.0055
     31  C4       -45.1860   33.8900   -2.6670 C.2   313  ACP313      0.3518
@<TRIPOS>BOND
     1     2     1    2
     2    27    26    1
     3     1     4    1
     4     1     3    1
     5     1     8    1
     6    24    25    2
     7    24    23    1
     8    26    25    1
     9    26    28    2
    10    25    31    1
    11    23    22    1
    12     6     5    2
    13    28    29    1
    14     8     5    1
    15    22    31    1
    16    22    21    1
    17    31    30    2
    18    10     9    2
    19    19    20    1
    20    19    21    1
    21    19    17    1
    22     5     7    1
    23     5    12    1
    24    29    30    1
    25    21    16    1
    26    17    18    1
    27    17    15    1
    28    14    13    1
    29    14    15    1
    30     9    12    1
    31     9    13    1
    32     9    11    1
    33    15    16    1
