@<TRIPOS>MOLECULE
3af3_PAU_A_1.pdb
 15 14 0 0 0
SMALL
GASTEIGER

@<TRIPOS>ATOM
      1  O2       -41.3720   33.8900   -4.5440 O.3   314  PAU314     -0.2203
      2  C1       -43.0290   34.9710   -5.9240 C.3   314  PAU314      0.0674
      3  C2       -41.5880   34.4920   -5.8250 C.3   314  PAU314      0.1849
      4  C3       -43.8010   34.0960   -6.9010 C.3   314  PAU314      0.0057
      5  C4       -43.0630   36.4200   -6.3880 C.3   314  PAU314      0.0057
      6  C5       -43.6810   34.8740   -4.5490 C.3   314  PAU314      0.2313
      7  O5'      -42.8840   35.5820   -3.5930 O.3   314  PAU314     -0.2131
      8  C6       -45.0530   35.4780   -4.6020 C.2   314  PAU314      0.2719
      9  O6'      -45.4060   36.1270   -5.5730 O.2   314  PAU314     -0.2706
     10  N        -45.8360   35.2650   -3.5490 N.am  314  PAU314     -0.2027
     11  C8       -47.1980   35.7410   -3.3600 C.3   314  PAU314      0.1270
     12  C9       -47.1080   37.2560   -3.4900 C.3   314  PAU314      0.1374
     13  C        -46.4540   37.8300   -2.2560 C.2   314  PAU314      0.3667
     14  OXT      -45.2260   37.6570   -2.0970 O.co2 314  PAU314     -0.2456
     15  O        -47.1650   38.4560   -1.4400 O.co2 314  PAU314     -0.2456
@<TRIPOS>BOND
     1     4     2    1
     2     5     2    1
     3     2     3    1
     4     2     6    1
     5     3     1    1
     6     9     8    2
     7     8     6    1
     8     8    10   am
     9     6     7    1
    10    10    11    1
    11    12    11    1
    12    12    13    1
    13    13    14   ar
    14    13    15   ar
