@<TRIPOS>MOLECULE
3af6_NUC_C_1.pdb
 21 22 0 0 0
SMALL
GASTEIGER

@<TRIPOS>ATOM
      1  O2'       42.5500   40.4320   62.9230 O.3     1  RU1        -0.2158
      2  C2'       41.9880   41.4530   62.1260 C.3     1  RU1         0.2292
      3  C1'       40.4630   41.3090   62.1210 C.3     1  RU1         0.2400
      4  O4'       39.9490   42.1730   63.1210 O.3     1  RU1        -0.3320
      5  C4'       41.0580   42.7800   63.8350 C.3     1  RU1         0.1801
      6  C5'       40.6370   44.1150   64.4030 C.3     1  RU1         0.2141
      7  O5'       40.1180   45.0070   63.4200 O.3     1  RU1        -0.2176
      8  C3'       42.1690   42.8020   62.7970 C.3     1  RU1         0.1888
      9  O3'       43.4530   42.8970   63.4080 O.3     1  RU1        -0.2820
     10  N1        39.7950   41.5860   60.8370 N.am    1  RU1        -0.1766
     11  C6        38.6130   42.2870   60.7740 C.2     1  RU1         0.0929
     12  C5        37.9710   42.5300   59.6190 C.2     1  RU1         0.1242
     13  C4        38.5180   42.0520   58.3840 C.1     1  RU1         0.2182
     14  O4        38.0300   42.2110   57.2610 O.2     1  RU1        -0.2085
     15  N3        39.7050   41.3640   58.5160 N.2     1  RU1        -0.2452
     16  C2        40.3880   41.1010   59.6810 C.1     1  RU1         0.2845
     17  O2        41.4410   40.4870   59.6870 O.2     1  RU1        -0.1918
     18  O5'       44.6080   43.3020   61.2590 O.2     2  RU2        -0.2426
     19  P         44.7970   42.5330   62.5530 P.3     2  RU2         0.4295
     20  S1P       46.3160   43.0760   63.6290 S.3     2  RU2         0.0413
     21  OP2       44.7600   41.1320   62.0640 O.3     2  RU2        -0.1307
@<TRIPOS>BOND
     1    14    13    2
     2    13    15    2
     3    13    12    1
     4    15    16    2
     5    12    11    2
     6    16    17    2
     7    16    10   am
     8    11    10    1
     9    10     3    1
    10    18    19    2
    11    21    19    1
    12     3     2    1
    13     3     4    1
    14     2     8    1
    15     2     1    1
    16    19     9    1
    17    19    20    1
    18     8     9    1
    19     8     5    1
    20     4     5    1
    21     7     6    1
    22     5     6    1
