@<TRIPOS>MOLECULE
3afh_GSU_A_1.pdb
 32 34 0 0 0
SMALL
GASTEIGER

@<TRIPOS>ATOM
      1  C2        23.1400   58.9690    4.3480 C.3   2001  GSU2001     0.5254
      2  S         15.1640   62.4920    1.8030 S.3   2001  GSU2001     0.0852
      3  N         13.6080   66.4250    2.5840 N.3   2001  GSU2001    -0.1230
      4  CA        15.0950   66.4130    2.5720 C.3   2001  GSU2001     0.1715
      5  CB        15.6550   66.7310    3.9710 C.3   2001  GSU2001     0.0403
      6  CG        15.6840   68.2550    4.1940 C.3   2001  GSU2001     0.1161
      7  CD        16.3950   68.5950    5.5010 C.2   2001  GSU2001     0.3649
      8  OE1       16.5850   67.7360    6.3580 O.co2 2001  GSU2001    -0.2457
      9  OE2       16.7800   69.7320    5.6940 O.co2 2001  GSU2001    -0.2457
     10  C         15.5710   65.0620    2.1610 C.2   2001  GSU2001     0.2798
     11  O         16.7140   64.9170    1.7430 O.2   2001  GSU2001    -0.2701
     12  N10       14.7170   64.0080    2.2570 N.am  2001  GSU2001    -0.0577
     13  O1S       15.6180   62.6260    0.4670 O.3   2001  GSU2001    -0.0508
     14  O2S       14.0980   61.6100    2.1900 O.3   2001  GSU2001    -0.0508
     15  O5'       16.4360   62.0660    2.5870 O.3   2001  GSU2001    -0.2230
     16  C5'       16.1490   61.8850    3.9810 C.3   2001  GSU2001     0.2064
     17  C4'       17.4050   62.1430    4.8500 C.3   2001  GSU2001     0.1842
     18  O4'       18.3800   61.0910    4.5440 O.3   2001  GSU2001    -0.3135
     19  C1'       19.6330   61.7090    4.0880 C.3   2001  GSU2001     0.3186
     20  N9        20.2890   60.8880    3.0710 N.pl3 2001  GSU2001    -0.1439
     21  C4        21.3620   60.0860    3.3160 C.2   2001  GSU2001     0.3518
     22  N3        22.1120   59.8300    4.4040 N.2   2001  GSU2001    -0.0055
     23  N1        23.4550   58.3290    3.2180 N.2   2001  GSU2001     0.0021
     24  C6        22.7560   58.5210    2.0740 C.2   2001  GSU2001     0.4393
     25  N6        23.1060   57.8460    0.9280 N.pl3 2001  GSU2001     0.2180
     26  C5        21.6580   59.4340    2.0860 C.2   2001  GSU2001     0.2526
     27  N7        20.7570   59.8770    1.1750 N.2   2001  GSU2001    -0.2095
     28  C8        19.9500   60.7320    1.7460 C.3   2001  GSU2001     0.3377
     29  C2'       19.2190   63.0970    3.5810 C.3   2001  GSU2001     0.2570
     30  O2'       20.2960   64.0410    3.5860 O.3   2001  GSU2001    -0.2130
     31  C3'       18.0430   63.5130    4.4990 C.3   2001  GSU2001     0.2185
     32  O3'       18.6250   64.0640    5.6820 O.3   2001  GSU2001    -0.2174
@<TRIPOS>BOND
     1    13     2    1
     2    25    24    1
     3    27    28    1
     4    27    26    2
     5    11    10    2
     6    28    20    1
     7     2    14    1
     8     2    12    1
     9     2    15    1
    10    24    26    1
    11    24    23    2
    12    26    21    1
    13    10    12   am
    14    10     4    1
    15     4     3    1
    16     4     5    1
    17    15    16    1
    18    20    21    1
    19    20    19    1
    20    23     1    1
    21    21    22    2
    22    29    30    1
    23    29    19    1
    24    29    31    1
    25     5     6    1
    26    16    17    1
    27    19    18    1
    28     6     7    1
    29     1    22    1
    30    31    17    1
    31    31    32    1
    32    18    17    1
    33     7     9   ar
    34     7     8   ar
