@<TRIPOS>MOLECULE
3afj_BGC_A_1.pdb
 12 12 0 0 0
SMALL
GASTEIGER

@<TRIPOS>ATOM
      1  C2         5.2620   42.6430   81.7260 C.3   2901  BGC2901     0.2434
      2  C3         6.6920   42.7320   82.2860 C.3   2901  BGC2901     0.2199
      3  C4         7.1790   44.1650   82.3500 C.3   2901  BGC2901     0.2144
      4  C5         6.1780   44.9720   83.2070 C.3   2901  BGC2901     0.1836
      5  C6         6.5340   46.4490   83.2900 C.3   2901  BGC2901     0.2142
      6  C1         4.3780   43.4960   82.6520 C.3   2901  BGC2901     0.3024
      7  O1         3.1270   43.4600   82.0260 O.3   2901  BGC2901    -0.1869
      8  O2         4.8370   41.2800   81.7090 O.3   2901  BGC2901    -0.2148
      9  O3         7.5960   41.9870   81.4790 O.3   2901  BGC2901    -0.2174
     10  O4         8.4850   44.1660   82.9680 O.3   2901  BGC2901    -0.2176
     11  O5         4.8840   44.8370   82.6440 O.3   2901  BGC2901    -0.3236
     12  O6         5.6260   47.1870   84.0600 O.3   2901  BGC2901    -0.2176
@<TRIPOS>BOND
     1     9     2    1
     2     8     1    1
     3     1     2    1
     4     1     6    1
     5     7     6    1
     6     2     3    1
     7     3    10    1
     8     3     4    1
     9    11     6    1
    10    11     4    1
    11     4     5    1
    12     5    12    1
