@<TRIPOS>MOLECULE
3afk_GAL_A_1.pdb
 11 11 0 0 0
SMALL
GASTEIGER

@<TRIPOS>ATOM
      1  C1        13.2640    6.2850  -19.2990 C.3   240  GAL240      0.1777
      2  C2        12.5760    7.6050  -18.9450 C.3   240  GAL240      0.2141
      3  C3        13.4270    8.4650  -18.0100 C.3   240  GAL240      0.2173
      4  C4        13.8370    7.6200  -16.8030 C.3   240  GAL240      0.2142
      5  C5        14.5580    6.3670  -17.3050 C.3   240  GAL240      0.1810
      6  C6        15.0530    5.5340  -16.1220 C.3   240  GAL240      0.2141
      7  O2        12.2630    8.3260  -20.1400 O.3   240  GAL240     -0.2176
      8  O3        12.6550    9.5860  -17.5720 O.3   240  GAL240     -0.2175
      9  O4        12.6650    7.2300  -16.0820 O.3   240  GAL240     -0.2176
     10  O5        13.6650    5.5830  -18.1110 O.3   240  GAL240     -0.3481
     11  O6        15.7760    4.4010  -16.6110 O.3   240  GAL240     -0.2176
@<TRIPOS>BOND
     1     7     2    1
     2     1     2    1
     3     1    10    1
     4     2     3    1
     5    10     5    1
     6     3     8    1
     7     3     4    1
     8     5     4    1
     9     5     6    1
    10     4     9    1
    11    11     6    1
