@<TRIPOS>MOLECULE
3afl_MAW_A_1.pdb
 11 11 0 0 0
SMALL
GASTEIGER

@<TRIPOS>ATOM
      1  C1        -0.4170    9.5650   10.3400 C.3   1003  MAW1003     0.2413
      2  C2        -0.7300    9.0240   11.7330 C.3   1003  MAW1003     0.2297
      3  O2         0.3740    9.2850   12.5970 O.3   1003  MAW1003    -0.2160
      4  C3        -2.0040    9.6980   12.2810 C.3   1003  MAW1003     0.2111
      5  O3        -1.9830    9.7300   13.7120 O.3   1003  MAW1003    -0.2153
      6  C4        -2.1450   11.1260   11.7230 C.2   1003  MAW1003     0.0526
      7  C5        -1.1630   11.6560   10.8840 C.2   1003  MAW1003     0.2164
      8  O5        -0.0630   10.9220   10.5610 O.2   1003  MAW1003    -0.4664
      9  C6        -1.2710   13.0730   10.3190 C.2   1003  MAW1003     0.4208
     10  O6A       -2.2730   13.7670   10.6010 O.co2 1003  MAW1003    -0.2371
     11  O6B       -0.3250   13.4590    9.5970 O.co2 1003  MAW1003    -0.2371
@<TRIPOS>BOND
     1    11     9   ar
     2     9    10   ar
     3     9     7    1
     4     1     8    1
     5     1     2    1
     6     8     7    1
     7     7     6    2
     8     6     4    1
     9     2     4    1
    10     2     3    1
    11     4     5    1
