@<TRIPOS>MOLECULE
3afl_LGU_A_1.pdb
 13 13 0 0 0
SMALL
GASTEIGER

@<TRIPOS>ATOM
      1  C1         6.1920    5.9390    3.4980 C.3   1001  LGU1001     0.3028
      2  C2         5.4980    5.4690    4.7930 C.3   1001  LGU1001     0.2435
      3  O2         6.2920    5.7860    5.9580 O.3   1001  LGU1001    -0.2148
      4  C3         4.1040    6.1060    4.9040 C.3   1001  LGU1001     0.2204
      5  O3         3.4670    5.7030    6.1250 O.3   1001  LGU1001    -0.2174
      6  C4         4.2010    7.6400    4.8300 C.3   1001  LGU1001     0.2229
      7  O4         2.9220    8.2710    5.0370 O.3   1001  LGU1001    -0.2171
      8  C5         4.8920    8.0170    3.4890 C.3   1001  LGU1001     0.2530
      9  O5         5.3080    6.8460    2.7280 O.3   1001  LGU1001    -0.3149
     10  C6         4.0850    8.9880    2.6080 C.2   1001  LGU1001     0.3941
     11  O6A        2.8530    8.8020    2.4270 O.co2 1001  LGU1001    -0.2429
     12  O6B        4.7420    9.9340    2.1210 O.co2 1001  LGU1001    -0.2429
     13  O1         7.5020    6.5040    3.7870 O.3   1001  LGU1001    -0.1869
@<TRIPOS>BOND
     1    12    10   ar
     2    11    10   ar
     3    10     8    1
     4     9     8    1
     5     9     1    1
     6     8     6    1
     7     1    13    1
     8     1     2    1
     9     2     4    1
    10     2     3    1
    11     6     4    1
    12     6     7    1
    13     4     5    1
