@<TRIPOS>MOLECULE
3afn_NAP_A_1.pdb
 48 52 0 0 0
SMALL
GASTEIGER

@<TRIPOS>ATOM
      1  PA       102.5010   -1.2500   66.9630 P.3   3001  NAP3001     0.2189
      2  O1A      103.3430   -0.9370   68.1480 O.3   3001  NAP3001    -0.4371
      3  O2A      103.2060   -2.2170   65.8910 O.2   3001  NAP3001    -0.5170
      4  O5B      101.0880   -1.8530   67.4060 O.3   3001  NAP3001    -0.3112
      5  C5B      100.3590   -2.6970   66.5370 C.3   3001  NAP3001     0.1813
      6  C4B       99.4810   -3.6240   67.3790 C.3   3001  NAP3001     0.1820
      7  O4B       98.6680   -4.4490   66.4970 O.3   3001  NAP3001    -0.3136
      8  C3B      100.3440   -4.5780   68.2220 C.3   3001  NAP3001     0.2157
      9  O3B       99.6930   -4.7790   69.4770 O.3   3001  NAP3001    -0.2175
     10  C2B      100.3350   -5.8490   67.3760 C.3   3001  NAP3001     0.2314
     11  O2B      100.5300   -7.0270   68.1630 O.3   3001  NAP3001    -0.2630
     12  C1B       98.9070   -5.8280   66.8310 C.3   3001  NAP3001     0.3158
     13  N9A       98.8230   -6.6850   65.6230 N.pl3 3001  NAP3001    -0.1439
     14  C8A       99.5010   -6.5390   64.4830 C.3   3001  NAP3001     0.3377
     15  N7A       99.1600   -7.5140   63.6360 N.2   3001  NAP3001    -0.2095
     16  C5A       98.2510   -8.2790   64.2390 C.2   3001  NAP3001     0.2526
     17  C6A       97.5390   -9.4210   63.8700 C.2   3001  NAP3001     0.4393
     18  N6A       97.7030   -9.9800   62.6740 N.pl3 3001  NAP3001     0.2180
     19  N1A       96.6720   -9.9580   64.7510 N.2   3001  NAP3001     0.0021
     20  C2A       96.4880   -9.4200   65.9540 C.3   3001  NAP3001     0.5254
     21  N3A       97.1560   -8.3380   66.3390 N.2   3001  NAP3001    -0.0055
     22  C4A       98.0350   -7.7480   65.5030 C.2   3001  NAP3001     0.3518
     23  O3       102.2110    0.0750   66.0980 O.3   3001  NAP3001    -0.2703
     24  PN       101.0860    1.2090   66.3850 P.3   3001  NAP3001     0.2189
     25  O1N      101.5690    2.3910   65.6310 O.2   3001  NAP3001    -0.5170
     26  O2N      100.7710    1.3510   67.8240 O.co2 3001  NAP3001    -0.4371
     27  O5D       99.8450    0.5600   65.5760 O.3   3001  NAP3001    -0.3112
     28  C5D       98.5130    0.6350   66.0630 C.3   3001  NAP3001     0.1813
     29  C4D       97.5460    0.9600   64.9090 C.3   3001  NAP3001     0.1799
     30  O4D       97.8450    2.2990   64.4690 O.3   3001  NAP3001    -0.3327
     31  C3D       97.7240    0.0410   63.6880 C.3   3001  NAP3001     0.2158
     32  O3D       96.4170   -0.3070   63.1870 O.3   3001  NAP3001    -0.2175
     33  C2D       98.4460    0.9260   62.6870 C.3   3001  NAP3001     0.2309
     34  O2D       98.0950    0.5340   61.3540 O.3   3001  NAP3001    -0.2158
     35  C1D       97.8340    2.2790   63.0320 C.3   3001  NAP3001     0.2263
     36  N1N       98.5840    3.4880   62.6150 N.pl3 3001  NAP3001    -0.2787
     37  C2N       99.8330    3.8310   63.1890 C.3   3001  NAP3001     0.1244
     38  C3N      100.4780    4.9930   62.7560 C.2   3001  NAP3001     0.0544
     39  C7N      101.8340    5.4420   63.3140 C.2   3001  NAP3001     0.2818
     40  O7N      102.3720    6.4460   62.8550 O.2   3001  NAP3001    -0.2670
     41  N7N      102.3470    4.6990   64.2940 N.am  3001  NAP3001    -0.0839
     42  C4N       99.8840    5.7980   61.7830 C.2   3001  NAP3001     0.0033
     43  C5N       98.6530    5.4670   61.2250 C.2   3001  NAP3001     0.0157
     44  C6N       97.9950    4.3160   61.6490 C.2   3001  NAP3001     0.0633
     45  P2B      102.0110   -7.6960   68.2400 P.3   3001  NAP3001     0.5328
     46  O1X      103.0200   -6.7230   68.7380 O.3   3001  NAP3001    -0.1145
     47  O2X      101.7950   -8.9730   69.1770 O.3   3001  NAP3001    -0.1145
     48  O3X      102.3630   -8.2330   66.7770 O.2   3001  NAP3001    -0.2224
@<TRIPOS>UNITY_ATOM_ATTR
26 1
charge -1
@<TRIPOS>BOND
     1    43    44    2
     2    43    42    1
     3    34    33    1
     4    44    36    1
     5    42    38    2
     6    36    35    1
     7    36    37    1
     8    18    17    1
     9    33    35    1
    10    33    31    1
    11    38    37    1
    12    38    39    1
    13    40    39    2
    14    35    30    1
    15    32    31    1
    16    39    41   am
    17    15    16    2
    18    15    14    1
    19    31    29    1
    20    17    16    1
    21    17    19    2
    22    16    22    1
    23    30    29    1
    24    14    13    1
    25    19    20    1
    26    29    28    1
    27    22    13    1
    28    22    21    2
    29    27    28    1
    30    27    24    1
    31    13    12    1
    32    25    24    2
    33     3     1    2
    34    20    21    1
    35    23    24    1
    36    23     1    1
    37    24    26    1
    38     7    12    1
    39     7     6    1
    40     5     6    1
    41     5     4    1
    42    48    45    2
    43    12    10    1
    44     1     4    1
    45     1     2    1
    46    10    11    1
    47    10     8    1
    48     6     8    1
    49    11    45    1
    50     8     9    1
    51    45    46    1
    52    45    47    1
