@<TRIPOS>MOLECULE
3afo_NAI_A_1.pdb
 44 48 0 0 0
SMALL
GASTEIGER

@<TRIPOS>ATOM
      1  PA        82.3870   12.1760   32.6330 P.3   1001  NAI1001     0.2189
      2  O1A       82.4600   12.3030   31.1400 O.2   1001  NAI1001    -0.5170
      3  O2A       82.9360   13.4600   33.4580 O.3   1001  NAI1001    -0.4371
      4  O5B       83.2640   10.9990   33.1730 O.3   1001  NAI1001    -0.3112
      5  C5B       83.1720    9.8290   32.5160 C.3   1001  NAI1001     0.1813
      6  C4B       84.5370    9.3640   32.1580 C.3   1001  NAI1001     0.1821
      7  O4B       84.5100    8.0600   32.7980 O.3   1001  NAI1001    -0.3135
      8  C3B       84.3470    9.1530   30.6600 C.3   1001  NAI1001     0.2184
      9  O3B       85.6210    8.9500   30.0450 O.3   1001  NAI1001    -0.2174
     10  C2B       83.5170    7.8680   30.6540 C.3   1001  NAI1001     0.2570
     11  O2B       83.6860    7.1310   29.4500 O.3   1001  NAI1001    -0.2130
     12  C1B       84.1530    7.0780   31.7970 C.3   1001  NAI1001     0.3186
     13  N9A       83.1820    6.1210   32.3990 N.pl3 1001  NAI1001    -0.1439
     14  C8A       81.9960    6.4020   32.9500 C.3   1001  NAI1001     0.3377
     15  N7A       81.4270    5.2600   33.3710 N.2   1001  NAI1001    -0.2095
     16  C5A       82.2660    4.2570   33.1080 C.2   1001  NAI1001     0.2526
     17  C6A       82.2400    2.8760   33.3120 C.2   1001  NAI1001     0.4393
     18  N6A       81.2030    2.2530   33.9080 N.pl3 1001  NAI1001     0.2180
     19  N1A       83.2970    2.1540   32.8900 N.2   1001  NAI1001     0.0021
     20  C2A       84.3420    2.7150   32.3000 C.3   1001  NAI1001     0.5254
     21  N3A       84.3970    4.0230   32.0940 N.2   1001  NAI1001    -0.0055
     22  C4A       83.3780    4.8110   32.4810 C.2   1001  NAI1001     0.3518
     23  O3        80.8400   11.9740   33.2000 O.3   1001  NAI1001    -0.2703
     24  PN        79.8530   10.8260   32.6620 P.3   1001  NAI1001     0.2189
     25  O1N       80.3280   10.3200   31.3330 O.2   1001  NAI1001    -0.5170
     26  O2N       78.5000   11.3740   32.8930 O.3   1001  NAI1001    -0.4371
     27  O5D       80.0520    9.5650   33.6830 O.3   1001  NAI1001    -0.3112
     28  C5D       79.8810    9.7340   35.0800 C.3   1001  NAI1001     0.1813
     29  C4D       80.9480    8.9420   35.8190 C.3   1001  NAI1001     0.1799
     30  O4D       82.1520    9.7430   35.7920 O.3   1001  NAI1001    -0.3327
     31  C3D       80.6790    8.8140   37.3100 C.3   1001  NAI1001     0.2158
     32  O3D       79.7750    7.7330   37.5770 O.3   1001  NAI1001    -0.2175
     33  C2D       82.0980    8.5140   37.8450 C.3   1001  NAI1001     0.2309
     34  O2D       82.2730    7.0960   37.9870 O.3   1001  NAI1001    -0.2158
     35  C1D       83.0110    9.0370   36.6970 C.3   1001  NAI1001     0.2263
     36  N1N       83.9920    9.9600   37.2900 N.pl3 1001  NAI1001    -0.2787
     37  C2N       85.3300    9.5840   37.2390 C.3   1001  NAI1001     0.1244
     38  C3N       86.3160   10.3820   37.7940 C.2   1001  NAI1001     0.0544
     39  C7N       87.7890    9.9110   37.6870 C.2   1001  NAI1001     0.2818
     40  O7N       88.7250   10.5800   38.1190 O.2   1001  NAI1001    -0.2670
     41  N7N       87.9600    8.7490   37.0890 N.am  1001  NAI1001    -0.0839
     42  C4N       85.9510   11.5850   38.4120 C.2   1001  NAI1001     0.0033
     43  C5N       84.5990   11.9820   38.4780 C.2   1001  NAI1001     0.0157
     44  C6N       83.6040   11.1730   37.9260 C.2   1001  NAI1001     0.0633
@<TRIPOS>BOND
     1    11    10    1
     2     9     8    1
     3    10     8    1
     4    10    12    1
     5     8     6    1
     6     2     1    2
     7    25    24    2
     8    12    13    1
     9    12     7    1
    10    21    20    1
    11    21    22    2
    12     6     5    1
    13     6     7    1
    14    20    19    1
    15    13    22    1
    16    13    14    1
    17    22    16    1
    18     5     4    1
    19     1     4    1
    20     1    23    1
    21     1     3    1
    22    24    26    1
    23    24    23    1
    24    24    27    1
    25    19    17    2
    26    14    15    1
    27    16    17    1
    28    16    15    2
    29    17    18    1
    30    27    28    1
    31    28    29    1
    32    30    29    1
    33    30    35    1
    34    29    31    1
    35    35    36    1
    36    35    33    1
    37    41    39   am
    38    37    36    1
    39    37    38    1
    40    36    44    1
    41    31    32    1
    42    31    33    1
    43    39    38    1
    44    39    40    2
    45    38    42    2
    46    33    34    1
    47    44    43    2
    48    42    43    1
