@<TRIPOS>MOLECULE
3afr_ICJ_A_1.pdb
 34 36 0 0 0
SMALL
GASTEIGER

@<TRIPOS>ATOM
      1  O1        58.5110    3.3540   23.7420 O.3     1  ICJ1       -0.2227
      2  O2        56.0260    6.6710   22.3990 O.3     1  ICJ1       -0.2227
      3  O3        62.2390   -3.8810   14.0310 O.3     1  ICJ1       -0.2232
      4  C01       57.9100    4.3040   22.8560 C.3     1  ICJ1        0.1582
      5  C02       58.0280    5.7370   23.4610 C.3     1  ICJ1        0.0664
      6  C03       57.4300    6.8320   22.4900 C.3     1  ICJ1        0.1586
      7  C04       58.0180    6.7120   21.0620 C.3     1  ICJ1        0.0550
      8  C05       58.1720    5.2600   20.5410 C.2     1  ICJ1       -0.0396
      9  C06       57.8770    5.1380   19.1690 C.2     1  ICJ1       -0.0090
     10  C07       57.9460    3.9860   18.3900 C.2     1  ICJ1       -0.0091
     11  C08       58.1200    3.9390   17.0130 C.2     1  ICJ1       -0.0446
     12  C09       58.2540    5.2060   16.1020 C.3     1  ICJ1        0.0220
     13  C10       58.5820    4.2530   21.4610 C.3     1  ICJ1        0.0489
     14  C11       59.5750    5.2000   15.3030 C.3     1  ICJ1        0.0044
     15  C12       59.9180    3.7820   14.7260 C.3     1  ICJ1        0.0006
     16  C13       59.8000    2.6070   15.7780 C.3     1  ICJ1        0.0034
     17  C14       58.2930    2.6110   16.2050 C.3     1  ICJ1        0.0183
     18  C15       58.0710    1.2740   16.9570 C.3     1  ICJ1        0.0040
     19  C16       59.0760    0.3490   16.2510 C.3     1  ICJ1        0.0003
     20  C17       59.8690    1.1750   15.1720 C.3     1  ICJ1        0.0003
     21  C18       60.9000    2.7650   16.9200 C.3     1  ICJ1        0.0003
     22  C19       59.5590    3.2560   21.2300 C.3     1  ICJ1        0.0070
     23  C20       61.2690    0.5260   14.8110 C.3     1  ICJ1        0.0001
     24  C21       62.0410    1.3700   13.7470 C.3     1  ICJ1        0.0000
     25  C22       61.1280   -0.9650   14.3230 C.3     1  ICJ1        0.0025
     26  C23       62.5490   -1.5340   14.0850 C.3     1  ICJ1        0.0329
     27  C24       62.8450   -2.8650   14.8120 C.3     1  ICJ1        0.1519
     28  C25       64.3720   -3.1580   14.9900 C.3     1  ICJ1        0.0304
     29  C26       65.1440   -3.0250   13.6530 C.3     1  ICJ1        0.0026
     30  C27       65.0020   -2.1680   15.9830 C.3     1  ICJ1        0.0026
     31  C28       60.3300   -1.0870   12.9990 C.3     1  ICJ1        0.0001
     32  C29       58.8700   -1.5260   13.1300 C.3     1  ICJ1        0.0000
     33  C30       58.2780   -1.8390   11.7530 C.3     1  ICJ1        0.0000
     34  C31       58.0860   -0.5670   10.8980 C.3     1  ICJ1        0.0000
@<TRIPOS>BOND
     1    34    33    1
     2    33    32    1
     3    31    32    1
     4    31    25    1
     5    29    28    1
     6    24    23    1
     7     3    27    1
     8    26    25    1
     9    26    27    1
    10    25    23    1
    11    15    14    1
    12    15    16    1
    13    23    20    1
    14    27    28    1
    15    28    30    1
    16    20    16    1
    17    20    19    1
    18    14    12    1
    19    16    17    1
    20    16    21    1
    21    12    11    1
    22    17    18    1
    23    17    11    1
    24    19    18    1
    25    11    10    2
    26    10     9    1
    27     9     8    2
    28     8     7    1
    29     8    13    1
    30     7     6    1
    31    22    13    1
    32    13     4    1
    33     2     6    1
    34     6     5    1
    35     4     5    1
    36     4     1    1
