@<TRIPOS>MOLECULE
3afv_HEM_A_1.pdb
 43 50 0 0 0
SMALL
GASTEIGER

@<TRIPOS>ATOM
      1  CHA        2.1410    7.7780   16.6370 C.2   501  HEM501      0.0000
      2  CHB        3.3340    7.9740   11.9640 C.2   501  HEM501      0.0000
      3  CHC        1.0750    3.7460   11.2150 C.2   501  HEM501      0.0000
      4  CHD       -0.1140    3.5160   15.9120 C.2   501  HEM501      0.0000
      5  C1A        2.6140    8.2300   15.4360 C.ar  501  HEM501      0.0000
      6  C2A        3.2650    9.4990   15.1920 C.ar  501  HEM501      0.0000
      7  C3A        3.6070    9.5370   13.9000 C.ar  501  HEM501      0.0000
      8  C4A        3.1820    8.3030   13.2910 C.ar  501  HEM501      0.0000
      9  CMA        4.2850   10.6680   13.1130 C.3   501  HEM501      0.0000
     10  CAA        3.4800   10.6020   16.2480 C.3   501  HEM501      0.0000
     11  CBA        4.7400   10.3560   17.0880 C.3   501  HEM501      0.0000
     12  CGA        4.4470    9.6040   18.3610 C.2   501  HEM501      0.0000
     13  O1A        3.4580    9.9640   19.0430 O.co2 501  HEM501      0.0000
     14  O2A        5.2040    8.6850   18.6820 O.co2 501  HEM501      0.0000
     15  C1B        2.8300    6.8500   11.3360 C.2   501  HEM501      0.0000
     16  C2B        2.9750    6.5090    9.9300 C.2   501  HEM501      0.0000
     17  C3B        2.3550    5.3350    9.7230 C.2   501  HEM501      0.0000
     18  C4B        1.7980    4.8940   10.9920 C.2   501  HEM501      0.0000
     19  CMB        3.7040    7.3730    8.8740 C.3   501  HEM501      0.0000
     20  CAB        2.2190    4.5270    8.4120 C.2   501  HEM501      0.0000
     21  CBB        3.1410    4.6230    7.4370 C.2   501  HEM501      0.0000
     22  C1C        0.5180    3.3450   12.4090 C.ar  501  HEM501      0.0000
     23  C2C       -0.3550    2.2070   12.5910 C.ar  501  HEM501      0.0000
     24  C3C       -0.6940    2.1550   13.8950 C.ar  501  HEM501      0.0000
     25  C4C       -0.0410    3.2470   14.5710 C.ar  501  HEM501      0.0000
     26  CMC       -0.7420    1.2340   11.4550 C.3   501  HEM501      0.0000
     27  CAC       -1.5820    1.1210   14.6110 C.2   501  HEM501      0.0000
     28  CBC       -2.6670    0.5930   14.0070 C.2   501  HEM501      0.0000
     29  C1D        0.4520    4.5900   16.5400 C.2   501  HEM501      0.0000
     30  C2D        0.4580    4.7890   17.9660 C.2   501  HEM501      0.0000
     31  C3D        1.1460    6.0950   18.1860 C.2   501  HEM501      0.0000
     32  C4D        1.5090    6.5860   16.8780 C.2   501  HEM501      0.0000
     33  CMD       -0.0930    3.8820   19.0740 C.3   501  HEM501      0.0000
     34  CAD        1.3780    6.7360   19.5620 C.3   501  HEM501      0.0000
     35  CBD        0.0850    7.4530   19.9610 C.3   501  HEM501      0.0000
     36  CGD        0.1640    8.0260   21.3460 C.2   501  HEM501      0.0000
     37  O1D       -0.2010    9.2110   21.5110 O.co2 501  HEM501      0.0000
     38  O2D        0.5910    7.3170   22.2880 O.co2 501  HEM501      0.0000
     39  NA         2.6030    7.5220   14.2600 N.ar  501  HEM501      0.0000
     40  NB         2.0790    5.8440   11.9500 N.2   501  HEM501      0.0000
     41  NC         0.6450    3.9830   13.6380 N.ar  501  HEM501      0.0000
     42  ND         1.0990    5.6520   15.9210 N.2   501  HEM501      0.0000
     43 FE          1.4860    5.8330   13.9100 Fe    501  HEM501      0.0000
@<TRIPOS>BOND
     1    21    20    2
     2    20    17    1
     3    19    16    1
     4    17    16    2
     5    17    18    1
     6    16    15    1
     7    18     3    2
     8    18    40    1
     9     3    22    1
    10    15    40    2
    11    15     2    1
    12    26    23    1
    13    40    43    1
    14     2     8    2
    15    22    23   ar
    16    22    41   ar
    17    23    24   ar
    18     9     7    1
    19     8     7   ar
    20     8    39   ar
    21    41    43    1
    22    41    25   ar
    23    24    25   ar
    24    24    27    1
    25     7     6   ar
    26    43    39    1
    27    43    42    1
    28    28    27    2
    29    39     5   ar
    30    25     4    1
    31     6     5   ar
    32     6    10    1
    33     5     1    2
    34     4    29    2
    35    42    29    1
    36    42    32    2
    37    10    11    1
    38    29    30    1
    39     1    32    1
    40    32    31    1
    41    11    12    1
    42    30    31    2
    43    30    33    1
    44    31    34    1
    45    12    14   ar
    46    12    13   ar
    47    34    35    1
    48    35    36    1
    49    36    37   ar
    50    36    38   ar
