@<TRIPOS>MOLECULE
3ag0_HEM_A_1.pdb
 43 50 0 0 0
SMALL
GASTEIGER

@<TRIPOS>ATOM
      1  CHA        5.5970   -5.1280   -2.2800 C.2   191  HEM191      0.0000
      2  CHB        5.5230   -4.1740    2.2800 C.2   191  HEM191      0.0000
      3  CHC        4.2230    0.3060    1.6170 C.2   191  HEM191      0.0000
      4  CHD        4.2070   -0.5150   -3.0570 C.2   191  HEM191      0.0000
      5  C1A        5.7090   -5.3340   -0.8660 C.2   191  HEM191      0.0000
      6  C2A        6.1080   -6.5000   -0.2000 C.2   191  HEM191      0.0000
      7  C3A        6.0660   -6.1620    1.0820 C.2   191  HEM191      0.0000
      8  C4A        5.6450   -4.8320    1.1830 C.2   191  HEM191      0.0000
      9  CMA        6.4230   -7.0310    2.2880 C.3   191  HEM191      0.0000
     10  CAA        6.5710   -7.8040   -0.5840 C.3   191  HEM191      0.0000
     11  CBA        7.5470   -7.6950   -1.6080 C.3   191  HEM191      0.0000
     12  CGA        8.9520   -7.3800   -1.1260 C.2   191  HEM191      0.0000
     13  O1A        9.1550   -7.3250    0.0780 O.co2 191  HEM191      0.0000
     14  O2A        9.8200   -7.1150   -1.9570 O.co2 191  HEM191      0.0000
     15  C1B        5.1860   -2.8750    2.5200 C.ar  191  HEM191      0.0000
     16  C2B        5.1510   -2.3220    3.8580 C.ar  191  HEM191      0.0000
     17  C3B        4.7600   -0.9630    3.6390 C.ar  191  HEM191      0.0000
     18  C4B        4.6020   -0.8400    2.2480 C.ar  191  HEM191      0.0000
     19  CMB        5.4690   -3.0410    5.1410 C.3   191  HEM191      0.0000
     20  CAB        4.5900    0.0250    4.6720 C.2   191  HEM191      0.0000
     21  CBB        3.4840    0.1120    5.4040 C.2   191  HEM191      0.0000
     22  C1C        4.0730    0.4760    0.2620 C.2   191  HEM191      0.0000
     23  C2C        3.6580    1.7540   -0.3350 C.2   191  HEM191      0.0000
     24  C3C        3.6360    1.5540   -1.7250 C.2   191  HEM191      0.0000
     25  C4C        4.0630    0.0950   -1.8760 C.2   191  HEM191      0.0000
     26  CMC        3.3230    3.0210    0.4490 C.3   191  HEM191      0.0000
     27  CAC        3.3050    2.4600   -2.7110 C.2   191  HEM191      0.0000
     28  CBC        2.3100    2.7500   -3.4950 C.2   191  HEM191      0.0000
     29  C1D        4.6010   -1.8200   -3.2890 C.ar  191  HEM191      0.0000
     30  C2D        4.7410   -2.3810   -4.6330 C.ar  191  HEM191      0.0000
     31  C3D        5.1230   -3.6820   -4.4060 C.ar  191  HEM191      0.0000
     32  C4D        5.2220   -3.9130   -2.9510 C.ar  191  HEM191      0.0000
     33  CMD        4.4850   -1.6110   -5.9230 C.3   191  HEM191      0.0000
     34  CAD        5.3390   -4.6510   -5.4670 C.3   191  HEM191      0.0000
     35  CBD        3.9190   -5.2110   -5.6570 C.3   191  HEM191      0.0000
     36  CGD        3.8130   -6.1450   -6.7360 C.2   191  HEM191      0.0000
     37  O1D        3.9930   -5.6680   -7.8790 O.co2 191  HEM191      0.0000
     38  O2D        3.5650   -7.3820   -6.5690 O.co2 191  HEM191      0.0000
     39  NA         5.4190   -4.3040   -0.0120 N.2   191  HEM191      0.0000
     40  NB         4.8810   -2.0370    1.5710 N.ar  191  HEM191      0.0000
     41  NC         4.2890   -0.4860   -0.7110 N.2   191  HEM191      0.0000
     42  ND         4.8970   -2.7390   -2.3380 N.ar  191  HEM191      0.0000
     43 FE          4.8450   -2.4000   -0.3820 Fe    191  HEM191      0.0000
@<TRIPOS>BOND
     1    37    36   ar
     2    36    38   ar
     3    36    35    1
     4    33    30    1
     5    35    34    1
     6    34    31    1
     7    30    31   ar
     8    30    29   ar
     9    31    32   ar
    10    28    27    2
    11    29     4    2
    12    29    42   ar
    13     4    25    1
    14    32    42   ar
    15    32     1    2
    16    27    24    1
    17    42    43    1
    18     1     5    1
    19    14    12   ar
    20    25    24    1
    21    25    41    2
    22    24    23    2
    23    11    12    1
    24    11    10    1
    25    12    13   ar
    26     5     6    1
    27     5    39    2
    28    41    43    1
    29    41    22    1
    30    10     6    1
    31    43    39    1
    32    43    40    1
    33    23    22    1
    34    23    26    1
    35     6     7    2
    36    39     8    1
    37    22     3    2
    38     7     8    1
    39     7     9    1
    40     8     2    2
    41    40    18   ar
    42    40    15   ar
    43     3    18    1
    44    18    17   ar
    45     2    15    1
    46    15    16   ar
    47    17    16   ar
    48    17    20    1
    49    16    19    1
    50    20    21    2
