@<TRIPOS>MOLECULE
3ag1_DMU_C_1.pdb
 33 34 0 0 0
SMALL
GASTEIGER

@<TRIPOS>ATOM
      1  C1        75.4490  350.9540  189.7240 C.2   272  DMU272      0.3077
      2  C2        75.7390  352.1110  188.7360 C.2   272  DMU272      0.2744
      3  C3        74.5700  352.6920  187.9770 C.2   272  DMU272      0.2108
      4  C4        73.2130  352.1380  188.0780 C.3   272  DMU272      0.2615
      5  O5        72.9660  351.0100  188.9960 O.2   272  DMU272     -0.4388
      6  C6        74.0510  350.4090  189.7800 C.2   272  DMU272      0.3364
      7  O7        74.7190  354.0840  187.5920 O.2   272  DMU272     -0.4184
      8  O16       73.7040  349.3400  190.7390 O.2   272  DMU272     -0.4458
      9  C18       74.6830  348.2860  191.0100 C.3   272  DMU272      0.2087
     10  C19       74.7170  347.6280  192.3740 C.3   272  DMU272      0.0475
     11  C22       74.7410  346.1100  192.2360 C.3   272  DMU272      0.0038
     12  C25       73.8890  345.5090  193.3420 C.3   272  DMU272      0.0001
     13  C28       74.3690  344.1440  193.8310 C.3   272  DMU272      0.0000
     14  C31       73.1910  343.4470  194.5230 C.3   272  DMU272      0.0000
     15  C34       73.5000  342.1300  195.2240 C.3   272  DMU272      0.0000
     16  C37       74.8280  341.4840  194.7860 C.3   272  DMU272      0.0000
     17  C40       75.5100  340.7100  195.9190 C.3   272  DMU272      0.0000
     18  C43       74.9620  339.3170  196.1960 C.3   272  DMU272      0.0000
     19  O49       75.7450  351.4260  191.0410 O.2   272  DMU272     -0.2762
     20  O55       76.5530  353.1180  189.3610 O.2   272  DMU272     -0.2798
     21  C57       72.0730  352.7890  187.2440 C.3   272  DMU272      0.2335
     22  O61       70.9650  352.0250  186.7090 O.3   272  DMU272     -0.2159
     23  C5        75.8180  354.8460  185.5160 C.2   272  DMU272      0.3090
     24  C7        75.5440  355.7980  184.3260 C.2   272  DMU272      0.2824
     25  C8        74.0620  356.0660  183.8270 C.2   272  DMU272      0.2752
     26  C9        72.8970  355.4410  184.5970 C.2   272  DMU272      0.2327
     27  O1        73.1590  354.5730  185.7390 O.2   272  DMU272     -0.4143
     28  C10       74.5590  354.3110  186.1700 C.2   272  DMU272      0.3454
     29  O2        73.7900  357.4700  183.6450 O.2   272  DMU272     -0.2796
     30  O3        76.7340  353.7870  185.1760 O.2   272  DMU272     -0.2761
     31  O4        76.4870  355.5760  183.2670 O.2   272  DMU272     -0.2793
     32  C11       71.4610  355.7150  184.1390 C.2   272  DMU272      0.2750
     33  O6        70.4380  355.2970  185.0390 O.2   272  DMU272     -0.2796
@<TRIPOS>BOND
     1    31    24    1
     2    29    25    1
     3    25    24    2
     4    25    26    1
     5    32    26    2
     6    32    33    1
     7    24    23    1
     8    26    27    1
     9    30    23    1
    10    23    28    2
    11    27    28    1
    12    28     7    1
    13    22    21    1
    14    21     4    1
    15     7     3    1
    16     3     4    1
    17     3     2    2
    18     4     5    1
    19     2    20    1
    20     2     1    1
    21     5     6    1
    22     1     6    2
    23     1    19    1
    24     6     8    1
    25     8     9    1
    26     9    10    1
    27    11    10    1
    28    11    12    1
    29    12    13    1
    30    13    14    1
    31    14    15    1
    32    16    15    1
    33    16    17    1
    34    17    18    1
