@<TRIPOS>MOLECULE
3ag2_DMU_C_1.pdb
 33 34 0 0 0
SMALL
GASTEIGER

@<TRIPOS>ATOM
      1  C1        73.8030  344.8280  190.5460 C.2   272  DMU272      0.3077
      2  C2        74.0070  346.0460  189.5670 C.2   272  DMU272      0.2743
      3  C3        72.9220  346.4320  188.5950 C.2   272  DMU272      0.2108
      4  C4        71.6660  345.5590  188.4710 C.3   272  DMU272      0.2615
      5  O5        71.5320  344.3770  189.3490 O.2   272  DMU272     -0.4388
      6  C6        72.5350  344.0120  190.3450 C.2   272  DMU272      0.3364
      7  O7        72.8070  347.8850  188.4070 O.2   272  DMU272     -0.4187
      8  O16       72.1170  343.0190  191.3430 O.2   272  DMU272     -0.4458
      9  C18       72.7730  341.7360  191.3770 C.3   272  DMU272      0.2087
     10  C19       72.3480  340.9680  192.5830 C.3   272  DMU272      0.0475
     11  C22       72.6760  339.4970  192.4970 C.3   272  DMU272      0.0038
     12  C25       71.8630  338.8190  193.5970 C.3   272  DMU272      0.0001
     13  C28       72.4260  337.4640  194.0430 C.3   272  DMU272      0.0000
     14  C31       71.2420  336.6310  194.5810 C.3   272  DMU272      0.0000
     15  C34       71.5970  335.6230  195.7100 C.3   272  DMU272      0.0000
     16  C37       72.7130  334.6000  195.3550 C.3   272  DMU272      0.0000
     17  C40       73.3010  333.9500  196.6340 C.3   272  DMU272      0.0000
     18  C43       73.4810  332.4280  196.6600 C.3   272  DMU272      0.0000
     19  O49       73.9130  345.3030  191.9100 O.2   272  DMU272     -0.2762
     20  O55       74.6450  347.2960  190.3740 O.2   272  DMU272     -0.2798
     21  C57       70.5010  345.7750  187.4360 C.3   272  DMU272      0.2335
     22  O61       69.2580  346.4500  187.7830 O.3   272  DMU272     -0.2159
     23  C5        73.5850  348.9980  186.2040 C.2   272  DMU272      0.3083
     24  C7        73.0340  349.9550  185.1080 C.2   272  DMU272      0.2787
     25  C8        71.4920  350.0260  184.8200 C.2   272  DMU272      0.2575
     26  C9        70.5440  349.2610  185.7550 C.3   272  DMU272      0.2659
     27  O1        71.0400  348.3530  186.7800 O.2   272  DMU272     -0.4384
     28  C10       72.5230  348.2980  187.0390 C.2   272  DMU272      0.3409
     29  O2        71.0600  351.3970  184.6970 O.2   272  DMU272     -0.2839
     30  O3        74.4610  348.0000  185.6130 O.2   272  DMU272     -0.2762
     31  O4        73.7930  349.9740  183.8900 O.2   272  DMU272     -0.2797
     32  C11       69.0290  349.3380  185.5990 C.3   272  DMU272      0.2336
     33  O6        68.5710  348.6880  184.4210 O.3   272  DMU272     -0.2159
@<TRIPOS>BOND
     1    31    24    1
     2    33    32    1
     3    29    25    1
     4    25    24    2
     5    25    26    1
     6    24    23    1
     7    32    26    1
     8    30    23    1
     9    26    27    1
    10    23    28    2
    11    27    28    1
    12    28     7    1
    13    21    22    1
    14    21     4    1
    15     7     3    1
    16     4     3    1
    17     4     5    1
    18     3     2    2
    19     5     6    1
    20     2    20    1
    21     2     1    1
    22     6     1    2
    23     6     8    1
    24     1    19    1
    25     8     9    1
    26     9    10    1
    27    11    10    1
    28    11    12    1
    29    12    13    1
    30    13    14    1
    31    14    15    1
    32    16    15    1
    33    16    17    1
    34    17    18    1
