@<TRIPOS>MOLECULE
3ag3_DMU_G_1.pdb
 33 34 0 0 0
SMALL
GASTEIGER

@<TRIPOS>ATOM
      1  C1        73.5070  346.9780  191.0830 C.2   272  DMU272      0.3077
      2  C2        73.7430  348.3380  190.3300 C.2   272  DMU272      0.2743
      3  C3        72.5500  348.9440  189.6030 C.2   272  DMU272      0.2108
      4  C4        71.2400  348.2890  189.5420 C.3   272  DMU272      0.2615
      5  O5        71.0570  347.0150  190.2520 O.2   272  DMU272     -0.4388
      6  C6        72.1180  346.3350  191.0200 C.2   272  DMU272      0.3364
      7  O7        72.6430  350.3410  189.1930 O.2   272  DMU272     -0.4187
      8  O16       71.6510  345.3750  192.0650 O.2   272  DMU272     -0.4458
      9  C18       72.3070  344.1270  192.4190 C.3   272  DMU272      0.2087
     10  C19       71.6000  343.3240  193.4800 C.3   272  DMU272      0.0475
     11  C22       71.9200  341.8350  193.4280 C.3   272  DMU272      0.0038
     12  C25       71.1630  341.0530  194.5070 C.3   272  DMU272      0.0001
     13  C28       71.9440  339.8430  194.9890 C.3   272  DMU272      0.0000
     14  C31       71.1320  338.7070  195.6250 C.3   272  DMU272      0.0000
     15  C34       72.1220  337.8160  196.4170 C.3   272  DMU272      0.0000
     16  C37       72.1470  336.2850  196.1650 C.3   272  DMU272      0.0000
     17  C40       73.1870  335.5550  197.0410 C.3   272  DMU272      0.0000
     18  C43       72.6370  334.3860  197.8350 C.3   272  DMU272      0.0000
     19  O49       74.0580  347.0010  192.4280 O.2   272  DMU272     -0.2762
     20  O55       74.5200  349.2670  191.1200 O.2   272  DMU272     -0.2798
     21  C57       70.0950  349.0140  188.7650 C.3   272  DMU272      0.2335
     22  O61       68.9490  348.3820  188.1370 O.3   272  DMU272     -0.2159
     23  C5        73.8270  350.9120  187.0060 C.2   272  DMU272      0.3083
     24  C7        73.7060  351.9300  185.8270 C.2   272  DMU272      0.2787
     25  C8        72.3180  352.4580  185.4000 C.2   272  DMU272      0.2575
     26  C9        71.1270  352.0140  186.2060 C.3   272  DMU272      0.2659
     27  O1        71.2160  351.1170  187.3360 O.2   272  DMU272     -0.4384
     28  C10       72.5300  350.6040  187.7480 C.2   272  DMU272      0.3409
     29  O2        72.3840  353.8830  185.4310 O.2   272  DMU272     -0.2839
     30  O3        74.4070  349.6530  186.5990 O.2   272  DMU272     -0.2762
     31  O4        74.4250  351.6390  184.6230 O.2   272  DMU272     -0.2797
     32  C11       69.7530  352.5210  185.8250 C.3   272  DMU272      0.2336
     33  O6        69.0530  351.4840  185.1410 O.3   272  DMU272     -0.2159
@<TRIPOS>BOND
     1    31    24    1
     2    33    32    1
     3    25    29    1
     4    25    24    2
     5    25    26    1
     6    32    26    1
     7    24    23    1
     8    26    27    1
     9    30    23    1
    10    23    28    2
    11    27    28    1
    12    28     7    1
    13    22    21    1
    14    21     4    1
    15     7     3    1
    16     4     3    1
    17     4     5    1
    18     3     2    2
    19     5     6    1
    20     2     1    1
    21     2    20    1
    22     6     1    2
    23     6     8    1
    24     1    19    1
    25     8     9    1
    26     9    10    1
    27    11    10    1
    28    11    12    1
    29    12    13    1
    30    13    14    1
    31    14    15    1
    32    16    15    1
    33    16    17    1
    34    17    18    1
