@<TRIPOS>MOLECULE
3ag4_DMU_G_1.pdb
 33 34 0 0 0
SMALL
GASTEIGER

@<TRIPOS>ATOM
      1  C1        73.9800  345.1210  190.0910 C.2   272  DMU272      0.3077
      2  C2        73.9650  346.4200  189.2390 C.2   272  DMU272      0.2743
      3  C3        72.7890  346.6250  188.3080 C.2   272  DMU272      0.2108
      4  C4        71.7090  345.6380  188.2060 C.3   272  DMU272      0.2615
      5  O5        71.7390  344.4030  188.9940 O.2   272  DMU272     -0.4388
      6  C6        72.8370  344.1290  189.9280 C.2   272  DMU272      0.3364
      7  O7        72.5880  347.9840  187.8000 O.2   272  DMU272     -0.4187
      8  O16       72.5510  343.2060  191.0470 O.2   272  DMU272     -0.4458
      9  C18       73.0460  341.8200  191.1060 C.3   272  DMU272      0.2087
     10  C19       72.2530  340.8950  192.0390 C.3   272  DMU272      0.0475
     11  C22       73.0970  339.7210  192.6940 C.3   272  DMU272      0.0038
     12  C25       72.0720  338.7710  193.3710 C.3   272  DMU272      0.0001
     13  C28       72.6220  337.4810  193.9960 C.3   272  DMU272      0.0000
     14  C31       71.5110  336.5390  194.4950 C.3   272  DMU272      0.0000
     15  C34       71.8500  335.8010  195.7990 C.3   272  DMU272      0.0000
     16  C37       71.9670  334.2660  195.7650 C.3   272  DMU272      0.0000
     17  C40       73.4220  333.7380  195.7760 C.3   272  DMU272      0.0000
     18  C43       73.6470  332.5220  196.6650 C.3   272  DMU272      0.0000
     19  O49       74.1400  345.4850  191.4710 O.2   272  DMU272     -0.2762
     20  O55       74.1360  347.5690  190.0850 O.2   272  DMU272     -0.2798
     21  C57       70.5650  345.9200  187.2270 C.3   272  DMU272      0.2335
     22  O61       69.2520  345.4810  187.5560 O.3   272  DMU272     -0.2159
     23  C5        73.9510  348.5930  185.7500 C.2   272  DMU272      0.3083
     24  C7        73.8440  349.4440  184.4530 C.2   272  DMU272      0.2787
     25  C8        72.4670  349.6740  183.7940 C.2   272  DMU272      0.2575
     26  C9        71.2480  349.1080  184.4930 C.3   272  DMU272      0.2659
     27  O1        71.3330  348.3400  185.7220 O.2   272  DMU272     -0.4384
     28  C10       72.6410  348.1180  186.3450 C.2   272  DMU272      0.3409
     29  O2        72.3200  351.0800  183.6100 O.2   272  DMU272     -0.2839
     30  O3        74.7770  347.4370  185.5490 O.2   272  DMU272     -0.2762
     31  O4        74.7830  349.1350  183.4180 O.2   272  DMU272     -0.2797
     32  C11       69.8710  349.3320  183.8890 C.3   272  DMU272      0.2336
     33  O6        68.8290  349.0790  184.8320 O.3   272  DMU272     -0.2159
@<TRIPOS>BOND
     1    31    24    1
     2    29    25    1
     3    25    24    2
     4    25    26    1
     5    32    26    1
     6    32    33    1
     7    24    23    1
     8    26    27    1
     9    30    23    1
    10    27    28    1
    11    23    28    2
    12    28     7    1
    13    21    22    1
    14    21     4    1
    15     7     3    1
    16     4     3    1
    17     4     5    1
    18     3     2    2
    19     5     6    1
    20     2    20    1
    21     2     1    1
    22     6     1    2
    23     6     8    1
    24     1    19    1
    25     8     9    1
    26     9    10    1
    27    10    11    1
    28    11    12    1
    29    12    13    1
    30    13    14    1
    31    14    15    1
    32    16    17    1
    33    16    15    1
    34    17    18    1
