@<TRIPOS>MOLECULE
3ag6_PAJ_A_1.pdb
 32 34 0 0 0
SMALL
GASTEIGER

@<TRIPOS>ATOM
      1  P         -5.2700   -4.9890  -42.9640 P.3   501  PAJ501      0.2723
      2  O1P       -6.7130   -4.8560  -43.2620 O.3   501  PAJ501     -0.4273
      3  O2P       -4.6900   -6.2740  -43.7250 O.2   501  PAJ501     -0.5082
      4  O5'       -4.4920   -3.6690  -43.4760 O.3   501  PAJ501     -0.3024
      5  C5'       -3.1260   -3.6480  -42.9890 C.3   501  PAJ501      0.1823
      6  C4'       -2.6070   -2.2150  -43.1830 C.3   501  PAJ501      0.1822
      7  O4'       -2.7440   -1.9430  -44.5910 O.3   501  PAJ501     -0.3135
      8  C3'       -3.5290   -1.2430  -42.4180 C.3   501  PAJ501      0.2184
      9  O3'       -2.7320   -0.3530  -41.6180 O.3   501  PAJ501     -0.2174
     10  C2'       -4.2750   -0.4850  -43.5280 C.3   501  PAJ501      0.2570
     11  O2'       -4.6140    0.8570  -43.1710 O.3   501  PAJ501     -0.2130
     12  C1'       -3.3060   -0.6110  -44.7240 C.3   501  PAJ501      0.3186
     13  N9        -4.0270   -0.4960  -45.9880 N.pl3 501  PAJ501     -0.1439
     14  C8        -5.0080   -1.3280  -46.4620 C.3   501  PAJ501      0.3377
     15  N7        -5.4200   -0.9160  -47.6250 N.2   501  PAJ501     -0.2095
     16  C5        -4.7320    0.1990  -47.9680 C.2   501  PAJ501      0.2526
     17  C6        -4.7270    1.0820  -49.0830 C.2   501  PAJ501      0.4393
     18  N6        -5.5810    0.8730  -50.1460 N.pl3 501  PAJ501      0.2180
     19  N1        -3.8710    2.1310  -49.0820 N.2   501  PAJ501      0.0021
     20  C2        -3.0340    2.3560  -48.0660 C.3   501  PAJ501      0.5254
     21  N3        -3.0060    1.5500  -46.9990 N.2   501  PAJ501     -0.0055
     22  C4        -3.8250    0.4780  -46.9150 C.2   501  PAJ501      0.3518
     23  O11       -5.6160   -3.1480  -40.6710 O.2   501  PAJ501     -0.2470
     24  C11       -5.4120   -4.3220  -40.3940 C.2   501  PAJ501      0.3518
     25  O12       -5.0650   -5.2200  -41.3550 O.3   501  PAJ501     -0.4083
     26  C12       -5.5350   -4.8010  -38.9450 C.3   501  PAJ501      0.2522
     27  O13       -6.3800   -3.9140  -38.2110 O.3   501  PAJ501     -0.2110
     28  C13       -4.1430   -4.9150  -38.2160 C.3   501  PAJ501      0.0693
     29  C14       -3.1810   -5.8350  -38.9920 C.3   501  PAJ501      0.0057
     30  C15       -3.4880   -3.5290  -38.0530 C.3   501  PAJ501      0.0057
     31  C16       -4.3500   -5.5140  -36.8090 C.3   501  PAJ501      0.1850
     32  O14       -4.9810   -6.7980  -36.8990 O.3   501  PAJ501     -0.2203
@<TRIPOS>BOND
     1    18    17    1
     2    17    19    2
     3    17    16    1
     4    19    20    1
     5    20    21    1
     6    16    15    2
     7    16    22    1
     8    15    14    1
     9    21    22    2
    10    22    13    1
    11    14    13    1
    12    13    12    1
    13    12     7    1
    14    12    10    1
    15     7     6    1
    16     3     1    2
    17    10    11    1
    18    10     8    1
    19     4     5    1
    20     4     1    1
    21     2     1    1
    22     6     5    1
    23     6     8    1
    24     1    25    1
    25     8     9    1
    26    25    24    1
    27    23    24    2
    28    24    26    1
    29    29    28    1
    30    26    28    1
    31    26    27    1
    32    28    30    1
    33    28    31    1
    34    32    31    1
