@<TRIPOS>MOLECULE
3aga_RCC_A_1.pdb
 46 50 0 0 0
SMALL
GASTEIGER

@<TRIPOS>ATOM
      1  NA       -12.0210    8.4060  -14.7680 N.2   1000  RCC1000    -0.4183
      2  NB        -9.1830    8.8770  -14.8280 N.2   1000  RCC1000    -0.3372
      3  OB        -7.6230   10.5810  -14.7940 O.2   1000  RCC1000    -0.2093
      4  NC        -9.7540   12.1900  -16.5670 N.2   1000  RCC1000    -0.4031
      5  OC        -7.4550   10.9770  -19.1030 O.2   1000  RCC1000    -0.2803
      6  ND       -11.9570   11.4290  -14.6850 N.2   1000  RCC1000    -0.4099
      7  C1A      -13.4390    8.5300  -14.7130 C.2   1000  RCC1000     0.0931
      8  O1A      -17.6250    6.2480  -14.1080 O.co2 1000  RCC1000    -0.2457
      9  C1B       -9.1960    7.4780  -14.9110 C.2   1000  RCC1000     0.1254
     10  C1C       -8.6020   12.1090  -17.3520 C.2   1000  RCC1000     0.1688
     11  C1D      -11.9290   12.8300  -14.6630 C.2   1000  RCC1000     0.1118
     12  O1D      -15.7640    8.9780  -12.4620 O.2   1000  RCC1000    -0.2496
     13  C2A      -14.0820    7.1380  -14.7280 C.3   1000  RCC1000     0.0554
     14  O2A      -16.2210    4.5970  -13.6790 O.co2 1000  RCC1000    -0.2457
     15  C2B       -7.7520    7.0410  -15.0100 C.2   1000  RCC1000     0.0168
     16  C2C       -7.7120   13.1490  -16.9420 C.2   1000  RCC1000     0.0092
     17  C2D      -13.2610   13.3290  -14.6240 C.2   1000  RCC1000     0.0089
     18  O2D      -17.6190    9.9170  -13.3860 O.3   1000  RCC1000    -0.4441
     19  C3A      -12.8620    6.1770  -14.8000 C.3   1000  RCC1000     0.0548
     20  C3B       -6.9380    8.1800  -14.9770 C.2   1000  RCC1000     0.0929
     21  C3C       -8.3650   13.8680  -15.8760 C.2   1000  RCC1000     0.0022
     22  C3D      -14.1170   12.1890  -14.6190 C.2   1000  RCC1000     0.0592
     23  C4A      -11.6710    7.1470  -14.8210 C.2   1000  RCC1000     0.0929
     24  C4B       -7.8680    9.3710  -14.8580 C.1   1000  RCC1000     0.2041
     25  C4C       -9.6310   13.2460  -15.6700 C.2   1000  RCC1000     0.1119
     26  C4D      -13.2720   11.0330  -14.6580 C.2   1000  RCC1000     0.1179
     27  CAA      -15.0350    6.9110  -15.9060 C.3   1000  RCC1000     0.0189
     28  CAB       -5.4790    8.3270  -15.0370 C.2   1000  RCC1000     0.0124
     29  CAC       -7.8180   15.0370  -15.1400 C.3   1000  RCC1000     0.0284
     30  CAD      -15.5120   11.7780  -14.5880 C.2   1000  RCC1000     0.1860
     31  CBA      -15.9230    5.6660  -15.8160 C.3   1000  RCC1000     0.1145
     32  CBB       -4.5450    7.3620  -15.1410 C.2   1000  RCC1000     0.0008
     33  CBC       -7.1120   14.6610  -13.8560 C.3   1000  RCC1000     0.0051
     34  CBD      -15.5100   10.2090  -14.6120 C.3   1000  RCC1000     0.1734
     35  OBD      -16.5350   12.4650  -14.5530 O.2   1000  RCC1000    -0.2907
     36  CED      -18.4310    9.4330  -12.2890 C.3   1000  RCC1000     0.2556
     37  CGA      -16.6760    5.5740  -14.5150 C.2   1000  RCC1000     0.3649
     38  CGD      -16.2560    9.6380  -13.3920 C.2   1000  RCC1000     0.3249
     39  CHA      -14.0230    9.7830  -14.6630 C.3   1000  RCC1000     0.1182
     40  CHB      -10.2980    6.6670  -14.9020 C.3   1000  RCC1000     0.1138
     41  CHC       -8.4490   11.0890  -18.3860 C.2   1000  RCC1000     0.2656
     42  CHD      -10.6750   13.6340  -14.6760 C.3   1000  RCC1000     0.1171
     43  CMA      -12.8340    5.2730  -13.5900 C.3   1000  RCC1000     0.0075
     44  CMB       -7.4040    5.6190  -15.1200 C.3   1000  RCC1000     0.0342
     45  CMC       -6.3840   13.4410  -17.4930 C.3   1000  RCC1000     0.0336
     46  CMD      -13.6640   14.7410  -14.5950 C.3   1000  RCC1000     0.0335
@<TRIPOS>BOND
     1     5    41    2
     2    41    10    1
     3    45    16    1
     4    10    16    1
     5    10     4    2
     6    16    21    2
     7     4    25    2
     8    27    31    1
     9    27    13    1
    10    21    25    1
    11    21    29    1
    12    31    37    1
    13    25    42    1
    14    32    28    2
    15    29    33    1
    16    44    15    1
    17    28    20    1
    18    15    20    2
    19    15     9    1
    20    20    24    1
    21     9    40    1
    22     9     2    2
    23    40    23    1
    24    24     2    2
    25    24     3    2
    26    23    19    1
    27    23     1    2
    28    19    13    1
    29    19    43    1
    30     1     7    2
    31    13     7    1
    32     7    39    1
    33     6    11    2
    34     6    26    2
    35    42    11    1
    36    11    17    1
    37    39    26    1
    38    39    34    1
    39    26    22    1
    40    17    22    2
    41    17    46    1
    42    22    30    1
    43    34    30    1
    44    34    38    1
    45    30    35    2
    46    37     8   ar
    47    37    14   ar
    48    38    18    1
    49    38    12    2
    50    18    36    1
