@<TRIPOS>MOLECULE
3agc_RCC_A_1.pdb
 46 50 0 0 0
SMALL
GASTEIGER

@<TRIPOS>ATOM
      1  NA       -12.1530    8.2610  -14.2460 N.2   1000  RCC1000    -0.4183
      2  NB        -9.2870    8.1530  -14.5230 N.2   1000  RCC1000    -0.3372
      3  OB        -7.3270    9.3900  -14.6180 O.2   1000  RCC1000    -0.2093
      4  NC        -9.0700   12.4100  -16.2670 N.2   1000  RCC1000    -0.4031
      5  OC        -8.4030   10.7670  -18.3840 O.2   1000  RCC1000    -0.2803
      6  ND       -11.5810   11.3300  -14.3580 N.2   1000  RCC1000    -0.4139
      7  C1A      -13.3920    8.6300  -14.5780 C.2   1000  RCC1000     0.0931
      8  O1A      -17.7380    6.9720  -14.8430 O.co2 1000  RCC1000    -0.2457
      9  C1B       -9.5020    6.8140  -14.5990 C.2   1000  RCC1000     0.1254
     10  C1C       -8.1070   12.7440  -17.1600 C.2   1000  RCC1000     0.1688
     11  C1D      -11.4190   12.7030  -14.4400 C.2   1000  RCC1000     0.0971
     12  O1D      -16.0290    9.6610  -13.1820 O.2   1000  RCC1000    -0.2496
     13  C2A      -14.2930    7.4270  -14.6920 C.3   1000  RCC1000     0.0554
     14  O2A      -16.6680    5.1490  -14.2250 O.co2 1000  RCC1000    -0.2457
     15  C2B       -8.3150    6.0990  -14.7650 C.2   1000  RCC1000     0.0168
     16  C2C       -7.5420   13.9660  -16.8670 C.2   1000  RCC1000     0.0092
     17  C2D      -12.6510   13.2950  -14.7980 C.3   1000  RCC1000     0.0758
     18  O2D      -17.5810   10.8440  -14.4190 O.3   1000  RCC1000    -0.4441
     19  C3A      -13.3750    6.2810  -14.2820 C.3   1000  RCC1000     0.0548
     20  C3B       -7.2910    7.0410  -14.7940 C.2   1000  RCC1000     0.0929
     21  C3C       -8.2590   14.4070  -15.6510 C.2   1000  RCC1000     0.0022
     22  C3D      -13.5530   12.2770  -14.9330 C.2   1000  RCC1000     0.0448
     23  C4A      -12.0330    6.9370  -14.3340 C.2   1000  RCC1000     0.0929
     24  C4B       -7.9420    8.2590  -14.6420 C.1   1000  RCC1000     0.2041
     25  C4C       -9.1820   13.4100  -15.3400 C.2   1000  RCC1000     0.1116
     26  C4D      -12.9240   11.1320  -14.6760 C.2   1000  RCC1000     0.1142
     27  CAA      -14.8650    7.2660  -16.1000 C.3   1000  RCC1000     0.0189
     28  CAB       -5.8170    6.8570  -14.9500 C.2   1000  RCC1000     0.0124
     29  CAC       -8.0800   15.6630  -14.8690 C.3   1000  RCC1000     0.0284
     30  CAD      -14.8830   12.0670  -15.2520 C.2   1000  RCC1000     0.1827
     31  CBA      -15.9620    6.2040  -16.2340 C.3   1000  RCC1000     0.1145
     32  CBB       -5.2420    5.6750  -15.0910 C.2   1000  RCC1000     0.0008
     33  CBC       -7.0750   16.7270  -15.2350 C.3   1000  RCC1000     0.0051
     34  CBD      -15.1480   10.5970  -15.1880 C.3   1000  RCC1000     0.1731
     35  OBD      -15.7480   12.9720  -15.5450 O.2   1000  RCC1000    -0.2910
     36  CED      -18.3610   11.3890  -13.3530 C.3   1000  RCC1000     0.2556
     37  CGA      -16.8530    6.1030  -15.0140 C.2   1000  RCC1000     0.3649
     38  CGD      -16.2380   10.3210  -14.1890 C.2   1000  RCC1000     0.3248
     39  CHA      -13.7950   10.0600  -14.7960 C.3   1000  RCC1000     0.1179
     40  CHB      -10.8810    6.2540  -14.5120 C.3   1000  RCC1000     0.1138
     41  CHC       -7.7940   11.8180  -18.2770 C.2   1000  RCC1000     0.2656
     42  CHD      -10.1310   13.4430  -14.1670 C.3   1000  RCC1000     0.1131
     43  CMA      -13.6980    5.7790  -12.8840 C.3   1000  RCC1000     0.0075
     44  CMB       -8.2040    4.6230  -14.8850 C.3   1000  RCC1000     0.0342
     45  CMC       -6.4630   14.6550  -17.6130 C.3   1000  RCC1000     0.0336
     46  CMD      -13.0270   14.7130  -15.0180 C.3   1000  RCC1000     0.0120
@<TRIPOS>BOND
     1     5    41    2
     2    41    10    1
     3    45    16    1
     4    10    16    1
     5    10     4    2
     6    16    21    2
     7     4    25    2
     8    31    27    1
     9    31    37    1
    10    27    13    1
    11    21    25    1
    12    21    29    1
    13    35    30    1
    14    25    42    1
    15    30    34    1
    16    30    22    2
    17    33    29    1
    18    34    39    1
    19    34    38    1
    20    32    28    2
    21    46    17    1
    22    37     8   ar
    23    37    14   ar
    24    28    20    1
    25    22    17    1
    26    22    26    1
    27    44    15    1
    28    17    11    1
    29    39    26    1
    30    39     7    1
    31    20    15    2
    32    20    24    1
    33    15     9    1
    34    13     7    1
    35    13    19    1
    36    26     6    2
    37    24     3    2
    38    24     2    2
    39     9     2    2
    40     9    40    1
    41     7     1    2
    42    40    23    1
    43    11     6    2
    44    11    42    1
    45    18    38    1
    46    18    36    1
    47    23    19    1
    48    23     1    2
    49    19    43    1
    50    38    12    2
