@<TRIPOS>MOLECULE
3age_GLU_A_1.pdb
 10 9 0 0 0
SMALL
GASTEIGER

@<TRIPOS>ATOM
      1  N         61.1490   15.8530    2.0700 N.3   500  GLU500     -0.1208
      2  CA        61.8670   15.3770    3.2830 C.3   500  GLU500      0.1949
      3  C         61.8940   13.8660    3.4050 C.2   500  GLU500      0.3819
      4  O         62.9930   13.3490    3.6720 O.co2 500  GLU500     -0.2441
      5  CB        61.2400   15.9570    4.5530 C.3   500  GLU500      0.0424
      6  CG        61.8440   17.2610    4.9650 C.3   500  GLU500      0.1161
      7  CD        61.5240   17.6290    6.3920 C.2   500  GLU500      0.3649
      8  OE1       61.6590   16.7700    7.2860 O.co2 500  GLU500     -0.2457
      9  OE2       61.1520   18.7920    6.6240 O.co2 500  GLU500     -0.2457
     10  OXT       60.8310   13.2240    3.2510 O.co2 500  GLU500     -0.2441
@<TRIPOS>BOND
     1     1     2    1
     2    10     3   ar
     3     2     3    1
     4     2     5    1
     5     3     4   ar
     6     5     6    1
     7     6     7    1
     8     7     9   ar
     9     7     8   ar
