@<TRIPOS>MOLECULE
3agi_ARG_A_1.pdb
 12 11 0 0 0
SMALL
GASTEIGER

@<TRIPOS>ATOM
      1  N          4.4030   25.2110   11.8920 N.3   131  ARG131     -0.1208
      2  CA         3.9450   26.2200   12.8430 C.3   131  ARG131      0.1944
      3  C          4.5210   27.6320   12.5690 C.2   131  ARG131      0.3819
      4  O          3.8030   28.6080   12.3170 O.co2 131  ARG131     -0.2441
      5  CB         4.3410   25.8290   14.2550 C.3   131  ARG131      0.0343
      6  CG         3.3840   24.9930   14.9870 C.3   131  ARG131      0.0490
      7  CD         2.7770   24.0070   14.0680 C.3   131  ARG131      0.2205
      8  NE         1.5450   23.6450   14.6790 N.pl3 131  ARG131     -0.0865
      9  CZ         1.4700   22.9470   15.7690 C.cat 131  ARG131      0.5346
     10  NH1        2.5730   22.5010   16.3180 N.pl3 131  ARG131      0.1354
     11  NH2        0.3200   22.6140   16.2810 N.pl3 131  ARG131      0.1354
     12  OXT        5.7450   27.8940   12.2260 O.co2 131  ARG131     -0.2441
@<TRIPOS>BOND
     1     1     2    1
     2    12     3   ar
     3     4     3   ar
     4     3     2    1
     5     2     5    1
     6     7     8    1
     7     7     6    1
     8     5     6    1
     9     8     9    2
    10     9    11    1
    11     9    10    1
