@<TRIPOS>MOLECULE
3agj_GTP_A_1.pdb
 32 34 0 0 0
SMALL
GASTEIGER

@<TRIPOS>ATOM
      1  PG       -24.7180   52.5010   12.6920 P.3   438  GTP438      0.5373
      2  O1G      -24.6640   53.9340   12.2550 O.2   438  GTP438     -0.2221
      3  O2G      -23.3870   51.8660   12.3960 O.3   438  GTP438     -0.1143
      4  O3G      -25.0260   52.4290   14.1690 O.3   438  GTP438     -0.1143
      5  O3B      -25.8760   51.6750   11.9240 O.3   438  GTP438     -0.2258
      6  PB       -25.8190   51.3430   10.3640 P.3   438  GTP438      0.2277
      7  O1B      -25.6870   52.6060    9.5620 O.2   438  GTP438     -0.5168
      8  O2B      -24.7100   50.4000   10.0050 O.3   438  GTP438     -0.4368
      9  O3A      -27.2310   50.6340   10.0390 O.3   438  GTP438     -0.2700
     10  PA       -27.5520   49.1360   10.4950 P.3   438  GTP438      0.2189
     11  O1A      -27.2340   48.9370   11.9560 O.3   438  GTP438     -0.4371
     12  O2A      -26.8010   48.1570    9.6240 O.2   438  GTP438     -0.5170
     13  O5'      -29.1460   49.0380   10.4160 O.3   438  GTP438     -0.3112
     14  C5'      -29.9880   50.0780   10.8750 C.3   438  GTP438      0.1813
     15  C4'      -31.4170   49.6040   10.6410 C.3   438  GTP438      0.1799
     16  O4'      -31.7830   49.9570    9.3150 O.3   438  GTP438     -0.3326
     17  C3'      -31.5240   48.0900   10.7460 C.3   438  GTP438      0.2158
     18  O3'      -32.7280   47.7510   11.3900 O.3   438  GTP438     -0.2175
     19  C2'      -31.6200   47.6440    9.3080 C.3   438  GTP438      0.2310
     20  O2'      -32.4070   46.4860    9.1680 O.3   438  GTP438     -0.2158
     21  C1'      -32.2660   48.8290    8.6230 C.3   438  GTP438      0.2293
     22  N9       -31.8520   48.8440    7.2200 N.pl3 438  GTP438     -0.2354
     23  C8       -30.5740   48.9150    6.7540 C.3   438  GTP438      0.2246
     24  N7       -30.6090   48.9080    5.4090 N.2   438  GTP438     -0.2322
     25  C5       -31.8940   48.8320    4.9980 C.2   438  GTP438      0.2182
     26  C6       -32.4860   48.7870    3.7290 C.1   438  GTP438      0.2372
     27  O6       -31.8150   48.8150    2.6900 O.2   438  GTP438     -0.2069
     28  N1       -33.8540   48.7180    3.6440 N.2   438  GTP438     -0.2485
     29  C2       -34.6090   48.6870    4.7920 C.1   438  GTP438      0.2531
     30  N2       -35.9240   48.6130    4.6890 N.pl3 438  GTP438     -0.0226
     31  N3       -34.0260   48.7280    6.0420 N.2   438  GTP438     -0.3074
     32  C4       -32.6800   48.7970    6.1410 C.2   438  GTP438      0.2300
@<TRIPOS>BOND
     1    27    26    2
     2    28    26    2
     3    28    29    2
     4    26    25    1
     5    30    29    1
     6    29    31    2
     7    25    24    2
     8    25    32    1
     9    24    23    1
    10    31    32    2
    11    32    22    1
    12    23    22    1
    13    22    21    1
    14    21    19    1
    15    21    16    1
    16    20    19    1
    17    19    17    1
    18    16    15    1
    19     7     6    2
    20    12    10    2
    21     8     6    1
    22     9     6    1
    23     9    10    1
    24     6     5    1
    25    13    10    1
    26    13    14    1
    27    10    11    1
    28    15    17    1
    29    15    14    1
    30    17    18    1
    31     5     1    1
    32     2     1    2
    33     3     1    1
    34     1     4    1
