@<TRIPOS>MOLECULE
3agm_69P_B_1.pdb
 15 17 0 0 0
SMALL
GASTEIGER

@<TRIPOS>ATOM
      1  N1       -17.1780   14.5890   11.4160 N.2     1  69P1       -0.0336
      2  C2       -15.8610   14.5550   11.1780 C.3     1  69P1        0.4005
      3  N3       -15.3780   14.6120    9.9500 N.2     1  69P1       -0.1640
      4  C4       -16.2100   14.7090    8.9020 C.1     1  69P1        0.0576
      5  C5       -17.5890   14.7570    9.1030 C.2     1  69P1        0.2219
      6  C6       -18.0720   14.7020   10.4140 C.2     1  69P1        0.3480
      7  N6       -19.4500   14.7160   10.7570 N.pl3   1  69P1       -0.1860
      8  N7       -18.1480   14.8680    7.8920 N.2     1  69P1       -0.2269
      9  C8       -17.1810   14.8780    6.9730 C.3     1  69P1        0.2618
     10  N9       -15.9950   14.7830    7.5960 N.2     1  69P1       -0.1914
     11  CBV      -21.1750   15.1510   12.5630 C.3     1  69P1        0.1395
     12  CBW      -21.8680   15.0620   10.1160 C.3     1  69P1        0.1395
     13  CBX      -19.7780   14.6030   12.2170 C.3     1  69P1        0.2213
     14  CBY      -20.4860   14.5850    9.6820 C.3     1  69P1        0.2213
     15  NDM      -22.1060   14.6470   11.5160 N.3     1  69P1       -0.2093
@<TRIPOS>BOND
     1     9    10    1
     2     9     8    1
     3    10     4    2
     4     8     5    2
     5     4     5    1
     6     4     3    2
     7     5     6    1
     8    14    12    1
     9    14     7    1
    10     3     2    1
    11    12    15    1
    12     6     7    1
    13     6     1    2
    14     7    13    1
    15     2     1    1
    16    15    11    1
    17    13    11    1
