@<TRIPOS>MOLECULE
3agm_OCE_B_1.pdb
 10 9 0 0 0
SMALL
GASTEIGER

@<TRIPOS>ATOM
      1  OAO      -30.1610   10.9480    9.2280 O.2     2  OCE2       -0.2883
      2  OAP      -23.2540   13.4840   13.0160 O.2     2  OCE2       -0.2883
      3  CAX      -26.5160   11.8030    9.5140 C.3     2  OCE2        0.0005
      4  CAY      -25.5030   11.1680   10.4630 C.3     2  OCE2        0.0005
      5  CAZ      -27.3140   10.7440    8.7380 C.3     2  OCE2        0.0082
      6  CBA      -24.9720   12.2060   11.4600 C.3     2  OCE2        0.0082
      7  CBN      -28.2980   11.4590    7.8100 C.3     2  OCE2        0.0722
      8  CBO      -24.0590   13.2500   10.7820 C.3     2  OCE2        0.0722
      9  CCW      -29.6000   11.7980    8.5410 C.2     2  OCE2        0.2074
     10  CCX      -23.0970   13.8020   11.8370 C.2     2  OCE2        0.2074
@<TRIPOS>BOND
     1     7     9    1
     2     7     5    1
     3     9     1    2
     4     5     3    1
     5     3     4    1
     6     4     6    1
     7     8     6    1
     8     8    10    1
     9    10     2    2
