@<TRIPOS>MOLECULE
3agm_DAR_B_1.pdb
 11 10 0 0 0
SMALL
GASTEIGER

@<TRIPOS>ATOM
      1  N        -30.0470   13.0510    8.4100 N.3     3  DAR3       -0.1245
      2  CA       -31.3120   13.4820    9.0580 C.3     3  DAR3        0.1563
      3  CB       -31.8050   14.8180    8.4490 C.3     3  DAR3        0.0307
      4  CG       -32.2260   15.8380    9.5220 C.3     3  DAR3        0.0489
      5  CD       -32.7220   17.1460    8.9120 C.3     3  DAR3        0.2205
      6  NE       -31.6560   17.5380    8.0020 N.pl3   3  DAR3       -0.0865
      7  CZ       -30.9840   18.6810    8.0600 C.cat   3  DAR3        0.5346
      8  NH1      -31.2440   19.6860    8.8950 N.pl3   3  DAR3        0.1354
      9  NH2      -30.0320   18.7860    7.1650 N.pl3   3  DAR3        0.1354
     10  C        -31.1410   13.5470   10.5820 C.2     3  DAR3        0.2260
     11  O        -30.0360   13.7490   11.0850 O.2     3  DAR3       -0.2867
@<TRIPOS>BOND
     1     9     7    1
     2     6     7    2
     3     6     5    1
     4     7     8    1
     5     1     2    1
     6     3     2    1
     7     3     4    1
     8     5     4    1
     9     2    10    1
    10    10    11    2
