@<TRIPOS>MOLECULE
3agn_3AM_A_1.pdb
 23 25 0 0 0
SMALL
GASTEIGER

@<TRIPOS>ATOM
      1  O1P       -1.1070   -9.1340    7.0270 O.3   115  3AM115     -0.1145
      2  P         -2.5150   -8.6120    7.1920 P.3   115  3AM115      0.5327
      3  O2P       -3.3310   -8.8450    5.9420 O.2   115  3AM115     -0.2224
      4  O3P       -2.6120   -7.2230    7.6830 O.3   115  3AM115     -0.1145
      5  O2'       -4.8890  -10.2260   10.2550 O.3   115  3AM115     -0.2131
      6  C2'       -3.5570   -9.8870   10.6390 C.3   115  3AM115      0.2543
      7  C3'       -2.6070  -10.0000    9.4660 C.3   115  3AM115      0.1929
      8  O3'       -3.2520   -9.5800    8.2690 O.3   115  3AM115     -0.2673
      9  C1'       -3.0240  -10.9130   11.5960 C.3   115  3AM115      0.3185
     10  O4'       -2.2770  -11.8630   10.8470 O.3   115  3AM115     -0.3135
     11  C4'       -2.2590  -11.4790    9.4640 C.3   115  3AM115      0.1824
     12  C5'       -0.9170  -11.8260    8.9010 C.3   115  3AM115      0.2142
     13  O5'       -0.7810  -13.1980    8.6330 O.3   115  3AM115     -0.2176
     14  N9        -2.1580  -10.3400   12.6580 N.pl3 115  3AM115     -0.1439
     15  C8        -2.6540   -9.9430   13.8530 C.3   115  3AM115      0.3377
     16  N7        -1.7030   -9.4800   14.6740 N.2   115  3AM115     -0.2095
     17  C5        -0.5600   -9.6020   13.9750 C.2   115  3AM115      0.2526
     18  C6         0.8140   -9.3860   14.2880 C.2   115  3AM115      0.4393
     19  N6         1.2080   -8.9030   15.4590 N.pl3 115  3AM115      0.2180
     20  C4        -0.8280  -10.1580   12.6710 C.2   115  3AM115      0.3518
     21  N3         0.1050  -10.3920   11.7350 N.2   115  3AM115     -0.0055
     22  C2         1.3530  -10.1540   12.1100 C.3   115  3AM115      0.5254
     23  N1         1.7050   -9.7110   13.3390 N.2   115  3AM115      0.0021
@<TRIPOS>BOND
     1     3     2    2
     2     1     2    1
     3     2     4    1
     4     2     8    1
     5     8     7    1
     6    13    12    1
     7    12    11    1
     8    11     7    1
     9    11    10    1
    10     7     6    1
    11     5     6    1
    12     6     9    1
    13    10     9    1
    14     9    14    1
    15    21    22    1
    16    21    20    2
    17    22    23    1
    18    14    20    1
    19    14    15    1
    20    20    17    1
    21    23    18    2
    22    15    16    1
    23    17    18    1
    24    17    16    2
    25    18    19    1
