@<TRIPOS>MOLECULE
3ago_3AM_A_1.pdb
 23 25 0 0 0
SMALL
GASTEIGER

@<TRIPOS>ATOM
      1  O1P        6.4440    8.8940    2.1840 O.3   115  3AM115     -0.1145
      2  P          7.3010    8.2460    0.9730 P.3   115  3AM115      0.5327
      3  O2P        6.4350    8.3750   -0.2310 O.2   115  3AM115     -0.2224
      4  O3P        7.6690    6.9510    1.4490 O.3   115  3AM115     -0.1145
      5  O2'       10.7780    9.9950    0.2140 O.3   115  3AM115     -0.2131
      6  C2'       10.6280    9.5700    1.5730 C.3   115  3AM115      0.2543
      7  C3'        9.1840    9.7500    1.9970 C.3   115  3AM115      0.1929
      8  O3'        8.3210    9.4170    0.9250 O.3   115  3AM115     -0.2673
      9  C1'       11.3110   10.5680    2.4610 C.3   115  3AM115      0.3185
     10  O4'       10.3680   11.5680    2.8660 O.3   115  3AM115     -0.3135
     11  C4'        9.0910   11.2410    2.3230 C.3   115  3AM115      0.1824
     12  C5'        8.0650   11.6070    3.3490 C.3   115  3AM115      0.2142
     13  O5'        7.8200   12.9860    3.5000 O.3   115  3AM115     -0.2176
     14  N9        11.9350    9.9880    3.6850 N.pl3 115  3AM115     -0.1439
     15  C8        13.2240    9.5400    3.7120 C.3   115  3AM115      0.3377
     16  N7        13.6030    9.1280    4.8980 N.2   115  3AM115     -0.2095
     17  C5        12.5180    9.2820    5.6760 C.2   115  3AM115      0.2526
     18  C6        12.2920    9.0830    7.0760 C.2   115  3AM115      0.4393
     19  N6        13.1670    8.5630    7.9060 N.pl3 115  3AM115      0.2180
     20  C4        11.4290    9.8510    4.9120 C.2   115  3AM115      0.3518
     21  N3        10.2090   10.1430    5.4220 N.2   115  3AM115     -0.0055
     22  C2        10.0870    9.9050    6.7210 C.3   115  3AM115      0.5254
     23  N1        11.0590    9.4300    7.5130 N.2   115  3AM115      0.0021
@<TRIPOS>BOND
     1     3     2    2
     2     5     6    1
     3     8     2    1
     4     8     7    1
     5     2     4    1
     6     2     1    1
     7     6     7    1
     8     6     9    1
     9     7    11    1
    10    11    10    1
    11    11    12    1
    12     9    10    1
    13     9    14    1
    14    12    13    1
    15    14    15    1
    16    14    20    1
    17    15    16    1
    18    16    17    2
    19    20    21    2
    20    20    17    1
    21    21    22    1
    22    17    18    1
    23    22    23    1
    24    18    23    2
    25    18    19    1
