@<TRIPOS>MOLECULE
3agv_GLA_A_1.pdb
 11 11 0 0 0
SMALL
GASTEIGER

@<TRIPOS>ATOM
      1  C1         4.2870   17.4870   10.5220 C.3     7  GLA7        0.1777
      2  C2         3.2770   17.2290   11.6560 C.3     7  GLA7        0.2141
      3  C3         2.7990   15.7650   11.6850 C.3     7  GLA7        0.2173
      4  C4         3.9630   14.7670   11.5610 C.3     7  GLA7        0.2142
      5  C5         4.9440   15.1810   10.4500 C.3     7  GLA7        0.1810
      6  C6         5.2270   14.1000    9.4350 C.3     7  GLA7        0.2141
      7  O2         3.8560   17.5640   12.9070 O.3     7  GLA7       -0.2176
      8  O3         1.8710   15.5420   10.6360 O.3     7  GLA7       -0.2175
      9  O4         3.4560   13.4650   11.2950 O.3     7  GLA7       -0.2176
     10  O5         4.4350   16.3190    9.7260 O.3     7  GLA7       -0.3481
     11  O6         6.6240   13.9170    9.2630 O.3     7  GLA7       -0.2176
@<TRIPOS>BOND
     1    11     6    1
     2     6     5    1
     3    10     5    1
     4    10     1    1
     5     5     4    1
     6     1     2    1
     7     8     3    1
     8     9     4    1
     9     4     3    1
    10     2     3    1
    11     2     7    1
