@<TRIPOS>MOLECULE
3agv_GAL_B_1.pdb
 11 11 0 0 0
SMALL
GASTEIGER

@<TRIPOS>ATOM
      1  C1        25.9540   34.7750   25.1740 C.3     7  GAL7        0.1777
      2  C2        27.4670   34.6230   25.3950 C.3     7  GAL7        0.2141
      3  C3        27.7270   34.6920   26.8970 C.3     7  GAL7        0.2173
      4  C4        27.2460   36.0410   27.4450 C.3     7  GAL7        0.2142
      5  C5        25.7880   36.3490   27.0260 C.3     7  GAL7        0.1810
      6  C6        25.4810   37.8200   27.1640 C.3     7  GAL7        0.2141
      7  O2        27.9340   33.3850   24.8750 O.3     7  GAL7       -0.2176
      8  O3        29.1140   34.5270   27.1580 O.3     7  GAL7       -0.2175
      9  O4        28.1030   37.0810   26.9980 O.3     7  GAL7       -0.2176
     10  O5        25.5500   36.0560   25.6300 O.3     7  GAL7       -0.3481
     11  O6        25.1880   38.3850   25.8940 O.3     7  GAL7       -0.2176
@<TRIPOS>BOND
     1     7     2    1
     2     1     2    1
     3     1    10    1
     4     2     3    1
     5    10     5    1
     6    11     6    1
     7     3     8    1
     8     3     4    1
     9     9     4    1
    10     5     6    1
    11     5     4    1
