@<TRIPOS>MOLECULE
3agv_FUL_B_1.pdb
 10 10 0 0 0
SMALL
GASTEIGER

@<TRIPOS>ATOM
      1  C1        29.6280   26.2850   13.2840 C.3     1  FUL1        0.1776
      2  C2        31.1380   26.4220   13.5220 C.3     1  FUL1        0.2141
      3  O2        31.4430   26.0630   14.8620 O.3     1  FUL1       -0.2176
      4  C3        31.9110   25.5220   12.5570 C.3     1  FUL1        0.2172
      5  O3        31.7420   25.9810   11.2220 O.3     1  FUL1       -0.2175
      6  C4        31.4290   24.0710   12.6770 C.3     1  FUL1        0.2116
      7  O4        32.0500   23.2780   11.6740 O.3     1  FUL1       -0.2177
      8  C5        29.8980   23.9620   12.5430 C.3     1  FUL1        0.1483
      9  C6        29.3750   24.1550   11.1260 C.3     1  FUL1        0.0349
     10  O5        29.2230   24.9150   13.4140 O.3     1  FUL1       -0.3508
@<TRIPOS>BOND
     1     9     8    1
     2     5     4    1
     3     7     6    1
     4     8     6    1
     5     8    10    1
     6     4     6    1
     7     4     2    1
     8     1    10    1
     9     1     2    1
    10     2     3    1
