@<TRIPOS>MOLECULE
3agv_MAN_A_1.pdb
 12 12 0 0 0
SMALL
GASTEIGER

@<TRIPOS>ATOM
      1  C1        16.6490   23.6730    9.9000 C.3     4  MAN4        0.3024
      2  C2        16.3440   25.1290    9.4770 C.3     4  MAN4        0.2434
      3  C3        15.1900   25.1800    8.4720 C.3     4  MAN4        0.2199
      4  C4        13.9580   24.4480    9.0130 C.3     4  MAN4        0.2144
      5  C5        14.2530   23.8130   10.3820 C.3     4  MAN4        0.1836
      6  C6        13.1350   22.9270   10.9280 C.3     4  MAN4        0.2142
      7  O1        17.5220   23.6720   10.9750 O.3     4  MAN4       -0.1869
      8  O2        17.4950   25.7450    8.9200 O.3     4  MAN4       -0.2148
      9  O3        15.5930   24.5920    7.2450 O.3     4  MAN4       -0.2174
     10  O4        12.8820   25.3640    9.1320 O.3     4  MAN4       -0.2176
     11  O5        15.4480   22.9940   10.3030 O.3     4  MAN4       -0.3236
     12  O6        11.8800   23.2100   10.2720 O.3     4  MAN4       -0.2176
@<TRIPOS>BOND
     1     9     3    1
     2     3     4    1
     3     3     2    1
     4     8     2    1
     5     4    10    1
     6     4     5    1
     7     2     1    1
     8     1    11    1
     9     1     7    1
    10    12     6    1
    11    11     5    1
    12     5     6    1
