@<TRIPOS>MOLECULE
3agv_BMA_B_1.pdb
 11 11 0 0 0
SMALL
GASTEIGER

@<TRIPOS>ATOM
      1  C1        21.0820   29.9270   14.3180 C.3     4  BMA4        0.1777
      2  C2        19.5680   29.7530   14.1840 C.3     4  BMA4        0.2141
      3  C3        18.8670   30.4190   15.3740 C.3     4  BMA4        0.2173
      4  C4        19.4090   29.8650   16.6890 C.3     4  BMA4        0.2142
      5  C5        20.9250   30.0030   16.7140 C.3     4  BMA4        0.1810
      6  C6        21.5500   29.3650   17.9220 C.3     4  BMA4        0.2141
      7  O2        19.2580   28.3680   14.1680 O.3     4  BMA4       -0.2176
      8  O3        17.4490   30.1860   15.3130 O.3     4  BMA4       -0.2175
      9  O4        18.8480   30.5870   17.7740 O.3     4  BMA4       -0.2176
     10  O5        21.5050   29.3720   15.5560 O.3     4  BMA4       -0.3481
     11  O6        22.9510   29.6630   17.9220 O.3     4  BMA4       -0.2176
@<TRIPOS>BOND
     1     7     2    1
     2     2     1    1
     3     2     3    1
     4     1    10    1
     5     8     3    1
     6     3     4    1
     7    10     5    1
     8     4     5    1
     9     4     9    1
    10     5     6    1
    11     6    11    1
