@<TRIPOS>MOLECULE
3agy_III_F_1.pdb
 47 47 0 0 0
SMALL
GASTEIGER

@<TRIPOS>ATOM
      1  N         13.7090  -30.1270   53.1920 N.3   635  PRO635     -0.2102
      2  CA        12.9280  -29.7530   54.3730 C.3   635  PRO635      0.1504
      3  C         12.9150  -28.2360   54.6160 C.2   635  PRO635      0.2576
      4  O         13.7160  -27.5110   54.0250 O.2   635  PRO635     -0.2718
      5  CB        13.6450  -30.4840   55.5140 C.3   635  PRO635      0.0282
      6  CG        15.0330  -30.7430   54.9970 C.3   635  PRO635      0.0208
      7  CD        14.8850  -30.9490   53.5280 C.3   635  PRO635      0.0893
      8  N         11.9970  -27.7650   55.4610 N.am  636  THR636     -0.1939
      9  CA        11.9360  -26.3500   55.8420 C.3   636  THR636      0.2028
     10  C         12.8660  -26.0720   57.0300 C.2   636  THR636      0.2642
     11  O         12.8450  -26.7980   58.0330 O.2   636  THR636     -0.2714
     12  CB        10.4920  -25.9220   56.2430 C.3   636  THR636      0.1808
     13  OG1        9.5430  -26.5010   55.3370 O.3   636  THR636     -0.2208
     14  CG2       10.3380  -24.3890   56.2570 C.3   636  THR636      0.0379
     15  N         13.6610  -25.0100   56.9180 N.am  637  ILE637     -0.1963
     16  CA        14.5600  -24.5840   57.9920 C.3   637  ILE637      0.1727
     17  C         14.0010  -23.3500   58.7090 C.2   637  ILE637      0.2616
     18  O         13.5620  -22.3970   58.0650 O.2   637  ILE637     -0.2715
     19  CB        15.9880  -24.2610   57.4620 C.3   637  ILE637      0.0290
     20  CG1       16.5530  -25.4360   56.6530 C.3   637  ILE637      0.0022
     21  CG2       16.9250  -23.9100   58.6080 C.3   637  ILE637      0.0023
     22  CD1       17.4750  -25.0150   55.4980 C.3   637  ILE637      0.0001
     23  N         14.0060  -23.3870   60.0410 N.am  638  GLU638     -0.1963
     24  CA        13.7970  -22.1930   60.8490 C.3   638  GLU638      0.1733
     25  C         15.0930  -21.8560   61.5950 C.2   638  GLU638      0.2616
     26  O         15.5530  -22.6410   62.4310 O.2   638  GLU638     -0.2715
     27  CB        12.6380  -22.3850   61.8230 C.3   638  GLU638      0.0429
     28  CG        12.3300  -21.1360   62.6260 C.3   638  GLU638      0.1163
     29  CD        11.3220  -21.3800   63.7290 C.2   638  GLU638      0.3649
     30  OE1       10.1450  -21.6550   63.4100 O.co2 638  GLU638     -0.2457
     31  OE2       11.7050  -21.2810   64.9170 O.co2 638  GLU638     -0.2457
     32  N         15.6670  -20.6890   61.2760 N.am  639  GLU639     -0.1963
     33  CA        16.9790  -20.2380   61.7870 C.3   639  GLU639      0.1733
     34  C         16.8870  -19.6770   63.2000 C.2   639  GLU639      0.2616
     35  O         15.8010  -19.3280   63.6540 O.2   639  GLU639     -0.2715
     36  CB        17.5780  -19.1520   60.8720 C.3   639  GLU639      0.0429
     37  CG        17.6530  -19.4910   59.3860 C.3   639  GLU639      0.1163
     38  CD        18.6830  -20.5650   59.0510 C.2   639  GLU639      0.3649
     39  OE1       19.5520  -20.8920   59.9000 O.co2 639  GLU639     -0.2457
     40  OE2       18.6300  -21.0830   57.9150 O.co2 639  GLU639     -0.2457
     41  N         18.0290  -19.5650   63.8840 N.am  640  VAL640     -0.1977
     42  CA        18.0580  -18.9570   65.2240 C.3   640  VAL640      0.1596
     43  C         18.2570  -17.4300   65.2000 C.2   640  VAL640      0.2287
     44  O         19.3540  -16.9130   64.9910 O.2   640  VAL640     -0.2864
     45  CB        19.0510  -19.6920   66.1780 C.3   640  VAL640      0.0276
     46  CG1       19.3050  -18.8890   67.4550 C.3   640  VAL640      0.0022
     47  CG2       18.5140  -21.0800   66.5260 C.3   640  VAL640      0.0022
@<TRIPOS>BOND
     1     1     7    1
     2     1     2    1
     3     7     6    1
     4     4     3    2
     5     2     3    1
     6     2     5    1
     7     3     8   am
     8     6     5    1
     9    13    12    1
    10     8     9    1
    11    22    20    1
    12     9    12    1
    13     9    10    1
    14    12    14    1
    15    20    19    1
    16    15    10   am
    17    15    16    1
    18    10    11    2
    19    19    16    1
    20    19    21    1
    21    40    38   ar
    22    16    17    1
    23    18    17    2
    24    17    23   am
    25    38    37    1
    26    38    39   ar
    27    37    36    1
    28    23    24    1
    29    24    25    1
    30    24    27    1
    31    36    33    1
    32    32    25   am
    33    32    33    1
    34    25    26    2
    35    33    34    1
    36    27    28    1
    37    28    29    1
    38    34    35    2
    39    34    41   am
    40    30    29   ar
    41    29    31   ar
    42    41    42    1
    43    44    43    2
    44    43    42    1
    45    42    45    1
    46    45    47    1
    47    45    46    1
