@<TRIPOS>MOLECULE
3ah1_SLB_A_1.pdb
 21 21 0 0 0
SMALL
GASTEIGER

@<TRIPOS>ATOM
      1  C1        22.6380  -23.6970   50.6270 C.2   2000  SLB2000     0.4179
      2  C2        22.3110  -22.9720   49.3340 C.3   2000  SLB2000     0.3155
      3  C3        23.3330  -23.3200   48.2580 C.3   2000  SLB2000     0.1056
      4  C4        23.2410  -22.3450   47.0750 C.3   2000  SLB2000     0.1798
      5  C5        23.1660  -20.8850   47.5030 C.3   2000  SLB2000     0.1554
      6  C6        22.0280  -20.6950   48.5010 C.3   2000  SLB2000     0.1734
      7  C7        21.9260  -19.2500   48.9900 C.3   2000  SLB2000     0.2135
      8  C8        20.8120  -19.0340   50.0100 C.3   2000  SLB2000     0.2173
      9  C9        20.8660  -17.6270   50.6160 C.3   2000  SLB2000     0.2175
     10  C10       23.8310  -19.3000   45.7760 C.2   2000  SLB2000     0.2420
     11  C11       23.4260  -18.5750   44.5260 C.3   2000  SLB2000     0.0964
     12  N5        22.9050  -20.1070   46.2940 N.am  2000  SLB2000    -0.2020
     13  O1A       22.8050  -23.0290   51.6930 O.co2 2000  SLB2000    -0.2401
     14  O1B       22.7080  -24.9550   50.5890 O.co2 2000  SLB2000    -0.2401
     15  O2        21.0000  -23.3620   48.8830 O.3   2000  SLB2000    -0.1830
     16  O4        24.3760  -22.4750   46.2310 O.3   2000  SLB2000    -0.2210
     17  O6        22.3210  -21.5690   49.5960 O.3   2000  SLB2000    -0.3220
     18  O7        23.1840  -18.8540   49.5510 O.3   2000  SLB2000    -0.2176
     19  O8        19.5330  -19.2030   49.3900 O.3   2000  SLB2000    -0.2175
     20  O9        19.5440  -17.2140   50.9820 O.3   2000  SLB2000    -0.2175
     21  O10       24.9370  -19.1450   46.2720 O.2   2000  SLB2000    -0.2733
@<TRIPOS>BOND
     1    11    10    1
     2    10    21    2
     3    10    12   am
     4    16     4    1
     5    12     5    1
     6     4     5    1
     7     4     3    1
     8     5     6    1
     9     3     2    1
    10     6     7    1
    11     6    17    1
    12    15     2    1
    13     7    18    1
    14     7     8    1
    15     2    17    1
    16     2     1    1
    17    19     8    1
    18     8     9    1
    19    14     1   ar
    20     9    20    1
    21     1    13   ar
