@<TRIPOS>MOLECULE
3ah2_NGA_B_1.pdb
 15 15 0 0 0
SMALL
GASTEIGER

@<TRIPOS>ATOM
      1  C1        81.3830  -11.9920   27.5770 C.3   2000  NGA2000     0.2917
      2  C2        80.5060  -11.2210   28.5590 C.3   2000  NGA2000     0.1871
      3  C3        81.3380  -10.3540   29.5060 C.3   2000  NGA2000     0.2095
      4  C4        82.5350  -11.1040   30.0980 C.3   2000  NGA2000     0.2136
      5  C5        83.2490  -11.9700   29.0470 C.3   2000  NGA2000     0.1835
      6  C6        84.3440  -12.8570   29.6370 C.3   2000  NGA2000     0.2142
      7  C7        78.4400  -10.5010   27.4800 C.2   2000  NGA2000     0.2421
      8  C8        77.7890   -9.4190   26.6740 C.3   2000  NGA2000     0.0964
      9  N2        79.7230  -10.2770   27.7680 N.am  2000  NGA2000    -0.1991
     10  O1        80.5670  -12.8520   26.7800 O.3   2000  NGA2000    -0.1879
     11  O3        80.5010   -9.8900   30.5730 O.3   2000  NGA2000    -0.2183
     12  O4        82.0420  -11.9020   31.1750 O.3   2000  NGA2000    -0.2176
     13  O5        82.3090  -12.7840   28.3300 O.3   2000  NGA2000    -0.3242
     14  O6        85.1320  -13.4230   28.5820 O.3   2000  NGA2000    -0.2176
     15  O7        77.8270  -11.4970   27.8320 O.2   2000  NGA2000    -0.2733
@<TRIPOS>BOND
     1     8     7    1
     2    10     1    1
     3     7     9   am
     4     7    15    2
     5     1    13    1
     6     1     2    1
     7     9     2    1
     8    13     5    1
     9     2     3    1
    10    14     6    1
    11     5     6    1
    12     5     4    1
    13     3     4    1
    14     3    11    1
    15     4    12    1
