@<TRIPOS>MOLECULE
3ah4_GAL_B_1.pdb
 12 12 0 0 0
SMALL
GASTEIGER

@<TRIPOS>ATOM
      1  C1        80.1080   -9.8630   29.7770 C.3   2000  GAL2000     0.3024
      2  C2        81.2330  -10.9050   29.7800 C.3   2000  GAL2000     0.2434
      3  C3        81.7340  -11.1710   28.3530 C.3   2000  GAL2000     0.2199
      4  C4        80.5860  -11.3920   27.3530 C.3   2000  GAL2000     0.2144
      5  C5        79.5040  -10.3100   27.5270 C.3   2000  GAL2000     0.1836
      6  C6        78.2760  -10.5040   26.6330 C.3   2000  GAL2000     0.2142
      7  O1        79.5390   -9.7560   31.0570 O.3   2000  GAL2000    -0.1869
      8  O2        82.2980  -10.4410   30.5920 O.3   2000  GAL2000    -0.2148
      9  O3        82.6060  -12.2820   28.3430 O.3   2000  GAL2000    -0.2174
     10  O4        80.0530  -12.6900   27.5420 O.3   2000  GAL2000    -0.2176
     11  O5        79.0890  -10.2490   28.8800 O.3   2000  GAL2000    -0.3236
     12  O6        77.3470  -11.3780   27.2350 O.3   2000  GAL2000    -0.2176
@<TRIPOS>BOND
     1     6    12    1
     2     6     5    1
     3     4     5    1
     4     4    10    1
     5     4     3    1
     6     5    11    1
     7     9     3    1
     8     3     2    1
     9    11     1    1
    10     1     2    1
    11     1     7    1
    12     2     8    1
