@<TRIPOS>MOLECULE
3ah5_UMP_A_1.pdb
 20 21 0 0 0
SMALL
GASTEIGER

@<TRIPOS>ATOM
      1  N1        11.0930   26.4860   51.6520 N.am  241  UMP241     -0.1790
      2  C2        11.8680   27.1330   52.6060 C.1   241  UMP241      0.2844
      3  N3        11.4100   28.2640   53.2380 N.2   241  UMP241     -0.2452
      4  C4        10.1830   28.8270   52.9800 C.1   241  UMP241      0.2182
      5  C5         9.3200   28.2440   52.0220 C.2   241  UMP241      0.1242
      6  C6         9.8330   27.0060   51.3360 C.2   241  UMP241      0.0928
      7  O2        12.9770   26.7130   52.9020 O.2   241  UMP241     -0.1918
      8  O4         9.8320   29.8300   53.5670 O.2   241  UMP241     -0.2085
      9  C1'       11.5770   25.2430   50.9270 C.3   241  UMP241      0.2090
     10  C2'       12.2330   24.0840   51.7430 C.3   241  UMP241      0.0874
     11  C3'       11.2560   22.8710   51.6730 C.3   241  UMP241      0.1857
     12  C4'       10.0610   23.4590   50.9300 C.3   241  UMP241      0.1774
     13  O3'       11.8570   21.8290   50.8970 O.3   241  UMP241     -0.2203
     14  O4'       10.5290   24.5950   50.1550 O.3   241  UMP241     -0.3339
     15  C5'        9.0940   23.8660   52.0150 C.3   241  UMP241      0.1858
     16  O5'        7.9910   24.5360   51.4900 O.3   241  UMP241     -0.2675
     17  P          7.1100   24.8990   52.7730 P.3   241  UMP241      0.5327
     18  OP1        7.8870   25.6450   53.7810 O.3   241  UMP241     -0.1145
     19  OP2        5.8430   25.7540   52.3020 O.2   241  UMP241     -0.2224
     20  OP3        6.5730   23.5270   53.4010 O.3   241  UMP241     -0.1145
@<TRIPOS>BOND
     1    14     9    1
     2    14    12    1
     3    13    11    1
     4     9     1    1
     5     9    10    1
     6    12    11    1
     7    12    15    1
     8     6     1    1
     9     6     5    2
    10    16    15    1
    11    16    17    1
    12     1     2   am
    13    11    10    1
    14     5     4    1
    15    19    17    2
    16     2     7    2
    17     2     3    2
    18    17    20    1
    19    17    18    1
    20     4     3    2
    21     4     8    2
