@<TRIPOS>MOLECULE
3ah8_GDP_A_1.pdb
 28 30 0 0 0
SMALL
GASTEIGER

@<TRIPOS>ATOM
      1  PB        19.6750  -22.0790  -32.9300 P.3     1  GDP1        0.5373
      2  O1B       20.1930  -23.4980  -33.0010 O.3     1  GDP1       -0.1143
      3  O2B       19.3140  -21.8050  -31.4970 O.3     1  GDP1       -0.1143
      4  O3B       18.4750  -21.9140  -33.8330 O.2     1  GDP1       -0.2221
      5  O3A       20.8490  -21.0800  -33.3820 O.3     1  GDP1       -0.2261
      6  PA        20.8350  -20.3800  -34.8210 P.3     1  GDP1        0.2231
      7  O1A       19.5200  -20.6310  -35.5110 O.3     1  GDP1       -0.4370
      8  O2A       21.9680  -20.8600  -35.6800 O.2     1  GDP1       -0.5169
      9  O5'       20.9880  -18.8220  -34.4540 O.3     1  GDP1       -0.3111
     10  C5'       22.2270  -18.2570  -34.0370 C.3     1  GDP1        0.1813
     11  C4'       22.5490  -17.0140  -34.8670 C.3     1  GDP1        0.1799
     12  O4'       23.9630  -16.8060  -34.8470 O.3     1  GDP1       -0.3326
     13  C3'       22.1640  -17.1620  -36.3340 C.3     1  GDP1        0.2158
     14  O3'       21.7910  -15.8870  -36.8710 O.3     1  GDP1       -0.2175
     15  C2'       23.4260  -17.6080  -37.0280 C.3     1  GDP1        0.2310
     16  O2'       23.5100  -17.0420  -38.3440 O.3     1  GDP1       -0.2158
     17  C1'       24.5510  -17.1440  -36.1090 C.3     1  GDP1        0.2293
     18  N9        25.5480  -18.2260  -35.9380 N.pl3   1  GDP1       -0.2354
     19  C8        25.2780  -19.5190  -35.7170 C.3     1  GDP1        0.2246
     20  N7        26.4220  -20.2370  -35.6170 N.2     1  GDP1       -0.2322
     21  C5        27.4600  -19.4050  -35.7840 C.2     1  GDP1        0.2182
     22  C6        28.9460  -19.5160  -35.7920 C.1     1  GDP1        0.2372
     23  O6        29.5270  -20.6190  -35.6120 O.2     1  GDP1       -0.2069
     24  N1        29.6540  -18.3930  -35.9960 N.2     1  GDP1       -0.2485
     25  C2        29.0550  -17.1990  -36.1880 C.1     1  GDP1        0.2531
     26  N2        29.8220  -16.1040  -36.3910 N.pl3   1  GDP1       -0.0226
     27  N3        27.7070  -17.0330  -36.1800 N.2     1  GDP1       -0.3074
     28  C4        26.8710  -18.0770  -35.9880 C.2     1  GDP1        0.2300
@<TRIPOS>BOND
     1    16    15    1
     2    15    13    1
     3    15    17    1
     4    14    13    1
     5    26    25    1
     6    13    11    1
     7    25    27    2
     8    25    24    2
     9    27    28    2
    10    17    18    1
    11    17    12    1
    12    24    22    2
    13    28    18    1
    14    28    21    1
    15    18    19    1
    16    22    21    1
    17    22    23    2
    18    21    20    2
    19    19    20    1
    20     8     6    2
    21     7     6    1
    22    11    12    1
    23    11    10    1
    24     6     9    1
    25     6     5    1
    26     9    10    1
    27     4     1    2
    28     5     1    1
    29     2     1    1
    30     1     3    1
