@<TRIPOS>MOLECULE
3ahc_TPP_A_1.pdb
 26 27 0 0 0
SMALL
GASTEIGER

@<TRIPOS>ATOM
      1  N1'       59.9040   47.9330    6.4610 N.2   827  TPP827     -0.1861
      2  C2'       59.0740   48.7390    7.2150 C.1   827  TPP827      0.0663
      3  CM2       58.1480   49.7000    6.5160 C.3   827  TPP827      0.1291
      4  N3'       59.0580   48.7490    8.5320 N.2   827  TPP827     -0.3368
      5  C4'       59.8850   47.9080    9.2430 C.2   827  TPP827      0.2292
      6  N4'       59.8400   47.7870   10.6190 N.pl3 827  TPP827     -0.0925
      7  C5'       60.7740   47.0010    8.4790 C.2   827  TPP827      0.0654
      8  C6'       60.7060   47.0530    7.0860 C.2   827  TPP827      0.1115
      9  C7'       61.7420   45.9980    9.1540 C.3   827  TPP827      0.1237
     10  N3        62.5890   46.6740   10.1970 N.pl3 827  TPP827     -0.2970
     11  C2        62.2220   46.7980   11.6380 C.3   827  TPP827      0.1543
     12  S1        63.6640   47.8110   12.3770 S.3   827  TPP827     -0.0951
     13  C5        64.3740   47.9730   10.9040 C.2   827  TPP827      0.0164
     14  C4        63.7250   47.3480    9.7820 C.2   827  TPP827      0.0279
     15  CM4       64.3740   47.1770    8.3990 C.3   827  TPP827      0.0473
     16  C6        65.6780   48.7960   10.8390 C.3   827  TPP827      0.0661
     17  C7        65.3130   50.1330   11.4450 C.3   827  TPP827      0.1544
     18  O7        66.6340   50.8560   11.3200 O.3   827  TPP827     -0.3134
     19  PA        66.6040   52.3480   11.9040 P.3   827  TPP827      0.2230
     20  O1A       65.4330   53.0900   11.4530 O.2   827  TPP827     -0.5169
     21  O2A       67.9520   52.9200   11.5310 O.3   827  TPP827     -0.4370
     22  O3A       66.4370   52.1620   13.4580 O.3   827  TPP827     -0.2261
     23  PB        67.5830   52.0280   14.6420 P.3   827  TPP827      0.5373
     24  O1B       68.9570   51.9600   13.9790 O.2   827  TPP827     -0.2221
     25  O2B       67.3320   50.6720   15.3170 O.3   827  TPP827     -0.1143
     26  O3B       67.3660   53.2320   15.5330 O.3   827  TPP827     -0.1143
@<TRIPOS>BOND
     1     1     8    1
     2     1     2    2
     3     3     2    1
     4     8     7    2
     5     2     4    2
     6    15    14    1
     7     7     9    1
     8     7     5    1
     9     4     5    2
    10     9    10    1
    11     5     6    1
    12    14    10    1
    13    14    13    2
    14    10    11    1
    15    16    13    1
    16    16    17    1
    17    13    12    1
    18    18    17    1
    19    18    19    1
    20    20    19    2
    21    21    19    1
    22    11    12    1
    23    19    22    1
    24    22    23    1
    25    24    23    2
    26    23    25    1
    27    23    26    1
