@<TRIPOS>MOLECULE
3ahd_HTL_A_1.pdb
 29 30 0 0 0
SMALL
GASTEIGER

@<TRIPOS>ATOM
      1  N1'       59.8550   47.6500    6.6420 N.2   827  HTL827     -0.1861
      2  C2'       59.0160   48.4950    7.2870 C.1   827  HTL827      0.0663
      3  C2A       58.1420   49.4420    6.5510 C.3   827  HTL827      0.1291
      4  N3'       59.0070   48.5170    8.6200 N.2   827  HTL827     -0.3368
      5  C4'       59.7410   47.6530    9.3350 C.2   827  HTL827      0.2292
      6  N4'       59.6510   47.6480   10.6840 N.pl3 827  HTL827     -0.0925
      7  C5'       60.6330   46.7450    8.6780 C.2   827  HTL827      0.0654
      8  C6'       60.6270   46.7980    7.3120 C.2   827  HTL827      0.1115
      9  C35       61.6010   45.6770    9.3160 C.3   827  HTL827      0.1240
     10  N3        62.5300   46.4100   10.2440 N.pl3 827  HTL827     -0.2933
     11  C2        62.3430   46.4680   11.5950 C.3   827  HTL827      0.1836
     12  S1        63.5610   47.5730   12.3340 S.3   827  HTL827     -0.0904
     13  C5        64.3080   47.7770   10.8100 C.2   827  HTL827      0.0167
     14  C4        63.6230   47.1230    9.8150 C.2   827  HTL827      0.0281
     15  C4A       64.1050   47.0510    8.3500 C.3   827  HTL827      0.0473
     16  C5A       65.5680   48.6330   10.8180 C.3   827  HTL827      0.0661
     17  C5B       65.1860   50.0560   11.2350 C.3   827  HTL827      0.1544
     18  O5G       66.5230   50.7790   11.3220 O.3   827  HTL827     -0.3134
     19  P1        66.4900   52.2340   11.9030 P.3   827  HTL827      0.2230
     20  O11       66.3240   52.0520   13.4410 O.3   827  HTL827     -0.2261
     21  O12       67.8440   52.8260   11.5430 O.3   827  HTL827     -0.4370
     22  O13       65.3360   52.9080   11.4720 O.2   827  HTL827     -0.5169
     23  P2        67.4630   51.8710   14.5970 P.3   827  HTL827      0.5373
     24  O21       68.8720   51.8010   14.0250 O.2   827  HTL827     -0.2221
     25  O22       67.2230   53.0450   15.4800 O.3   827  HTL827     -0.1143
     26  O23       67.1320   50.5240   15.2760 O.3   827  HTL827     -0.1143
     27  C1'       61.3650   45.7030   12.4850 C.2   827  HTL827      0.1797
     28  O2'       60.5280   44.9100   11.9950 O.2   827  HTL827     -0.2934
     29  C3'       61.3880   46.0210   14.0080 C.3   827  HTL827      0.0750
@<TRIPOS>BOND
     1     3     2    1
     2     1     2    2
     3     1     8    1
     4     2     4    2
     5     8     7    2
     6    15    14    1
     7     4     5    2
     8     7     9    1
     9     7     5    1
    10     9    10    1
    11     5     6    1
    12    14    10    1
    13    14    13    2
    14    10    11    1
    15    13    16    1
    16    13    12    1
    17    16    17    1
    18    17    18    1
    19    18    19    1
    20    22    19    2
    21    21    19    1
    22    11    12    1
    23    11    27    1
    24    19    20    1
    25    28    27    2
    26    27    29    1
    27    20    23    1
    28    24    23    2
    29    23    26    1
    30    23    25    1
