@<TRIPOS>MOLECULE
3ahe_THD_A_1.pdb
 30 31 0 0 0
SMALL
GASTEIGER

@<TRIPOS>ATOM
      1  N1'       59.2780   47.4210    6.5280 N.2   827  THD827     -0.1861
      2  C2'       58.4340   48.2350    7.2040 C.1   827  THD827      0.0663
      3  CM2       57.5010   49.1580    6.4560 C.3   827  THD827      0.1291
      4  N3'       58.4500   48.2480    8.5520 N.2   827  THD827     -0.3368
      5  C4'       59.3090   47.3520    9.2020 C.2   827  THD827      0.2292
      6  N4'       59.2630   47.3280   10.5630 N.pl3 827  THD827     -0.0925
      7  C5'       60.1950   46.4530    8.5040 C.2   827  THD827      0.0654
      8  C6'       60.1260   46.5530    7.1220 C.2   827  THD827      0.1115
      9  C7'       61.2090   45.3820    9.1470 C.3   827  THD827      0.1237
     10  N3        62.0550   46.0260   10.2190 N.pl3 827  THD827     -0.2969
     11  C2        61.8580   46.0610   11.6050 C.3   827  THD827      0.1586
     12  S1        63.1660   47.1660   12.3200 S.3   827  THD827     -0.0951
     13  C5        63.9000   47.4500   10.8330 C.2   827  THD827      0.0164
     14  C4        63.1740   46.7590    9.8250 C.2   827  THD827      0.0279
     15  CM4       63.6440   46.7330    8.3670 C.3   827  THD827      0.0473
     16  C6        65.1800   48.2650   10.8890 C.3   827  THD827      0.0661
     17  C7        64.8590   49.6570   11.3640 C.3   827  THD827      0.1544
     18  O7        66.0970   50.3410   11.3380 O.3   827  THD827     -0.3134
     19  PA        66.1010   51.7780   11.9230 P.3   827  THD827      0.2230
     20  O1A       64.8900   52.4800   11.4900 O.2   827  THD827     -0.5169
     21  O2A       67.3900   52.3690   11.5000 O.3   827  THD827     -0.4370
     22  O3A       65.8670   51.6700   13.4870 O.3   827  THD827     -0.2261
     23  PB        67.0420   51.4060   14.5940 P.3   827  THD827      0.5373
     24  O1B       68.3910   51.3280   14.0440 O.2   827  THD827     -0.2221
     25  O2B       66.8130   52.6470   15.5450 O.3   827  THD827     -0.1143
     26  O3B       66.7400   50.0540   15.3650 O.3   827  THD827     -0.1143
     27  C8        60.9740   45.2830   12.6470 C.3   827  THD827      0.2133
     28  O9        60.1460   44.2990   12.0730 O.3   827  THD827     -0.2176
     29  C9        60.4000   46.0020   13.9250 C.3   827  THD827      0.2174
     30  O10       59.1420   46.6920   13.7400 O.3   827  THD827     -0.2175
@<TRIPOS>BOND
     1     3     2    1
     2     1     8    1
     3     1     2    2
     4     8     7    2
     5     2     4    2
     6    15    14    1
     7     7     9    1
     8     7     5    1
     9     4     5    2
    10     9    10    1
    11     5     6    1
    12    14    10    1
    13    14    13    2
    14    10    11    1
    15    13    16    1
    16    13    12    1
    17    16    17    1
    18    18    17    1
    19    18    19    1
    20    20    19    2
    21    21    19    1
    22    11    12    1
    23    11    27    1
    24    19    22    1
    25    28    27    1
    26    27    29    1
    27    22    23    1
    28    30    29    1
    29    24    23    2
    30    23    26    1
    31    23    25    1
