@<TRIPOS>MOLECULE
3ahf_TPP_A_1.pdb
 26 27 0 0 0
SMALL
GASTEIGER

@<TRIPOS>ATOM
      1  N1'       59.5220   47.4750    6.5920 N.2   826  TPP826     -0.1861
      2  C2'       58.7030   48.3050    7.2530 C.1   826  TPP826      0.0663
      3  CM2       57.7590   49.2440    6.4800 C.3   826  TPP826      0.1291
      4  N3'       58.7550   48.3340    8.5960 N.2   826  TPP826     -0.3368
      5  C4'       59.5780   47.4480    9.2570 C.2   826  TPP826      0.2292
      6  N4'       59.5790   47.4780   10.5960 N.pl3 826  TPP826     -0.0925
      7  C5'       60.3990   46.5490    8.5890 C.2   826  TPP826      0.0654
      8  C6'       60.3280   46.6090    7.2130 C.2   826  TPP826      0.1115
      9  C7'       61.3900   45.5370    9.2270 C.3   826  TPP826      0.1237
     10  N3        62.2160   46.2660   10.2260 N.pl3 826  TPP826     -0.2970
     11  C2        61.8770   46.3170   11.6710 C.3   826  TPP826      0.1543
     12  S1        63.2360   47.4340   12.3440 S.3   826  TPP826     -0.0951
     13  C5        64.0910   47.6060   10.8630 C.2   826  TPP826      0.0164
     14  C4        63.3820   46.9490    9.8610 C.2   826  TPP826      0.0279
     15  CM4       63.9500   46.8830    8.4380 C.3   826  TPP826      0.0473
     16  C6        65.3910   48.4330   10.8060 C.3   826  TPP826      0.0661
     17  C7        65.2050   49.7470   11.5210 C.3   826  TPP826      0.1544
     18  O7        66.3570   50.5220   11.3880 O.3   826  TPP826     -0.3134
     19  PA        66.3140   51.9860   11.8730 P.3   826  TPP826      0.2230
     20  O1A       65.0400   52.6870   11.4480 O.2   826  TPP826     -0.5169
     21  O2A       67.5930   52.5980   11.4520 O.3   826  TPP826     -0.4370
     22  O3A       66.1860   51.8930   13.4100 O.3   826  TPP826     -0.2261
     23  PB        67.2820   51.5810   14.5470 P.3   826  TPP826      0.5373
     24  O1B       68.6890   51.6800   14.0850 O.2   826  TPP826     -0.2221
     25  O2B       66.8450   50.2940   15.3490 O.3   826  TPP826     -0.1143
     26  O3B       66.9900   52.7420   15.5590 O.3   826  TPP826     -0.1143
@<TRIPOS>BOND
     1     3     2    1
     2     1     8    1
     3     1     2    2
     4     8     7    2
     5     2     4    2
     6    15    14    1
     7     7     9    1
     8     7     5    1
     9     4     5    2
    10     9    10    1
    11     5     6    1
    12    14    10    1
    13    14    13    2
    14    10    11    1
    15    16    13    1
    16    16    17    1
    17    13    12    1
    18    18    17    1
    19    18    19    1
    20    20    19    2
    21    21    19    1
    22    11    12    1
    23    19    22    1
    24    22    23    1
    25    24    23    2
    26    23    25    1
    27    23    26    1
