@<TRIPOS>MOLECULE
3ahg_HTD_A_1.pdb
 26 28 0 0 0
SMALL
GASTEIGER

@<TRIPOS>ATOM
      1  S1        63.4700   48.1950   12.1260 S.3   827  HTD827     -0.0422
      2  C2        62.2570   47.8060   10.7780 C.2   827  HTD827      0.2304
      3  N3        62.8590   46.6730   10.1570 N.pl3 827  HTD827     -0.2552
      4  C4        64.0420   47.3560    9.7890 C.2   827  HTD827      0.0343
      5  C5        64.5610   48.1430   10.7860 C.2   827  HTD827      0.0230
      6  C6        65.8620   48.9710   10.8990 C.3   827  HTD827      0.0665
      7  C7        65.4780   50.4560   11.1760 C.3   827  HTD827      0.1544
      8  O7        66.8540   51.0800   11.4360 O.3   827  HTD827     -0.3134
      9  PA        66.8560   52.5720   11.8700 P.3   827  HTD827      0.2230
     10  PB        67.7550   52.2810   14.5910 P.3   827  HTD827      0.5373
     11  N1,       60.1400   47.9860    6.5230 N.2   827  HTD827     -0.1848
     12  O1A       65.7060   53.1900   11.5650 O.2   827  HTD827     -0.5169
     13  O1B       69.1620   52.1600   14.0450 O.2   827  HTD827     -0.2221
     14  C2,       59.5020   48.9150    7.2670 C.1   827  HTD827      0.0769
     15  O2A       68.2130   53.1540   11.5860 O.3   827  HTD827     -0.4370
     16  O2B       67.5340   50.9770   15.2210 O.3   827  HTD827     -0.1143
     17  N3,       59.7060   49.0060    8.5650 N.2   827  HTD827     -0.2909
     18  O3A       66.6560   52.3400   13.4350 O.3   827  HTD827     -0.2261
     19  O3B       67.6300   53.3880   15.5680 O.3   827  HTD827     -0.1143
     20  N4'       60.8140   48.1670   10.5350 N.2   827  HTD827     -0.3170
     21  C4,       60.5710   48.1550    9.1820 C.1   827  HTD827      0.1488
     22  C5,       61.2000   47.1380    8.4380 C.2   827  HTD827      0.1043
     23  C6,       60.9630   47.0700    7.0840 C.2   827  HTD827      0.1196
     24  C7,       62.1490   46.1060    9.0090 C.3   827  HTD827      0.1383
     25  CM2       58.5630   49.9050    6.5770 C.3   827  HTD827      0.1300
     26  CM4       64.8350   47.1590    8.4980 C.3   827  HTD827      0.0477
@<TRIPOS>BOND
     1    11    23    1
     2    11    14    2
     3    25    14    1
     4    23    22    2
     5    14    17    2
     6    22    24    1
     7    22    21    1
     8    26     4    1
     9    17    21    2
    10    24     3    1
    11    21    20    2
    12     4     3    1
    13     4     5    2
    14     3     2    1
    15    20     2    2
    16     2     1    1
    17     5     6    1
    18     5     1    1
    19     6     7    1
    20     7     8    1
    21     8     9    1
    22    12     9    2
    23    15     9    1
    24     9    18    1
    25    18    10    1
    26    13    10    2
    27    10    16    1
    28    10    19    1
