@<TRIPOS>MOLECULE
3ahh_HTL_A_1.pdb
 29 30 0 0 0
SMALL
GASTEIGER

@<TRIPOS>ATOM
      1  N1'       59.8520   47.6890    6.6330 N.2   827  HTL827     -0.1861
      2  C2'       59.0120   48.5690    7.2790 C.1   827  HTL827      0.0663
      3  C2A       58.1290   49.5120    6.4830 C.3   827  HTL827      0.1291
      4  N3'       58.9550   48.6230    8.6190 N.2   827  HTL827     -0.3368
      5  C4'       59.7620   47.7620    9.3310 C.2   827  HTL827      0.2292
      6  N4'       59.6530   47.7650   10.6680 N.pl3 827  HTL827     -0.0925
      7  C5'       60.6430   46.8680    8.6900 C.2   827  HTL827      0.0654
      8  C6'       60.6070   46.8980    7.3290 C.2   827  HTL827      0.1115
      9  C35       61.6120   45.8070    9.3050 C.3   827  HTL827      0.1240
     10  N3        62.5420   46.5730   10.2210 N.pl3 827  HTL827     -0.2933
     11  C2        62.3910   46.6070   11.5580 C.3   827  HTL827      0.1836
     12  S1        63.6920   47.6780   12.2740 S.3   827  HTL827     -0.0904
     13  C5        64.4160   47.9110   10.7650 C.2   827  HTL827      0.0167
     14  C4        63.6620   47.2490    9.7980 C.2   827  HTL827      0.0281
     15  C4A       64.1390   47.1660    8.3440 C.3   827  HTL827      0.0473
     16  C5A       65.6810   48.7660   10.7520 C.3   827  HTL827      0.0661
     17  C5B       65.4010   50.1320   11.3040 C.3   827  HTL827      0.1544
     18  O5G       66.6290   50.8800   11.3240 O.3   827  HTL827     -0.3134
     19  P1        66.5870   52.3080   11.8850 P.3   827  HTL827      0.2230
     20  O11       66.3850   52.1570   13.4810 O.3   827  HTL827     -0.2261
     21  O12       67.8790   52.8980   11.4870 O.3   827  HTL827     -0.4370
     22  O13       65.4160   53.0550   11.4680 O.2   827  HTL827     -0.5169
     23  P2        67.5170   51.9150   14.5840 P.3   827  HTL827      0.5373
     24  O21       68.9250   51.9610   14.0590 O.2   827  HTL827     -0.2221
     25  O22       67.2600   53.1630   15.4770 O.3   827  HTL827     -0.1143
     26  O23       67.2070   50.5840   15.3250 O.3   827  HTL827     -0.1143
     27  C1'       61.3230   45.8770   12.4760 C.2   827  HTL827      0.1797
     28  O2'       60.4650   45.0730   12.0570 O.2   827  HTL827     -0.2934
     29  C3'       61.4090   46.1460   13.9330 C.3   827  HTL827      0.0750
@<TRIPOS>BOND
     1     3     2    1
     2     1     2    2
     3     1     8    1
     4     2     4    2
     5     8     7    2
     6    15    14    1
     7     4     5    2
     8     7     9    1
     9     7     5    1
    10     9    10    1
    11     5     6    1
    12    14    10    1
    13    14    13    2
    14    10    11    1
    15    16    13    1
    16    16    17    1
    17    13    12    1
    18    17    18    1
    19    18    19    1
    20    22    19    2
    21    21    19    1
    22    11    12    1
    23    11    27    1
    24    19    20    1
    25    28    27    2
    26    27    29    1
    27    20    23    1
    28    24    23    2
    29    23    26    1
    30    23    25    1
