@<TRIPOS>MOLECULE
3ahi_HTL_A_1.pdb
 29 30 0 0 0
SMALL
GASTEIGER

@<TRIPOS>ATOM
      1  N1'       59.8990   47.6350    6.6910 N.2   827  HTL827     -0.1861
      2  C2'       59.0640   48.5110    7.3210 C.1   827  HTL827      0.0663
      3  C2A       58.1680   49.4810    6.5390 C.3   827  HTL827      0.1291
      4  N3'       59.0350   48.5550    8.6380 N.2   827  HTL827     -0.3368
      5  C4'       59.8350   47.6850    9.3620 C.2   827  HTL827      0.2292
      6  N4'       59.6690   47.7230   10.7130 N.pl3 827  HTL827     -0.0925
      7  C5'       60.7020   46.7460    8.7290 C.2   827  HTL827      0.0654
      8  C6'       60.6760   46.7970    7.3590 C.2   827  HTL827      0.1115
      9  C35       61.6830   45.6730    9.3280 C.3   827  HTL827      0.1240
     10  N3        62.5680   46.4380   10.2600 N.pl3 827  HTL827     -0.2933
     11  C2        62.3830   46.4340   11.6080 C.3   827  HTL827      0.1836
     12  S1        63.5520   47.5420   12.3730 S.3   827  HTL827     -0.0904
     13  C5        64.3940   47.7880   10.8710 C.2   827  HTL827      0.0167
     14  C4        63.6880   47.1380    9.8590 C.2   827  HTL827      0.0281
     15  C4A       64.1340   47.0780    8.4200 C.3   827  HTL827      0.0473
     16  C5A       65.6330   48.6830   10.9530 C.3   827  HTL827      0.0661
     17  C5B       65.3160   50.1120   11.3490 C.3   827  HTL827      0.1544
     18  O5G       66.5880   50.7980   11.4240 O.3   827  HTL827     -0.3134
     19  P1        66.5170   52.2580   11.8840 P.3   827  HTL827      0.2230
     20  O11       66.2330   52.2120   13.4450 O.3   827  HTL827     -0.2261
     21  O12       67.8500   52.8620   11.4860 O.3   827  HTL827     -0.4370
     22  O13       65.3640   52.9230   11.3930 O.2   827  HTL827     -0.5169
     23  P2        67.3950   51.8650   14.5480 P.3   827  HTL827      0.5373
     24  O21       68.7990   51.8600   14.0100 O.2   827  HTL827     -0.2221
     25  O22       67.1690   53.0830   15.4970 O.3   827  HTL827     -0.1143
     26  O23       66.9740   50.5770   15.2520 O.3   827  HTL827     -0.1143
     27  C1'       61.4220   45.6280   12.4710 C.2   827  HTL827      0.1797
     28  O2'       60.5830   44.8120   11.9990 O.2   827  HTL827     -0.2934
     29  C3'       61.4550   45.9640   13.9820 C.3   827  HTL827      0.0750
@<TRIPOS>BOND
     1     3     2    1
     2     1     2    2
     3     1     8    1
     4     2     4    2
     5     8     7    2
     6    15    14    1
     7     4     5    2
     8     7     9    1
     9     7     5    1
    10     9    10    1
    11     5     6    1
    12    14    10    1
    13    14    13    2
    14    10    11    1
    15    13    16    1
    16    13    12    1
    17    16    17    1
    18    17    18    1
    19    22    19    2
    20    18    19    1
    21    21    19    1
    22    11    12    1
    23    11    27    1
    24    19    20    1
    25    28    27    2
    26    27    29    1
    27    20    23    1
    28    24    23    2
    29    23    26    1
    30    23    25    1
