@<TRIPOS>MOLECULE
3ahj_TPP_A_1.pdb
 26 27 0 0 0
SMALL
GASTEIGER

@<TRIPOS>ATOM
      1  N1'       60.0550   47.9630    6.5210 N.2   827  TPP827     -0.1861
      2  C2'       59.2250   48.8270    7.2070 C.1   827  TPP827      0.0663
      3  CM2       58.3300   49.7890    6.4960 C.3   827  TPP827      0.1291
      4  N3'       59.1790   48.8870    8.5350 N.2   827  TPP827     -0.3368
      5  C4'       60.0230   48.0220    9.2130 C.2   827  TPP827      0.2292
      6  N4'       59.9820   47.9960   10.5590 N.pl3 827  TPP827     -0.0925
      7  C5'       60.8660   47.1020    8.5360 C.2   827  TPP827      0.0654
      8  C6'       60.8330   47.1190    7.1530 C.2   827  TPP827      0.1115
      9  C7'       61.8230   46.0730    9.2310 C.3   827  TPP827      0.1237
     10  N3        62.5860   46.8190   10.2550 N.pl3 827  TPP827     -0.2970
     11  C2        62.1950   46.8960   11.7160 C.3   827  TPP827      0.1543
     12  S1        63.6410   47.9110   12.3970 S.3   827  TPP827     -0.0951
     13  C5        64.4720   48.0200   10.9260 C.2   827  TPP827      0.0164
     14  C4        63.7820   47.3920    9.9330 C.2   827  TPP827      0.0279
     15  CM4       64.4100   47.3070    8.5480 C.3   827  TPP827      0.0473
     16  C6        65.8040   48.8010   10.8800 C.3   827  TPP827      0.0661
     17  C7        65.4980   50.2430   11.3780 C.3   827  TPP827      0.1544
     18  O7        66.7530   50.9690   11.3980 O.3   827  TPP827     -0.3134
     19  PA        66.8030   52.4390   11.9350 P.3   827  TPP827      0.2230
     20  O1A       65.6250   53.1190   11.4840 O.2   827  TPP827     -0.5169
     21  O2A       68.1680   53.0340   11.5530 O.3   827  TPP827     -0.4370
     22  O3A       66.5730   52.3370   13.4640 O.3   827  TPP827     -0.2261
     23  PB        67.7270   52.0390   14.6350 P.3   827  TPP827      0.5373
     24  O1B       69.1400   52.1230   14.0050 O.2   827  TPP827     -0.2221
     25  O2B       67.4560   50.6990   15.3970 O.3   827  TPP827     -0.1143
     26  O3B       67.5250   53.2710   15.5150 O.3   827  TPP827     -0.1143
@<TRIPOS>BOND
     1     3     2    1
     2     1     8    1
     3     1     2    2
     4     8     7    2
     5     2     4    2
     6     4     5    2
     7     7     5    1
     8     7     9    1
     9    15    14    1
    10     5     6    1
    11     9    10    1
    12    14    10    1
    13    14    13    2
    14    10    11    1
    15    16    13    1
    16    16    17    1
    17    13    12    1
    18    17    18    1
    19    18    19    1
    20    20    19    2
    21    21    19    1
    22    11    12    1
    23    19    22    1
    24    22    23    1
    25    24    23    2
    26    23    25    1
    27    23    26    1
