@<TRIPOS>MOLECULE
3aht_LB2_A_1.pdb
 23 24 0 0 0
SMALL
GASTEIGER

@<TRIPOS>ATOM
      1  O1D        5.3530    2.0000   42.7410 O.3   1000  LB21000    -0.1869
      2  C1D        4.6220    2.1190   41.5130 C.3   1000  LB21000     0.3022
      3  C2D        5.4600    1.5880   40.3470 C.3   1000  LB21000     0.2403
      4  O2D        6.5520    2.4820   40.0990 O.3   1000  LB21000    -0.2149
      5  O5D        3.4090    1.3830   41.6470 O.3   1000  LB21000    -0.3236
      6  C5D        2.5960    1.4760   40.4800 C.3   1000  LB21000     0.1835
      7  C6D        1.2330    0.8470   40.7440 C.3   1000  LB21000     0.2142
      8  O6D        1.3790   -0.1980   41.7120 O.3   1000  LB21000    -0.2176
      9  C4D        3.3120    0.7750   39.3380 C.3   1000  LB21000     0.2113
     10  O4D        2.5160    0.8530   38.1560 O.3   1000  LB21000    -0.2177
     11  C3D        4.6450    1.4490   39.0640 C.3   1000  LB21000     0.1859
     12  O3D        5.3560    0.6730   38.0950 O.3   1000  LB21000    -0.3255
     13  C1E        5.8000    1.4440   36.9690 C.3   1000  LB21000     0.2695
     14  C2E        6.0330    0.4830   35.7880 C.3   1000  LB21000     0.2406
     15  O2E        7.4210    0.4840   35.4400 O.3   1000  LB21000    -0.2149
     16  C3E        5.2180    0.7600   34.5370 C.3   1000  LB21000     0.2198
     17  O3E        5.0090   -0.4590   33.8250 O.3   1000  LB21000    -0.2174
     18  C4E        3.9000    1.3640   34.9580 C.3   1000  LB21000     0.2144
     19  O4E        3.0430    1.5400   33.8310 O.3   1000  LB21000    -0.2176
     20  O5E        4.9120    2.5710   36.7780 O.3   1000  LB21000    -0.3256
     21  C5E        4.2240    2.7190   35.5380 C.3   1000  LB21000     0.1835
     22  C6E        2.9420    3.5040   35.7650 C.3   1000  LB21000     0.2142
     23  O6E        2.4850    3.2610   37.1010 O.3   1000  LB21000    -0.2176
@<TRIPOS>BOND
     1    17    16    1
     2    19    18    1
     3    16    18    1
     4    16    14    1
     5    18    21    1
     6    15    14    1
     7    21    22    1
     8    21    20    1
     9    22    23    1
    10    14    13    1
    11    20    13    1
    12    13    12    1
    13    12    11    1
    14    10     9    1
    15    11     9    1
    16    11     3    1
    17     9     6    1
    18     4     3    1
    19     3     2    1
    20     6     7    1
    21     6     5    1
    22     7     8    1
    23     2     5    1
    24     2     1    1
