@<TRIPOS>MOLECULE
3ahv_G2F_A_1.pdb
 11 11 0 0 0
SMALL
GASTEIGER

@<TRIPOS>ATOM
      1  C1         6.2530    1.8850   36.2790 C.3   1000  G2F1000     0.1801
      2  C2         6.0590    0.6620   35.3950 C.3   1000  G2F1000     0.2230
      3  C3         5.2510    1.0090   34.1630 C.3   1000  G2F1000     0.2194
      4  C4         3.9090    1.6190   34.5940 C.3   1000  G2F1000     0.2144
      5  C5         4.2050    2.8920   35.3900 C.3   1000  G2F1000     0.1810
      6  C6         2.9510    3.5940   35.9210 C.3   1000  G2F1000     0.2141
      7  O3         5.0450   -0.2290   33.4390 O.3   1000  G2F1000    -0.2173
      8  O4         3.0940    1.9050   33.4470 O.3   1000  G2F1000    -0.2176
      9  O5         5.0150    2.5600   36.5360 O.3   1000  G2F1000    -0.3479
     10  O6         2.1770    2.6710   36.7070 O.3   1000  G2F1000    -0.2176
     11  F2         7.2800    0.2230   34.9750 F     1000  G2F1000    -0.2317
@<TRIPOS>BOND
     1     7     3    1
     2     8     4    1
     3     3     4    1
     4     3     2    1
     5     4     5    1
     6    11     2    1
     7     5     6    1
     8     5     9    1
     9     2     1    1
    10     6    10    1
    11     1     9    1
