@<TRIPOS>MOLECULE
3ahw_2AM_A_1.pdb
 23 25 0 0 0
SMALL
GASTEIGER

@<TRIPOS>ATOM
      1  P         15.6020    7.6790    5.9510 P.3   121  2AM121      0.5328
      2  O1P       16.4490    7.6430    7.2030 O.3   121  2AM121     -0.1145
      3  O2P       15.8100    6.4480    5.1210 O.2   121  2AM121     -0.2224
      4  O3P       14.1410    7.9740    6.2110 O.3   121  2AM121     -0.1145
      5  C5'       20.6810   10.0770    5.0400 C.3   121  2AM121      0.2143
      6  O5'       20.6580    8.6650    5.1710 O.3   121  2AM121     -0.2176
      7  C4'       19.3100   10.6790    4.7320 C.3   121  2AM121      0.1850
      8  O4'       18.8990   10.3230    3.3910 O.3   121  2AM121     -0.3135
      9  C3'       18.1790   10.1770    5.6330 C.3   121  2AM121      0.2158
     10  O3'       17.2810   11.2150    5.8940 O.3   121  2AM121     -0.2175
     11  C2'       17.4690    9.1250    4.8090 C.3   121  2AM121      0.2314
     12  O2'       16.0950    8.9300    5.0760 O.3   121  2AM121     -0.2630
     13  C1'       17.6420    9.6630    3.3970 C.3   121  2AM121      0.3158
     14  N9        17.6720    8.6440    2.3510 N.pl3 121  2AM121     -0.1439
     15  C8        16.8950    8.6170    1.2180 C.3   121  2AM121      0.3377
     16  N7        17.2050    7.5820    0.4360 N.2   121  2AM121     -0.2095
     17  C5        18.2190    6.9260    1.0800 C.2   121  2AM121      0.2526
     18  C6        18.9790    5.8060    0.7130 C.2   121  2AM121      0.4393
     19  N6        18.7480    5.0730   -0.3990 N.pl3 121  2AM121      0.2180
     20  N1        19.9910    5.4230    1.5530 N.2   121  2AM121      0.0021
     21  C2        20.2520    6.1440    2.6600 C.3   121  2AM121      0.5254
     22  N3        19.5580    7.2230    3.0970 N.2   121  2AM121     -0.0055
     23  C4        18.5400    7.5850    2.2670 C.2   121  2AM121      0.3518
@<TRIPOS>BOND
     1    19    18    1
     2    16    17    2
     3    16    15    1
     4    18    17    1
     5    18    20    2
     6    17    23    1
     7    15    14    1
     8    20    21    1
     9    23    14    1
    10    23    22    2
    11    14    13    1
    12    21    22    1
    13     8    13    1
    14     8     7    1
    15    13    11    1
    16     7     5    1
    17     7     9    1
    18    11    12    1
    19    11     9    1
    20     5     6    1
    21    12     1    1
    22     3     1    2
    23     9    10    1
    24     1     4    1
    25     1     2    1
