@<TRIPOS>MOLECULE
3ai0_PNW_A_1.pdb
 21 22 0 0 0
SMALL
GASTEIGER

@<TRIPOS>ATOM
      1  C1       -26.9270   82.1020   14.6230 C.3   2001  PNW2001     0.3218
      2  N1       -22.6000   83.7640   10.1690 N.pl3 2001  PNW2001     0.0577
      3  O1       -27.0280   82.5870   13.2920 O.3   2001  PNW2001    -0.4505
      4  C2       -28.3400   82.1860   15.1950 C.3   2001  PNW2001     0.2542
      5  O2       -28.6500   83.5370   15.5540 O.3   2001  PNW2001    -0.2135
      6  C3       -28.5660   81.2980   16.4150 C.3   2001  PNW2001     0.2211
      7  O3       -29.9890   81.2030   16.5770 O.3   2001  PNW2001    -0.2173
      8  C4       -27.9700   79.9200   16.1170 C.3   2001  PNW2001     0.2145
      9  O4       -28.1120   79.1300   17.3030 O.3   2001  PNW2001    -0.2176
     10  C5       -26.4910   80.1040   15.7610 C.3   2001  PNW2001     0.1846
     11  O5       -26.4950   80.7420   14.4830 O.3   2001  PNW2001    -0.3157
     12  C6       -25.7240   78.7940   15.5730 C.3   2001  PNW2001     0.2142
     13  O6       -26.3640   77.8800   14.6750 O.3   2001  PNW2001    -0.2176
     14  C7       -25.8970   82.8360   12.5610 C.ar  2001  PNW2001     0.1415
     15  O7       -22.7830   84.3370    9.1030 O.2   2001  PNW2001    -0.1261
     16  C8       -26.0820   83.4110   11.3060 C.ar  2001  PNW2001     0.0387
     17  O8       -21.4680   83.4860   10.5280 O.2   2001  PNW2001    -0.1261
     18  C9       -24.9840   83.7550   10.5240 C.ar  2001  PNW2001     0.0272
     19  C10      -23.7010   83.4430   10.9830 C.ar  2001  PNW2001     0.1431
     20  C11      -23.5170   82.8930   12.2560 C.ar  2001  PNW2001     0.0272
     21  C12      -24.6160   82.5640   13.0520 C.ar  2001  PNW2001     0.0387
@<TRIPOS>BOND
     1    15     2    2
     2     2    17    2
     3     2    19    1
     4    18    19   ar
     5    18    16   ar
     6    19    20   ar
     7    16    14   ar
     8    20    21   ar
     9    14    21   ar
    10    14     3    1
    11     3     1    1
    12    11     1    1
    13    11    10    1
    14     1     4    1
    15    13    12    1
    16     4     5    1
    17     4     6    1
    18    12    10    1
    19    10     8    1
    20     8     6    1
    21     8     9    1
    22     6     7    1
