@<TRIPOS>MOLECULE
3ai2_NAP_A_1.pdb
 48 52 0 0 0
SMALL
GASTEIGER

@<TRIPOS>ATOM
      1  PA        80.3620   15.5900   11.7630 P.3   270  NAP270      0.2189
      2  O1A       81.4060   16.3650   12.4900 O.3   270  NAP270     -0.4371
      3  O2A       79.4430   16.2280   10.7480 O.2   270  NAP270     -0.5170
      4  O5B       81.0640   14.2610   11.1920 O.3   270  NAP270     -0.3112
      5  C5B       80.3980   13.4530   10.2690 C.3   270  NAP270      0.1813
      6  C4B       81.4220   12.4740    9.7230 C.3   270  NAP270      0.1820
      7  O4B       80.6600   11.5160    9.0100 O.3   270  NAP270     -0.3136
      8  C3B       82.3710   13.1340    8.7350 C.3   270  NAP270      0.2157
      9  O3B       83.6430   12.4690    8.7250 O.3   270  NAP270     -0.2175
     10  C2B       81.6000   12.9570    7.4490 C.3   270  NAP270      0.2314
     11  O2B       82.5190   13.0850    6.3780 O.3   270  NAP270     -0.2630
     12  C1B       80.9240   11.5930    7.6390 C.3   270  NAP270      0.3158
     13  N9A       79.6760   11.3630    6.8890 N.pl3 270  NAP270     -0.1439
     14  C8A       78.4890   12.0510    6.8940 C.3   270  NAP270      0.3377
     15  N7A       77.6440   11.4300    6.0490 N.2   270  NAP270     -0.2095
     16  C5A       78.2900   10.3740    5.5010 C.2   270  NAP270      0.2526
     17  C6A       77.9420    9.4270    4.5550 C.2   270  NAP270      0.4393
     18  N6A       76.7400    9.4550    3.9850 N.pl3 270  NAP270      0.2180
     19  N1A       78.8570    8.4340    4.2120 N.2   270  NAP270      0.0021
     20  C2A       80.1210    8.3760    4.7660 C.3   270  NAP270      0.5254
     21  N3A       80.4770    9.3440    5.7040 N.2   270  NAP270     -0.0055
     22  C4A       79.5600   10.3110    6.0450 C.2   270  NAP270      0.3518
     23  O3        79.3970   14.8830   12.8500 O.3   270  NAP270     -0.2703
     24  PN        79.5900   14.4780   14.4150 P.3   270  NAP270      0.2189
     25  O1N       78.9180   15.5240   15.2030 O.3   270  NAP270     -0.4371
     26  O2N       80.9860   13.9910   14.6600 O.2   270  NAP270     -0.5170
     27  O5D       78.5550   13.2500   14.4310 O.3   270  NAP270     -0.3112
     28  C5D       78.9550   11.9060   14.3290 C.3   270  NAP270      0.1813
     29  C4D       77.8550   11.0790   14.9870 C.3   270  NAP270      0.1799
     30  O4D       77.6400   11.4490   16.3410 O.3   270  NAP270     -0.3327
     31  C3D       76.5460   11.2160   14.2370 C.3   270  NAP270      0.2158
     32  O3D       75.9510    9.9290   14.1210 O.3   270  NAP270     -0.2175
     33  C2D       75.7290   12.0820   15.1600 C.3   270  NAP270      0.2309
     34  O2D       74.3590   11.8360   14.9880 O.3   270  NAP270     -0.2158
     35  C1D       76.2530   11.5840   16.5290 C.3   270  NAP270      0.2263
     36  N1N       76.0080   12.4980   17.6340 N.pl3 270  NAP270     -0.2787
     37  C2N       76.5530   13.7900   17.6100 C.3   270  NAP270      0.1244
     38  C3N       76.3120   14.6610   18.6720 C.2   270  NAP270      0.0544
     39  C7N       76.9390   16.0480   18.6890 C.2   270  NAP270      0.2818
     40  O7N       76.4960   16.9690   19.6380 O.2   270  NAP270     -0.2670
     41  N7N       77.9020   16.4110   17.8390 N.am  270  NAP270     -0.0839
     42  C4N       75.4930   14.2600   19.7630 C.2   270  NAP270      0.0033
     43  C5N       74.9810   12.9430   19.7840 C.2   270  NAP270      0.0157
     44  C6N       75.2610   12.0590   18.7190 C.2   270  NAP270      0.0633
     45  P2B       82.0250   13.4120    4.8710 P.3   270  NAP270      0.5328
     46  O1X       81.0530   14.5740    4.8430 O.3   270  NAP270     -0.1145
     47  O2X       81.1850   12.2740    4.3440 O.3   270  NAP270     -0.1145
     48  O3X       83.2540   13.6600    4.0220 O.2   270  NAP270     -0.2224
@<TRIPOS>BOND
     1    18    17    1
     2    48    45    2
     3    19    17    2
     4    19    20    1
     5    47    45    1
     6    17    16    1
     7    20    21    1
     8    46    45    1
     9    45    11    1
    10    16    22    1
    11    16    15    2
    12    21    22    2
    13    22    13    1
    14    15    14    1
    15    11    10    1
    16    13    14    1
    17    13    12    1
    18    10    12    1
    19    10     8    1
    20    12     7    1
    21     9     8    1
    22     8     6    1
    23     7     6    1
    24     6     5    1
    25     5     4    1
    26     3     1    2
    27     4     1    1
    28     1     2    1
    29     1    23    1
    30    23    24    1
    31    32    31    1
    32    31    29    1
    33    31    33    1
    34    28    27    1
    35    28    29    1
    36    24    27    1
    37    24    26    2
    38    24    25    1
    39    29    30    1
    40    34    33    1
    41    33    35    1
    42    30    35    1
    43    35    36    1
    44    37    36    1
    45    37    38    1
    46    36    44    1
    47    41    39   am
    48    38    39    1
    49    38    42    2
    50    39    40    2
    51    44    43    2
    52    42    43    1
