@<TRIPOS>MOLECULE
3ai3_NAP_A_1.pdb
 48 52 0 0 0
SMALL
GASTEIGER

@<TRIPOS>ATOM
      1  PA        42.2990  143.6260  105.9840 P.3   270  NAP270      0.2189
      2  O1A       43.0570  142.9880  104.8900 O.2   270  NAP270     -0.5170
      3  O2A       42.8870  144.7270  106.7560 O.3   270  NAP270     -0.4371
      4  O5B       40.9980  144.2100  105.2750 O.3   270  NAP270     -0.3112
      5  C5B       40.0890  144.9600  106.0270 C.3   270  NAP270      0.1813
      6  C4B       39.1260  145.6330  105.0520 C.3   270  NAP270      0.1820
      7  O4B       38.2260  146.3810  105.8520 O.3   270  NAP270     -0.3136
      8  C3B       39.8210  146.6270  104.1270 C.3   270  NAP270      0.2157
      9  O3B       39.1290  146.7080  102.8910 O.3   270  NAP270     -0.2175
     10  C2B       39.6910  147.9480  104.8650 C.3   270  NAP270      0.2314
     11  O2B       39.7850  149.0160  103.9430 O.3   270  NAP270     -0.2630
     12  C1B       38.3260  147.7690  105.5310 C.3   270  NAP270      0.3158
     13  N9A       38.0900  148.5420  106.7520 N.pl3 270  NAP270     -0.1439
     14  C8A       38.8000  148.5310  107.9270 C.3   270  NAP270      0.3377
     15  N7A       38.2190  149.4000  108.7670 N.2   270  NAP270     -0.2095
     16  C5A       37.1560  149.9600  108.1610 C.2   270  NAP270      0.2526
     17  C6A       36.2300  150.9140  108.5640 C.2   270  NAP270      0.4393
     18  N6A       36.3010  151.4600  109.7750 N.pl3 270  NAP270      0.2180
     19  N1A       35.2460  151.2970  107.6710 N.2   270  NAP270      0.0021
     20  C2A       35.1620  150.7540  106.4100 C.3   270  NAP270      0.5254
     21  N3A       36.1080  149.8220  106.0160 N.2   270  NAP270     -0.0055
     22  C4A       37.0740  149.4390  106.8860 C.2   270  NAP270      0.3518
     23  O3        41.6980  142.5490  107.0050 O.3   270  NAP270     -0.2703
     24  PN        41.2360  141.0140  106.8620 P.3   270  NAP270      0.2189
     25  O1N       42.3180  140.2690  107.5410 O.3   270  NAP270     -0.4371
     26  O2N       40.7140  140.7360  105.5080 O.2   270  NAP270     -0.5170
     27  O5D       40.0160  140.9860  107.8960 O.3   270  NAP270     -0.3112
     28  C5D       38.6640  141.2100  107.5510 C.3   270  NAP270      0.1813
     29  C4D       37.8670  140.5680  108.6930 C.3   270  NAP270      0.1799
     30  O4D       38.2620  139.2170  108.8880 O.3   270  NAP270     -0.3327
     31  C3D       38.0550  141.3080  110.0040 C.3   270  NAP270      0.2158
     32  O3D       36.7650  141.4530  110.5830 O.3   270  NAP270     -0.2175
     33  C2D       38.8820  140.3360  110.8210 C.3   270  NAP270      0.2309
     34  O2D       38.5950  140.4620  112.1980 O.3   270  NAP270     -0.2158
     35  C1D       38.3840  138.9910  110.2800 C.3   270  NAP270      0.2263
     36  N1N       39.3210  137.8930  110.5070 N.pl3 270  NAP270     -0.2787
     37  C2N       40.5430  137.8800  109.8480 C.3   270  NAP270      0.1244
     38  C3N       41.3850  136.8110  110.0640 C.2   270  NAP270      0.0544
     39  C7N       42.7340  136.8090  109.4300 C.2   270  NAP270      0.2818
     40  O7N       43.6120  135.8790  109.9170 O.2   270  NAP270     -0.2670
     41  N7N       43.0610  137.6860  108.4840 N.am  270  NAP270     -0.0839
     42  C4N       41.0290  135.7680  110.9490 C.2   270  NAP270      0.0033
     43  C5N       39.7870  135.7940  111.5890 C.2   270  NAP270      0.0157
     44  C6N       38.9360  136.8620  111.3340 C.2   270  NAP270      0.0633
     45  P2B       40.1460  150.5210  104.3920 P.3   270  NAP270      0.5328
     46  O1X       41.3200  150.5970  105.3290 O.3   270  NAP270     -0.1145
     47  O2X       38.9520  151.0170  105.1740 O.3   270  NAP270     -0.1145
     48  O3X       40.2770  151.3100  103.1200 O.2   270  NAP270     -0.2224
@<TRIPOS>BOND
     1     9     8    1
     2    48    45    2
     3    11    45    1
     4    11    10    1
     5     8    10    1
     6     8     6    1
     7    45    47    1
     8    45    46    1
     9    10    12    1
    10     2     1    2
    11     6     7    1
    12     6     5    1
    13     4     1    1
    14     4     5    1
    15    26    24    2
    16    12     7    1
    17    12    13    1
    18     1     3    1
    19     1    23    1
    20    21    20    1
    21    21    22    2
    22    20    19    1
    23    13    22    1
    24    13    14    1
    25    24    23    1
    26    24    25    1
    27    24    27    1
    28    22    16    1
    29    28    27    1
    30    28    29    1
    31    19    17    2
    32    14    15    1
    33    16    17    1
    34    16    15    2
    35    41    39   am
    36    17    18    1
    37    29    30    1
    38    29    31    1
    39    30    35    1
    40    39    40    2
    41    39    38    1
    42    37    38    1
    43    37    36    1
    44    31    32    1
    45    31    33    1
    46    38    42    2
    47    35    36    1
    48    35    33    1
    49    36    44    1
    50    33    34    1
    51    42    43    1
    52    44    43    2
