@<TRIPOS>MOLECULE
3ai3_SOE_E_1.pdb
 12 12 0 0 0
SMALL
GASTEIGER

@<TRIPOS>ATOM
      1  C1        41.3160  115.4580   97.9790 C.3   264  SOE264      0.2434
      2  O1        41.3770  116.7070   98.6650 O.3   264  SOE264     -0.2148
      3  C2        39.9150  115.2760   97.4020 C.3   264  SOE264      0.2807
      4  O2        39.9200  114.0280   96.6930 O.3   264  SOE264     -0.1896
      5  C3        39.5420  116.4210   96.4540 C.3   264  SOE264      0.2410
      6  O3        40.4330  116.4890   95.3240 O.3   264  SOE264     -0.2149
      7  C4        38.0980  116.2740   95.9770 C.3   264  SOE264      0.2198
      8  O4        37.7290  117.4040   95.1820 O.3   264  SOE264     -0.2174
      9  C5        37.1470  116.1460   97.1690 C.3   264  SOE264      0.2143
     10  O5        35.8150  115.9110   96.6800 O.3   264  SOE264     -0.2176
     11  C6        37.5920  115.0080   98.0840 C.3   264  SOE264      0.1803
     12  O6        38.9630  115.2230   98.4880 O.3   264  SOE264     -0.3254
@<TRIPOS>BOND
     1     8     7    1
     2     6     5    1
     3     7     5    1
     4     7     9    1
     5     5     3    1
     6    10     9    1
     7     4     3    1
     8     9    11    1
     9     3     1    1
    10     3    12    1
    11     1     2    1
    12    11    12    1
