@<TRIPOS>MOLECULE
3ai3_SOL_A_1.pdb
 12 11 0 0 0
SMALL
GASTEIGER

@<TRIPOS>ATOM
      1  C1        44.3660  138.9210  111.4780 C.3     0  SOL0        0.2175
      2  O1        45.0280  140.1860  111.5790 O.3     0  SOL0       -0.2175
      3  C2        43.1580  138.8590  112.4070 C.3     0  SOL0        0.2179
      4  O2        42.2720  139.9470  112.0910 O.3     0  SOL0       -0.2175
      5  C3        43.6230  138.9330  113.8660 C.3     0  SOL0        0.2221
      6  O3        43.1410  140.1430  114.4550 O.3     0  SOL0       -0.2171
      7  C4        43.2900  137.7830  114.8300 C.3     0  SOL0        0.2440
      8  O4        44.5690  137.3120  115.3030 O.3     0  SOL0       -0.2122
      9  C5        42.4660  136.6190  114.3220 C.2     0  SOL0        0.2165
     10  O5        41.2510  136.7190  114.1320 O.2     0  SOL0       -0.2905
     11  C6        43.1790  135.3040  114.1130 C.3     0  SOL0        0.2486
     12  O6        42.2910  134.3050  113.6100 O.3     0  SOL0       -0.2118
@<TRIPOS>BOND
     1     1     2    1
     2     1     3    1
     3     4     3    1
     4     3     5    1
     5    12    11    1
     6     5     6    1
     7     5     7    1
     8    11     9    1
     9    10     9    2
    10     9     7    1
    11     7     8    1
