@<TRIPOS>MOLECULE
3ai7_TPP_A_1.pdb
 26 27 0 0 0
SMALL
GASTEIGER

@<TRIPOS>ATOM
      1  N1'       -8.6730   12.0020    6.7950 N.2   900  TPP900     -0.1861
      2  C2'       -8.2400   10.7880    6.4680 C.1   900  TPP900      0.0663
      3  CM2       -7.0240   10.6250    5.5600 C.3   900  TPP900      0.1291
      4  N3'       -8.8920    9.6930    6.9710 N.2   900  TPP900     -0.3368
      5  C4'       -9.9940    9.8330    7.7730 C.2   900  TPP900      0.2292
      6  N4'      -10.5820    8.6980    8.2980 N.pl3 900  TPP900     -0.0925
      7  C5'      -10.4430   11.0990    8.1140 C.2   900  TPP900      0.0654
      8  C6'       -9.7750   12.1670    7.5650 C.2   900  TPP900      0.1115
      9  C7'      -11.6640   11.3480    9.0060 C.3   900  TPP900      0.1237
     10  N3       -12.8340   10.6890    8.3540 N.pl3 900  TPP900     -0.2970
     11  C2       -13.2730    9.4700    8.7800 C.3   900  TPP900      0.1543
     12  S1       -14.6980    8.9690    7.8280 S.3   900  TPP900     -0.0951
     13  C5       -14.6520   10.5140    6.9060 C.2   900  TPP900      0.0164
     14  C4       -13.5670   11.2700    7.3480 C.2   900  TPP900      0.0279
     15  CM4      -13.3070   12.6450    6.8430 C.3   900  TPP900      0.0473
     16  C6       -15.7160   10.7060    5.8290 C.3   900  TPP900      0.0661
     17  C7       -15.4130    9.7280    4.6890 C.3   900  TPP900      0.1544
     18  O7       -16.5640    9.6840    3.8380 O.3   900  TPP900     -0.3134
     19  PA       -16.7150    8.5770    2.6740 P.3   900  TPP900      0.2230
     20  O1A      -15.3590    8.1880    1.9830 O.3   900  TPP900     -0.4370
     21  O2A      -17.8560    9.2620    1.6160 O.2   900  TPP900     -0.5169
     22  O3A      -17.3170    7.3170    3.5070 O.3   900  TPP900     -0.2261
     23  PB       -18.9000    7.0870    3.8450 P.3   900  TPP900      0.5373
     24  O1B      -19.8330    8.2180    3.3590 O.3   900  TPP900     -0.1143
     25  O2B      -19.2820    5.6950    2.8640 O.2   900  TPP900     -0.2221
     26  O3B      -19.2270    6.8460    5.5030 O.3   900  TPP900     -0.1143
@<TRIPOS>BOND
     1    21    19    2
     2    20    19    1
     3    19    22    1
     4    19    18    1
     5    25    23    2
     6    24    23    1
     7    22    23    1
     8    18    17    1
     9    23    26    1
    10    17    16    1
    11     3     2    1
    12    16    13    1
    13     2     1    2
    14     2     4    2
    15     1     8    1
    16    15    14    1
    17    13    14    2
    18    13    12    1
    19     4     5    2
    20    14    10    1
    21     8     7    2
    22     5     7    1
    23     5     6    1
    24    12    11    1
    25     7     9    1
    26    10    11    1
    27    10     9    1
