@<TRIPOS>MOLECULE
3ai8_HNQ_A_1.pdb
 14 15 0 0 0
SMALL
GASTEIGER

@<TRIPOS>ATOM
      1  C1        -6.3830   -6.9670    1.1730 C.2   255  HNQ255      0.1300
      2  N1        -5.8680   -5.7870    0.8040 N.pl3 255  HNQ255      0.0543
      3  O1        -6.0710   -4.9740    1.3110 O.2   255  HNQ255     -0.1264
      4  C2        -7.0990   -7.5620    0.3570 C.2   255  HNQ255      0.0237
      5  N2        -6.7990   -8.9540    3.9810 N.2   255  HNQ255     -0.2660
      6  O2        -5.3310   -5.8060    0.0950 O.2   255  HNQ255     -0.1264
      7  C3        -7.7800   -8.6830    0.7200 C.2   255  HNQ255      0.0447
      8  O3        -8.3430  -10.2090    2.3250 O.2   255  HNQ255     -0.2853
      9  C4        -7.6720   -9.1300    1.9300 C.2   255  HNQ255      0.2094
     10  C5        -6.8930   -8.4890    2.7780 C.2   255  HNQ255      0.1023
     11  C6        -6.0220   -8.3200    4.7920 C.3   255  HNQ255      0.1510
     12  C7        -5.3320   -7.2310    4.4280 C.2   255  HNQ255     -0.0039
     13  C8        -5.4430   -6.7910    3.2780 C.2   255  HNQ255     -0.0169
     14  C9        -6.2380   -7.4090    2.4040 C.3   255  HNQ255      0.1097
@<TRIPOS>BOND
     1     6     2    2
     2     4     7    1
     3     4     1    2
     4     7     9    2
     5     2     1    1
     6     2     3    2
     7     1    14    1
     8     9     8    1
     9     9    10    1
    10    14    10    1
    11    14    13    1
    12    10     5    2
    13    13    12    2
    14     5    11    1
    15    12    11    1
