@<TRIPOS>MOLECULE
3ai9_SAM_X_1.pdb
 20 22 0 0 0
SMALL
GASTEIGER

@<TRIPOS>ATOM
      1  CG        37.1030   45.8960   23.8850 C.3   501  SAM501      0.0693
      2  SD        36.7800   47.4980   23.1020 S.3   501  SAM501     -0.1367
      3  C5'       35.8070   46.9450   21.6610 C.3   501  SAM501      0.0899
      4  C4'       35.6200   47.9830   20.5450 C.3   501  SAM501      0.1630
      5  O4'       34.5440   48.8640   20.8450 O.3   501  SAM501     -0.3153
      6  C3'       36.8480   48.8780   20.2930 C.3   501  SAM501      0.2168
      7  O3'       37.8320   48.3580   19.4110 O.3   501  SAM501     -0.2175
      8  C2'       36.2220   50.1580   19.7650 C.3   501  SAM501      0.2569
      9  O2'       36.0510   50.0800   18.3570 O.3   501  SAM501     -0.2130
     10  C1'       34.8630   50.1990   20.4590 C.3   501  SAM501      0.3185
     11  N9        34.8710   51.1040   21.6420 N.pl3 501  SAM501     -0.1439
     12  C8        35.1550   50.7490   22.9420 C.3   501  SAM501      0.3377
     13  N7        35.0270   51.8450   23.7330 N.2   501  SAM501     -0.2095
     14  C5        34.6670   52.9030   22.9680 C.2   501  SAM501      0.2526
     15  C6        34.4110   54.2430   23.2600 C.2   501  SAM501      0.4393
     16  N6        34.5210   54.6740   24.5100 N.pl3 501  SAM501      0.2180
     17  N1        34.0340   55.1230   22.2620 N.2   501  SAM501      0.0021
     18  C2        33.9290   54.6660   20.9760 C.3   501  SAM501      0.5254
     19  N3        34.1940   53.3380   20.6890 N.2   501  SAM501     -0.0055
     20  C4        34.5590   52.4570   21.6570 C.2   501  SAM501      0.3518
@<TRIPOS>BOND
     1     9     8    1
     2     7     6    1
     3     8     6    1
     4     8    10    1
     5     6     4    1
     6    10     5    1
     7    10    11    1
     8     4     5    1
     9     4     3    1
    10    19    18    1
    11    19    20    2
    12    18    17    1
    13    11    20    1
    14    11    12    1
    15    20    14    1
    16     3     2    1
    17    17    15    2
    18    12    13    1
    19    14    15    1
    20    14    13    2
    21     2     1    1
    22    15    16    1
