@<TRIPOS>MOLECULE
3aia_SAM_A_1.pdb
 20 22 0 0 0
SMALL
GASTEIGER

@<TRIPOS>ATOM
      1  CG         2.2430   -2.9730   22.5320 C.3   206  SAM206      0.0693
      2  SD         3.7250   -3.6230   23.3570 S.3   206  SAM206     -0.1367
      3  C5'        5.0260   -3.0550   22.2270 C.3   206  SAM206      0.0899
      4  C4'        5.4580   -4.0950   21.1960 C.3   206  SAM206      0.1630
      5  O4'        6.3210   -5.0330   21.8110 O.3   206  SAM206     -0.3153
      6  C3'        4.3130   -4.9340   20.6340 C.3   206  SAM206      0.2168
      7  O3'        3.7000   -4.3440   19.5040 O.3   206  SAM206     -0.2175
      8  C2'        4.9900   -6.2250   20.2650 C.3   206  SAM206      0.2569
      9  O2'        5.5690   -6.0570   18.9890 O.3   206  SAM206     -0.2130
     10  C1'        6.1100   -6.3230   21.2730 C.3   206  SAM206      0.3185
     11  N9         5.8660   -7.2070   22.4310 N.pl3 206  SAM206     -0.1439
     12  C8         5.5290   -6.8110   23.7050 C.3   206  SAM206      0.3377
     13  N7         5.4720   -7.9030   24.4960 N.2   206  SAM206     -0.2095
     14  C5         5.7800   -8.9950   23.7390 C.2   206  SAM206      0.2526
     15  C6         5.8770  -10.3580   24.0110 C.2   206  SAM206      0.4393
     16  N6         5.6370  -10.8520   25.2260 N.pl3 206  SAM206      0.2180
     17  N1         6.2220  -11.2190   22.9950 N.2   206  SAM206      0.0021
     18  C2         6.4810  -10.7610   21.7170 C.3   206  SAM206      0.5254
     19  N3         6.3910   -9.4100   21.4380 N.2   206  SAM206     -0.0055
     20  C4         6.0410   -8.5600   22.4390 C.2   206  SAM206      0.3518
@<TRIPOS>BOND
     1     9     8    1
     2     7     6    1
     3     8     6    1
     4     8    10    1
     5     6     4    1
     6     4     5    1
     7     4     3    1
     8    10     5    1
     9    10    11    1
    10    19    18    1
    11    19    20    2
    12    18    17    1
    13     3     2    1
    14    11    20    1
    15    11    12    1
    16    20    14    1
    17     1     2    1
    18    17    15    2
    19    12    13    1
    20    14    15    1
    21    14    13    2
    22    15    16    1
