@<TRIPOS>MOLECULE
3aib_MAL_G_1.pdb
 23 24 0 0 0
SMALL
GASTEIGER

@<TRIPOS>ATOM
      1  C1       178.6400  -20.0840  158.1530 C.3   5044  MAL5044     0.2695
      2  C2       177.5430  -19.2960  157.3880 C.3   5044  MAL5044     0.2406
      3  C3       176.4300  -18.8960  158.3280 C.3   5044  MAL5044     0.2198
      4  C4       175.8670  -20.2340  158.7950 C.3   5044  MAL5044     0.2144
      5  C5       176.9920  -21.0340  159.4730 C.3   5044  MAL5044     0.1835
      6  C6       176.5900  -22.4470  159.9060 C.3   5044  MAL5044     0.2142
      7  O1       179.2290  -19.5240  159.3220 O.3   5044  MAL5044    -0.3257
      8  O2       178.0390  -18.1500  156.6510 O.3   5044  MAL5044    -0.2149
      9  O3       175.4060  -18.1960  157.5670 O.3   5044  MAL5044    -0.2174
     10  O4       174.7430  -20.0530  159.6670 O.3   5044  MAL5044    -0.2176
     11  O5       177.9320  -21.3140  158.4420 O.3   5044  MAL5044    -0.3256
     12  O6       176.1020  -22.2160  161.1990 O.3   5044  MAL5044    -0.2176
     13  C1'      182.9470  -17.4120  159.9110 C.3   5044  MAL5044     0.3023
     14  C2'      181.7930  -17.2270  158.8320 C.3   5044  MAL5044     0.2433
     15  C3'      180.4920  -17.9370  159.2100 C.3   5044  MAL5044     0.2168
     16  C4'      180.6420  -19.4440  159.1150 C.3   5044  MAL5044     0.1804
     17  C5'      181.4560  -19.4040  160.4860 C.3   5044  MAL5044     0.1804
     18  C6'      181.7040  -20.7780  160.9640 C.3   5044  MAL5044     0.2141
     19  O1'      182.4960  -16.4120  160.9190 O.3   5044  MAL5044    -0.1869
     20  O2'      181.3440  -15.8850  158.8220 O.3   5044  MAL5044    -0.2148
     21  O3'      179.5870  -17.4200  158.2890 O.3   5044  MAL5044    -0.2175
     22  O5'      182.8920  -18.8380  160.5220 O.3   5044  MAL5044    -0.3237
     23  O6'      180.8250  -21.5490  160.1370 O.3   5044  MAL5044    -0.2176
@<TRIPOS>BOND
     1     8     2    1
     2     2     1    1
     3     2     3    1
     4     9     3    1
     5     1    11    1
     6     1     7    1
     7    21    15    1
     8     3     4    1
     9    11     5    1
    10     4     5    1
    11     4    10    1
    12    20    14    1
    13    14    15    1
    14    14    13    1
    15    16    15    1
    16    16     7    1
    17    16    17    1
    18     5     6    1
    19     6    12    1
    20    13    22    1
    21    13    19    1
    22    23    18    1
    23    17    22    1
    24    17    18    1
