@<TRIPOS>MOLECULE
3aic_ACR_A_1.pdb
 44 47 0 0 0
SMALL
GASTEIGER

@<TRIPOS>ATOM
      1  C1A      194.3710   48.6660  194.7610 C.3   5044  ACR5044     0.1060
      2  C2A      195.8380   48.8340  194.5540 C.3   5044  ACR5044     0.2005
      3  C3A      196.5200   49.0290  195.8750 C.3   5044  ACR5044     0.2136
      4  C4A      196.1920   50.3920  196.4050 C.3   5044  ACR5044     0.1872
      5  C5A      194.8010   50.7080  195.9990 C.3   5044  ACR5044     0.0675
      6  C6A      194.3160   52.1090  195.8870 C.3   5044  ACR5044     0.1847
      7  C7A      193.9580   49.7410  195.7050 C.3   5044  ACR5044     0.0253
      8  O2A      196.3000   47.6450  193.9840 O.3   5044  ACR5044    -0.2188
      9  O3A      197.9310   48.8780  195.7860 O.3   5044  ACR5044    -0.2176
     10  O4A      196.2430   50.2970  197.8060 O.3   5044  ACR5044    -0.2202
     11  O6A      193.4130   52.1490  194.7990 O.3   5044  ACR5044    -0.2203
     12  C1B      190.4700   46.0010  197.0010 C.3   5044  ACR5044     0.2694
     13  C2B      190.4900   46.7430  195.6950 C.3   5044  ACR5044     0.2394
     14  C3B      191.8190   47.0700  195.0350 C.3   5044  ACR5044     0.2054
     15  C4B      192.8650   47.2640  196.0750 C.3   5044  ACR5044     0.1329
     16  C5B      192.8290   46.1000  197.0150 C.3   5044  ACR5044     0.1364
     17  C6B      193.9600   46.2370  197.9900 C.3   5044  ACR5044     0.0337
     18  N4B      194.1070   47.3990  195.3750 N.3   5044  ACR5044    -0.2131
     19  O2B      189.5480   46.1630  194.8260 O.3   5044  ACR5044    -0.2149
     20  O3B      191.8250   48.3010  194.3510 O.3   5044  ACR5044    -0.2186
     21  O5B      191.6370   46.1250  197.7540 O.3   5044  ACR5044    -0.3295
     22  C1C      189.7100   41.5240  199.3660 C.3   5044  ACR5044     0.2695
     23  C2C      188.5130   41.9900  198.6430 C.3   5044  ACR5044     0.2404
     24  C3C      188.9330   42.8230  197.4470 C.3   5044  ACR5044     0.2167
     25  C4C      189.7110   44.0100  197.8880 C.3   5044  ACR5044     0.1804
     26  C5C      190.8610   43.5830  198.7360 C.3   5044  ACR5044     0.1803
     27  C6C      191.1770   44.7990  199.5730 C.3   5044  ACR5044     0.2141
     28  O2C      188.0700   40.7360  198.1950 O.3   5044  ACR5044    -0.2149
     29  O3C      187.8020   43.4290  196.8450 O.3   5044  ACR5044    -0.2175
     30  O4C      190.2030   44.6590  196.7510 O.3   5044  ACR5044    -0.3257
     31  O5C      190.4880   42.6360  199.7160 O.3   5044  ACR5044    -0.3257
     32  O6C      190.6090   44.6150  200.8770 O.3   5044  ACR5044    -0.2176
     33  C1D      191.7700   36.9570  199.2610 C.3   5044  ACR5044     0.3023
     34  C2D      190.3960   37.0800  198.6520 C.3   5044  ACR5044     0.2433
     35  C3D      190.0550   38.3980  198.0000 C.3   5044  ACR5044     0.2168
     36  C4D      190.6580   39.4780  198.8470 C.3   5044  ACR5044     0.1804
     37  C5D      192.1260   39.2000  198.7020 C.3   5044  ACR5044     0.1804
     38  C6D      192.9560   40.3920  199.1060 C.3   5044  ACR5044     0.2141
     39  O1D      192.5740   36.4040  198.2500 O.3   5044  ACR5044    -0.1869
     40  O2D      190.3790   36.1010  197.6380 O.3   5044  ACR5044    -0.2148
     41  O3D      188.6410   38.5250  197.9690 O.3   5044  ACR5044    -0.2175
     42  O4D      190.3600   40.7770  198.3920 O.3   5044  ACR5044    -0.3257
     43  O5D      192.3740   38.1750  199.6330 O.3   5044  ACR5044    -0.3237
     44  O6D      193.3890   40.1350  200.4380 O.3   5044  ACR5044    -0.2176
@<TRIPOS>BOND
     1     8     2    1
     2    20    14    1
     3     2     1    1
     4     2     3    1
     5     1    18    1
     6     1     7    1
     7    11     6    1
     8    19    13    1
     9    14    13    1
    10    14    15    1
    11    18    15    1
    12    13    12    1
    13     7     5    1
    14     9     3    1
    15     3     4    1
    16     6     5    1
    17     5     4    1
    18    15    16    1
    19     4    10    1
    20    30    12    1
    21    30    25    1
    22    29    24    1
    23    12    21    1
    24    16    21    1
    25    16    17    1
    26    24    25    1
    27    24    23    1
    28    40    34    1
    29    25    26    1
    30    41    35    1
    31    35    34    1
    32    35    36    1
    33    28    23    1
    34    39    33    1
    35    42    36    1
    36    42    22    1
    37    23    22    1
    38    34    33    1
    39    37    36    1
    40    37    38    1
    41    37    43    1
    42    26    27    1
    43    26    31    1
    44    38    44    1
    45    33    43    1
    46    22    31    1
    47    27    32    1
