@<TRIPOS>MOLECULE
3aid_ARQ_A_1.pdb
 42 44 0 0 0
SMALL
GASTEIGER

@<TRIPOS>ATOM
      1  C1         1.4740    1.3210   11.3540 C.3   401  ARQ401      0.1378
      2  C2         0.5620    0.2520   12.0360 C.3   401  ARQ401      0.0437
      3  C3         0.6750    2.6330   11.4100 C.3   401  ARQ401      0.0437
      4  C4         1.8520    1.0060    9.8910 C.3   401  ARQ401      0.0437
      5  O4         2.6640    1.5540   12.1080 O.3   401  ARQ401     -0.4419
      6  C30        3.5110    0.5710   12.4000 C.2   401  ARQ401      0.4012
      7  O3         3.3990   -0.5330   11.9700 O.2   401  ARQ401     -0.2265
      8  N1         4.4970    0.9940   13.1930 N.am  401  ARQ401     -0.2749
      9  C5         5.7160    0.2690   13.5580 C.3   401  ARQ401      0.0623
     10  C6         6.9530    1.1630   13.3460 C.3   401  ARQ401      0.0423
     11  C7         6.9750    1.8240   11.9980 C.ar  401  ARQ401     -0.0208
     12  C8         6.8150    1.0510   10.8260 C.ar  401  ARQ401     -0.0042
     13  C9         6.7910    1.7010    9.5740 C.ar  401  ARQ401     -0.0003
     14  C10        6.9270    3.1100    9.5190 C.ar  401  ARQ401     -0.0000
     15  C11        7.1140    3.2320   11.9410 C.ar  401  ARQ401     -0.0042
     16  C12        7.0850    3.8880   10.6920 C.ar  401  ARQ401     -0.0003
     17  C13        5.6420   -0.3190   14.9980 C.3   401  ARQ401      0.0668
     18  O1         5.2480    0.6510   15.9800 O.3   401  ARQ401     -0.3912
     19  C14        4.6690   -1.5250   15.0080 C.3   401  ARQ401     -0.0198
     20  N2         4.9980   -2.6690   15.9100 N.4   401  ARQ401      0.4044
     21  C22        5.4410   -2.2190   17.2490 C.3   401  ARQ401     -0.0638
     22  C15        3.7180   -3.4410   16.0240 C.3   401  ARQ401     -0.0176
     23  C16        3.7240   -4.6950   16.8830 C.ar  401  ARQ401     -0.0394
     24  C17        4.0550   -5.9400   16.3080 C.ar  401  ARQ401     -0.0062
     25  C18        4.1620   -7.1060   17.1090 C.ar  401  ARQ401     -0.0004
     26  C19        3.9570   -7.0060   18.5050 C.ar  401  ARQ401     -0.0000
     27  C20        3.3860   -4.6320   18.2480 C.ar  401  ARQ401     -0.0062
     28  C21        3.5020   -5.7910   19.0630 C.ar  401  ARQ401     -0.0004
     29  N3         6.1210   -3.3330   15.2910 N.am  401  ARQ401     -0.3539
     30  C23        6.0670   -4.0330   14.1400 C.2   401  ARQ401      0.2319
     31  O2         5.0150   -4.2240   13.5230 O.2   401  ARQ401     -0.2718
     32  C27        7.3600   -4.5790   13.6740 C.ar  401  ARQ401      0.0518
     33  C26        7.3430   -5.4900   12.5820 C.ar  401  ARQ401      0.0044
     34  C25        8.5210   -6.1010   12.1230 C.ar  401  ARQ401      0.0001
     35  C24        9.7140   -5.7960   12.7960 C.ar  401  ARQ401      0.0000
     36  C28        8.5930   -4.2220   14.2790 C.ar  401  ARQ401      0.0044
     37  C29        9.7810   -4.8390   13.8380 C.ar  401  ARQ401      0.0001
     38  HN1        4.3250    1.9410   13.4330 H     401  ARQ401      0.1524
     39  H5         5.8120   -0.5550   12.8610 H     401  ARQ401      0.0534
     40  H13        6.6910   -0.7070   15.1340 H     401  ARQ401      0.0599
     41  HO1        4.2720    0.6970   16.0630 H     401  ARQ401      0.2098
     42  HN3        7.0320   -3.1440   15.6360 H     401  ARQ401      0.1296
@<TRIPOS>BOND
     1    14    13   ar
     2    14    16   ar
     3    13    12   ar
     4     4     1    1
     5    16    15   ar
     6    12    11   ar
     7     1     3    1
     8     1     2    1
     9     1     5    1
    10    15    11   ar
    11     7     6    2
    12    11    10    1
    13     5     6    1
    14    34    33   ar
    15    34    35   ar
    16     6     8   am
    17    33    32   ar
    18    35    37   ar
    19    39     9    1
    20     8    38    1
    21     8     9    1
    22    10     9    1
    23    31    30    2
    24     9    17    1
    25    32    30    1
    26    32    36   ar
    27    37    36   ar
    28    30    29   am
    29    17    19    1
    30    17    40    1
    31    17    18    1
    32    19    20    1
    33    29    42    1
    34    29    20    1
    35    20    22    1
    36    20    21    1
    37    18    41    1
    38    22    23    1
    39    24    23   ar
    40    24    25   ar
    41    23    27   ar
    42    25    26   ar
    43    27    28   ar
    44    26    28   ar
