@<TRIPOS>MOLECULE
3aih_MAN_A_1.pdb
 11 11 0 0 0
SMALL
GASTEIGER

@<TRIPOS>ATOM
      1  C1        22.8010   22.7620   -1.9360 C.3   302  MAN302      0.1777
      2  C2        24.1500   22.5710   -1.1920 C.3   302  MAN302      0.2141
      3  C3        24.4200   23.7350   -0.2100 C.3   302  MAN302      0.2173
      4  C4        24.2440   25.0980   -0.8670 C.3   302  MAN302      0.2142
      5  C5        22.9160   25.1320   -1.6700 C.3   302  MAN302      0.1810
      6  C6        22.8520   26.4270   -2.4540 C.3   302  MAN302      0.2141
      7  O2        25.1870   22.5590   -2.1480 O.3   302  MAN302     -0.2176
      8  O3        25.7040   23.5940    0.4060 O.3   302  MAN302     -0.2175
      9  O4        24.2040   26.0500    0.1970 O.3   302  MAN302     -0.2176
     10  O5        22.7980   24.0250   -2.5690 O.3   302  MAN302     -0.3481
     11  O6        21.7770   26.4320   -3.3760 O.3   302  MAN302     -0.2176
@<TRIPOS>BOND
     1    11     6    1
     2    10     1    1
     3    10     5    1
     4     6     5    1
     5     7     2    1
     6     1     2    1
     7     5     4    1
     8     2     3    1
     9     4     3    1
    10     4     9    1
    11     3     8    1
