@<TRIPOS>MOLECULE
3aiq_HBO_A_1.pdb
 15 16 0 0 0
SMALL
GASTEIGER

@<TRIPOS>ATOM
      1  O1A       -1.9480    4.8580  -39.9540 O.3   4134  HBO4134    -0.1671
      2  C3B       -0.5660    2.9470  -39.4290 C.2   4134  HBO4134     0.1460
      3  N3B       -1.0040    1.7700  -40.0320 N.am  4134  HBO4134    -0.2544
      4  C4B       -1.5450    1.8410  -41.3530 C.ar  4134  HBO4134     0.0919
      5  C1B       -1.2910    3.0090  -42.1420 C.ar  4134  HBO4134     0.1587
      6  O1B       -0.5210    4.0540  -41.6480 O.3   4134  HBO4134    -0.4449
      7  C2B       -0.6710    4.2640  -40.2100 C.3   4134  HBO4134     0.3632
      8  C5B       -2.3340    0.7780  -41.8730 C.ar  4134  HBO4134     0.0215
      9  C6B       -2.8750    0.8740  -43.1740 C.ar  4134  HBO4134     0.0384
     10  C8B       -1.8410    3.0930  -43.4480 C.ar  4134  HBO4134     0.0752
     11  O3B       -0.1080    2.9340  -38.2860 O.2   4134  HBO4134    -0.5358
     12  OHB       -0.9340    0.5370  -39.3440 O.3   4134  HBO4134    -0.4156
     13  C7B       -2.6330    2.0410  -43.9760 C.ar  4134  HBO4134     0.1418
     14  O7B       -3.1450    2.2010  -45.2670 O.3   4134  HBO4134    -0.4713
     15  C9B       -3.9390    1.0630  -45.6890 C.3   4134  HBO4134     0.2525
@<TRIPOS>BOND
     1    15    14    1
     2    14    13    1
     3    13    10   ar
     4    13     9   ar
     5    10     5   ar
     6     9     8   ar
     7     5     6    1
     8     5     4   ar
     9     8     4   ar
    10     6     7    1
    11     4     3    1
    12     7     1    1
    13     7     2    1
    14     3     2   am
    15     3    12    1
    16     2    11    2
