@<TRIPOS>MOLECULE
3air_DNF_A_1.pdb
 13 13 0 0 0
SMALL
GASTEIGER

@<TRIPOS>ATOM
      1  C1       -56.4080   -0.4610   -2.0450 C.ar  800  DNF800      0.2181
      2  O1       -57.3350    0.3500   -2.6340 O.3   800  DNF800     -0.2848
      3  C2       -55.1850   -0.7260   -2.6620 C.ar  800  DNF800      0.1832
      4  N2       -54.8670   -0.1870   -3.8690 N.pl3 800  DNF800      0.0609
      5  O21      -55.7550    0.6500   -4.5400 O.2   800  DNF800     -0.1260
      6  O22      -53.6330   -0.4810   -4.4470 O.2   800  DNF800     -0.1260
      7  C3       -54.2600   -1.5660   -2.0320 C.ar  800  DNF800      0.0514
      8  C4       -54.5490   -2.1360   -0.7880 C.ar  800  DNF800      0.1447
      9  N4       -53.6430   -2.9480   -0.1730 N.pl3 800  DNF800      0.0577
     10  O41      -53.9370   -3.5150    1.0720 O.2   800  DNF800     -0.1261
     11  O42      -52.4160   -3.2150   -0.7860 O.2   800  DNF800     -0.1261
     12  C5       -55.7740   -1.8640   -0.1790 C.ar  800  DNF800      0.0275
     13  C6       -56.6990   -1.0320   -0.8070 C.ar  800  DNF800      0.0455
@<TRIPOS>BOND
     1     5     4    2
     2     6     4    2
     3     4     3    1
     4     3     1   ar
     5     3     7   ar
     6     2     1    1
     7     1    13   ar
     8     7     8   ar
     9    13    12   ar
    10     8    12   ar
    11     8     9    1
    12    11     9    2
    13     9    10    2
