@<TRIPOS>MOLECULE
3air_G2F_A_1.pdb
 11 11 0 0 0
SMALL
GASTEIGER

@<TRIPOS>ATOM
      1  C1       -60.4530    0.1470   -2.9540 C.3   700  G2F700      0.1801
      2  C2       -60.2110    1.5580   -3.5060 C.3   700  G2F700      0.2230
      3  C3       -60.1820    1.5450   -5.0420 C.3   700  G2F700      0.2194
      4  C4       -59.2530    0.4470   -5.5490 C.3   700  G2F700      0.2144
      5  C5       -59.7630   -0.9080   -5.0130 C.3   700  G2F700      0.1810
      6  C6       -58.9320   -2.1260   -5.4410 C.3   700  G2F700      0.2141
      7  O3       -59.8150    2.8560   -5.4860 O.3   700  G2F700     -0.2173
      8  O4       -59.2050    0.4180   -6.9840 O.3   700  G2F700     -0.2176
      9  O5       -59.6950   -0.8800   -3.5740 O.3   700  G2F700     -0.3479
     10  O6       -57.6190   -1.9710   -4.8840 O.3   700  G2F700     -0.2176
     11  F2       -61.2840    2.3000   -3.1270 F     700  G2F700     -0.2317
@<TRIPOS>BOND
     1     8     4    1
     2     4     3    1
     3     4     5    1
     4     7     3    1
     5     6     5    1
     6     6    10    1
     7     3     2    1
     8     5     9    1
     9     9     1    1
    10     2    11    1
    11     2     1    1
