@<TRIPOS>MOLECULE
3ais_HBK_A_1.pdb
 15 16 0 0 0
SMALL
GASTEIGER

@<TRIPOS>ATOM
      1  O1A       -0.0600    1.9000  -39.4300 O.3   600  HBK600     -0.1691
      2  C1B       -1.6020    1.9370  -42.6130 C.ar  600  HBK600      0.1622
      3  O1B       -0.7730    2.3240  -41.6070 O.3   600  HBK600     -0.4459
      4  C2B       -1.1810    1.8230  -40.3230 C.3   600  HBK600      0.3728
      5  C3B       -1.7170    0.3880  -40.3500 C.3   600  HBK600      0.3343
      6  N3B       -1.6580   -0.2030  -41.6940 N.4   600  HBK600     -0.1690
      7  O3B       -0.9550   -0.4230  -39.4530 O.3   600  HBK600     -0.1884
      8  C4B       -2.1210    0.6500  -42.6020 C.ar  600  HBK600      0.1220
      9  C5B       -3.0070    0.2400  -43.5910 C.ar  600  HBK600      0.0255
     10  C6B       -3.3640    1.1250  -44.6020 C.ar  600  HBK600      0.0387
     11  C7B       -2.8400    2.4130  -44.6230 C.ar  600  HBK600      0.1419
     12  O7B       -3.2060    3.2700  -45.6140 O.3   600  HBK600     -0.4713
     13  C8B       -1.9580    2.8190  -43.6280 C.ar  600  HBK600      0.0754
     14  C9B       -2.1570    4.2010  -45.8970 C.3   600  HBK600      0.2525
     15  OHB       -2.4610   -1.4220  -41.7110 O.3   600  HBK600     -0.0816
@<TRIPOS>BOND
     1    14    12    1
     2    12    11    1
     3    11    10   ar
     4    11    13   ar
     5    10     9   ar
     6    13     2   ar
     7     9     8   ar
     8     2     8   ar
     9     2     3    1
    10     8     6    1
    11    15     6    1
    12     6     5    1
    13     3     4    1
    14     5     4    1
    15     5     7    1
    16     4     1    1
