@<TRIPOS>MOLECULE
3ais_BGC_A_1.pdb
 11 11 0 0 0
SMALL
GASTEIGER

@<TRIPOS>ATOM
      1  C2         1.1870    3.4670  -38.1010 C.3   601  BGC601      0.2141
      2  C3         1.1530    4.7990  -37.3500 C.3   601  BGC601      0.2173
      3  C4         0.3030    5.8040  -38.1270 C.3   601  BGC601      0.2142
      4  C5        -1.0870    5.2020  -38.3370 C.3   601  BGC601      0.1810
      5  C6        -2.0500    6.2100  -38.9680 C.3   601  BGC601      0.2141
      6  C1        -0.2090    3.0140  -38.5370 C.3   601  BGC601      0.1777
      7  O2         1.7950    2.4630  -37.2840 O.3   601  BGC601     -0.2176
      8  O3         2.4880    5.2980  -37.2200 O.3   601  BGC601     -0.2175
      9  O4         0.2100    7.0300  -37.3970 O.3   601  BGC601     -0.2176
     10  O5        -0.9310    4.0640  -39.1990 O.3   601  BGC601     -0.3481
     11  O6        -1.5700    6.5960  -40.2580 O.3   601  BGC601     -0.2176
@<TRIPOS>BOND
     1    11     5    1
     2    10     6    1
     3    10     4    1
     4     5     4    1
     5     6     1    1
     6     4     3    1
     7     3     9    1
     8     3     2    1
     9     1     2    1
    10     1     7    1
    11     2     8    1
