@<TRIPOS>MOLECULE
3aiv_HBO_A_1.pdb
 15 16 0 0 0
SMALL
GASTEIGER

@<TRIPOS>ATOM
      1  O1A      -56.9880   -2.0030   -4.9590 O.3   900  HBO900     -0.1671
      2  C3B      -57.5120   -0.5450   -2.9180 C.2   900  HBO900      0.1460
      3  N3B      -56.6890   -0.8870   -1.6750 N.am  900  HBO900     -0.2544
      4  C4B      -55.2890   -1.4620   -1.8220 C.ar  900  HBO900      0.0919
      5  C1B      -54.5440   -1.1920   -3.1080 C.ar  900  HBO900      0.1587
      6  O1B      -55.1660   -0.3940   -4.1140 O.3   900  HBO900     -0.4449
      7  C2B      -56.7330   -0.6430   -4.3310 C.3   900  HBO900      0.3632
      8  C5B      -54.7030   -2.3400   -0.7800 C.ar  900  HBO900      0.0215
      9  C6B      -53.3920   -2.8800   -1.0720 C.ar  900  HBO900      0.0384
     10  C8B      -53.2780   -1.7500   -3.3280 C.ar  900  HBO900      0.0752
     11  O3B      -58.7230   -0.2020   -2.9000 O.2   900  HBO900     -0.5358
     12  OHB      -57.2540   -0.8730   -0.4900 O.co2 900  HBO900     -0.4156
     13  C7B      -52.7220   -2.5690   -2.3380 C.ar  900  HBO900      0.1418
     14  O7B      -51.4510   -3.0540   -2.6110 O.3   900  HBO900     -0.4713
     15  C9B      -51.0460   -3.9490   -1.3160 C.3   900  HBO900      0.2525
@<TRIPOS>UNITY_ATOM_ATTR
3 1
charge 1
12 1
charge -1
@<TRIPOS>BOND
     1     1     7    1
     2     7     6    1
     3     7     2    1
     4     6     5    1
     5    10     5   ar
     6    10    13   ar
     7     5     4   ar
     8     2    11    2
     9     2     3    1
    10    14    13    1
    11    14    15    1
    12    13     9   ar
    13     4     3    1
    14     4     8   ar
    15     3    12    1
    16     9     8   ar
