@<TRIPOS>MOLECULE
3aiw_DNF_A_1.pdb
 13 13 0 0 0
SMALL
GASTEIGER

@<TRIPOS>ATOM
      1  C1       -56.6040   -0.8150   -1.7770 C.ar  800  DNF800      0.2181
      2  O1       -57.3280   -0.0220   -2.5550 O.3   800  DNF800     -0.2848
      3  C2       -55.3240   -1.0740   -2.1960 C.ar  800  DNF800      0.1832
      4  N2       -54.8400   -0.5570   -3.3510 N.pl3 800  DNF800      0.0609
      5  O21      -55.6220    0.2740   -4.1250 O.2   800  DNF800     -0.1260
      6  O22      -53.6030   -0.8670   -3.7490 O.2   800  DNF800     -0.1260
      7  C3       -54.5090   -1.9030   -1.4640 C.ar  800  DNF800      0.0514
      8  C4       -55.0220   -2.3910   -0.2980 C.ar  800  DNF800      0.1447
      9  N4       -54.1840   -3.1480    0.3980 N.pl3 800  DNF800      0.0577
     10  O41      -54.5780   -3.7020    1.6040 O.2   800  DNF800     -0.1261
     11  O42      -52.9010   -3.3770   -0.1350 O.2   800  DNF800     -0.1261
     12  C5       -56.2920   -2.1030    0.1590 C.ar  800  DNF800      0.0275
     13  C6       -57.1200   -1.3100   -0.5870 C.ar  800  DNF800      0.0455
@<TRIPOS>BOND
     1     5     4    2
     2     6     4    2
     3     4     3    1
     4     2     1    1
     5     3     1   ar
     6     3     7   ar
     7     1    13   ar
     8     7     8   ar
     9    13    12   ar
    10     8    12   ar
    11     8     9    1
    12    11     9    2
    13     9    10    2
