@<TRIPOS>MOLECULE
3aiw_G2F_A_1.pdb
 11 11 0 0 0
SMALL
GASTEIGER

@<TRIPOS>ATOM
      1  C1       -60.5240    0.0020   -3.0110 C.3   700  G2F700      0.1801
      2  C2       -59.9720    1.3790   -3.3640 C.3   700  G2F700      0.2230
      3  C3       -59.9150    1.4230   -4.9630 C.3   700  G2F700      0.2194
      4  C4       -59.0510    0.2710   -5.4660 C.3   700  G2F700      0.2144
      5  C5       -59.6180   -1.0510   -4.9250 C.3   700  G2F700      0.1810
      6  C6       -58.8410   -2.2850   -5.2990 C.3   700  G2F700      0.2141
      7  O3       -59.5540    2.6860   -5.4580 O.3   700  G2F700     -0.2173
      8  O4       -59.1130    0.3290   -6.8610 O.3   700  G2F700     -0.2176
      9  O5       -59.5800   -1.0040   -3.4960 O.3   700  G2F700     -0.3479
     10  O6       -57.4450   -2.1280   -4.8770 O.3   700  G2F700     -0.2176
     11  F2       -60.8820    2.3890   -3.0360 F     700  G2F700     -0.2317
@<TRIPOS>BOND
     1     8     4    1
     2     4     3    1
     3     4     5    1
     4     7     3    1
     5     6     5    1
     6     6    10    1
     7     3     2    1
     8     5     9    1
     9     9     1    1
    10     2    11    1
    11     2     1    1
