@<TRIPOS>MOLECULE
3aiy_IPH_A_1.pdb
 13 13 0 0 0
SMALL
GASTEIGER

@<TRIPOS>ATOM
      1  C1        -9.0010    8.7760    7.3790 C.ar   22  IPH22       0.1169
      2  C2        -7.7540    8.2130    7.8700 C.ar   22  IPH22      -0.0202
      3  C3        -7.1090    7.1290    7.1450 C.ar   22  IPH22      -0.0583
      4  C4        -7.7110    6.6080    5.9300 C.ar   22  IPH22      -0.0615
      5  C5        -8.9600    7.1710    5.4380 C.ar   22  IPH22      -0.0583
      6  C6        -9.6040    8.2540    6.1630 C.ar   22  IPH22      -0.0202
      7  O1        -9.6130    9.8020    8.0660 O.3    22  IPH22      -0.5068
      8  H2        -7.3060    8.6000    8.7740 H      22  IPH22       0.0654
      9  H3        -6.1830    6.7110    7.5100 H      22  IPH22       0.0619
     10  H4        -7.2330    5.8030    5.3910 H      22  IPH22       0.0618
     11  H5        -9.4080    6.7840    4.5340 H      22  IPH22       0.0619
     12  H6       -10.5310    8.6720    5.7980 H      22  IPH22       0.0654
     13  HO1      -10.5620    9.7230    7.9340 H      22  IPH22       0.2921
@<TRIPOS>BOND
     1    11     5    1
     2    10     4    1
     3     5     4   ar
     4     5     6   ar
     5    12     6    1
     6     4     3   ar
     7     6     1   ar
     8     3     9    1
     9     3     2   ar
    10     1     2   ar
    11     1     7    1
    12     2     8    1
    13    13     7    1
