@<TRIPOS>MOLECULE
3aj4_SEP_A_1.pdb
 17 16 0 0 0
SMALL
GASTEIGER

@<TRIPOS>ATOM
      1  N         -5.9470  -10.4840   12.8720 N.4   111  SEP111      0.3886
      2  CA        -5.6110  -10.5810   11.4280 C.3   111  SEP111      0.0448
      3  CB        -6.7550  -11.1800   10.6460 C.3   111  SEP111      0.0565
      4  OG        -7.8060  -10.2220   10.6080 O.3   111  SEP111     -0.2847
      5  C         -5.2860   -9.1820   10.9130 C.2   111  SEP111      0.3442
      6  O         -5.5480   -8.2240   11.6190 O.co2 111  SEP111     -0.2482
      7  OXT       -4.7940   -9.1310    9.7730 O.co2 111  SEP111     -0.2482
      8  P         -9.1360  -10.5000    9.7700 P.3   111  SEP111      0.5318
      9  O1P       -9.8530  -11.6220   10.4780 O.3   111  SEP111     -0.1145
     10  O2P       -9.8010   -9.1420    9.8500 O.3   111  SEP111     -0.1145
     11  O3P       -8.7150  -10.8830    8.3650 O.2   111  SEP111     -0.2224
     12  H1        -6.8450  -10.8130   13.0050 H     111  SEP111     -0.0888
     13  H2        -5.3360  -11.0370   13.3680 H     111  SEP111     -0.0888
     14  H3        -5.8830   -9.5840   13.1530 H     111  SEP111     -0.0888
     15  HA        -4.8210  -11.1480   11.3160 H     111  SEP111      0.0221
     16  HB2       -6.4630  -11.3780    9.7420 H     111  SEP111      0.0554
     17  HB3       -7.0650  -11.9860   11.0880 H     111  SEP111      0.0554
@<TRIPOS>BOND
     1    11     8    2
     2    16     3    1
     3     8    10    1
     4     8     9    1
     5     8     4    1
     6     7     5   ar
     7     4     3    1
     8     3    17    1
     9     3     2    1
    10     5     2    1
    11     5     6   ar
    12    15     2    1
    13     2     1    1
    14     1    12    1
    15     1    14    1
    16     1    13    1
