@<TRIPOS>MOLECULE
3aj5_NGA_A_1.pdb
 15 15 0 0 0
SMALL
GASTEIGER

@<TRIPOS>ATOM
      1  C1       -51.8640  -57.1390   25.9430 C.3   2000  NGA2000     0.2917
      2  C2       -51.7750  -55.6140   26.0210 C.3   2000  NGA2000     0.1871
      3  C3       -50.3660  -55.2180   25.5810 C.3   2000  NGA2000     0.2095
      4  C4       -49.3730  -55.8110   26.5870 C.3   2000  NGA2000     0.2136
      5  C5       -49.5430  -57.3390   26.6250 C.3   2000  NGA2000     0.1835
      6  C6       -48.6440  -58.0010   27.6650 C.3   2000  NGA2000     0.2142
      7  C7       -53.8150  -54.3850   25.5820 C.2   2000  NGA2000     0.2421
      8  C8       -54.7200  -53.7270   24.5760 C.3   2000  NGA2000     0.0964
      9  N2       -52.7190  -54.9830   25.0990 N.am  2000  NGA2000    -0.1991
     10  O1       -53.1920  -57.5770   26.2580 O.3   2000  NGA2000    -0.1879
     11  O3       -50.2260  -53.7980   25.4680 O.3   2000  NGA2000    -0.2183
     12  O4       -49.6330  -55.2770   27.8910 O.3   2000  NGA2000    -0.2176
     13  O5       -50.9170  -57.6850   26.8850 O.3   2000  NGA2000    -0.3242
     14  O6       -48.4350  -59.3830   27.3410 O.3   2000  NGA2000    -0.2176
     15  O7       -54.0790  -54.3710   26.7780 O.2   2000  NGA2000    -0.2733
@<TRIPOS>BOND
     1     8     7    1
     2     9     7   am
     3     9     2    1
     4    11     3    1
     5     3     2    1
     6     3     4    1
     7     7    15    2
     8     1     2    1
     9     1    10    1
    10     1    13    1
    11     4     5    1
    12     4    12    1
    13     5    13    1
    14     5     6    1
    15    14     6    1
