@<TRIPOS>MOLECULE
3aj6_NGA_B_1.pdb
 15 15 0 0 0
SMALL
GASTEIGER

@<TRIPOS>ATOM
      1  C1        75.8770   15.8600   26.9530 C.3   2000  NGA2000     0.2917
      2  C2        75.1410   15.4000   25.7030 C.3   2000  NGA2000     0.1871
      3  C3        73.8230   14.7350   26.0690 C.3   2000  NGA2000     0.2095
      4  C4        74.0660   13.6150   27.0800 C.3   2000  NGA2000     0.2136
      5  C5        74.8550   14.1760   28.2730 C.3   2000  NGA2000     0.1835
      6  C6        75.1090   13.1180   29.3430 C.3   2000  NGA2000     0.2142
      7  C7        75.1080   16.7500   23.6600 C.2   2000  NGA2000     0.2421
      8  C8        74.6890   18.0530   23.0340 C.3   2000  NGA2000     0.0964
      9  N2        74.7980   16.6050   24.9490 N.am  2000  NGA2000    -0.1991
     10  O1        77.1300   16.4510   26.5710 O.3   2000  NGA2000    -0.1879
     11  O3        73.1970   14.2340   24.8820 O.3   2000  NGA2000    -0.2183
     12  O4        74.7440   12.5090   26.4540 O.3   2000  NGA2000    -0.2176
     13  O5        76.0920   14.7380   27.8140 O.3   2000  NGA2000    -0.3242
     14  O6        75.6670   13.7490   30.5070 O.3   2000  NGA2000    -0.2176
     15  O7        75.6970   15.8890   23.0180 O.2   2000  NGA2000    -0.2733
@<TRIPOS>BOND
     1    15     7    2
     2     8     7    1
     3     7     9   am
     4    11     3    1
     5     9     2    1
     6     2     3    1
     7     2     1    1
     8     3     4    1
     9    12     4    1
    10    10     1    1
    11     1    13    1
    12     4     5    1
    13    13     5    1
    14     5     6    1
    15     6    14    1
