@<TRIPOS>MOLECULE
3aje_ANP_A_1.pdb
 31 33 0 0 0
SMALL
GASTEIGER

@<TRIPOS>ATOM
      1  PG        42.0620   34.6940   20.7930 P.3   354  ANP354      0.4884
      2  O1G       42.8050   34.1550   21.9680 O.3   354  ANP354     -0.1240
      3  O2G       40.4930   34.9910   20.9820 O.3   354  ANP354     -0.1240
      4  O3G       42.2630   33.6340   19.5820 O.2   354  ANP354     -0.2331
      5  PB        42.0920   37.2240   21.5640 P.3   354  ANP354      0.4669
      6  O1B       40.6680   37.2460   21.9600 O.2   354  ANP354     -0.2351
      7  O2B       43.1210   37.1120   22.6310 O.3   354  ANP354     -0.1253
      8  N3B       42.4700   36.2040   20.3600 N.3   354  ANP354     -0.0163
      9  PA        43.0330   38.9640   19.4710 P.3   354  ANP354      0.2220
     10  O1A       42.4210   38.2580   18.3060 O.2   354  ANP354     -0.5170
     11  O2A       43.1830   40.4600   19.5330 O.3   354  ANP354     -0.4370
     12  O3A       42.3370   38.6800   20.9000 O.3   354  ANP354     -0.2360
     13  O5'       44.5060   38.3300   19.6560 O.3   354  ANP354     -0.3111
     14  C5'       45.2090   38.6320   20.8850 C.3   354  ANP354      0.1813
     15  C4'       46.6470   38.1110   20.7650 C.3   354  ANP354      0.1821
     16  O4'       47.3900   38.9870   19.9140 O.3   354  ANP354     -0.3135
     17  C3'       47.4220   38.2890   22.0710 C.3   354  ANP354      0.2184
     18  O3'       46.9340   37.2530   22.9200 O.3   354  ANP354     -0.2174
     19  C2'       48.8180   38.0140   21.4880 C.3   354  ANP354      0.2570
     20  O2'       48.9890   36.6380   21.1140 O.3   354  ANP354     -0.2130
     21  C1'       48.7050   38.9620   20.2890 C.3   354  ANP354      0.3186
     22  N9        49.3680   40.1060   20.2170 N.pl3 354  ANP354     -0.1439
     23  C8        48.7370   41.2810   20.2400 C.3   354  ANP354      0.3377
     24  N7        49.6750   42.2160   20.3730 N.2   354  ANP354     -0.2095
     25  C5        50.8820   41.6480   20.4340 C.2   354  ANP354      0.2526
     26  C6        52.1810   42.1440   20.5280 C.2   354  ANP354      0.4393
     27  N6        52.4000   43.4740   20.5600 N.pl3 354  ANP354      0.2180
     28  N1        53.1750   41.2420   20.5300 N.2   354  ANP354      0.0021
     29  C2        52.9990   39.9350   20.4510 C.3   354  ANP354      0.5254
     30  N3        51.7650   39.4550   20.3630 N.2   354  ANP354     -0.0055
     31  C4        50.6900   40.2740   20.3550 C.2   354  ANP354      0.3518
@<TRIPOS>BOND
     1    10     9    2
     2     9    11    1
     3     9    13    1
     4     9    12    1
     5     4     1    2
     6    13    14    1
     7    16    21    1
     8    16    15    1
     9    22    23    1
    10    22    21    1
    11    22    31    1
    12    23    24    1
    13    21    19    1
    14    31    30    2
    15    31    25    1
    16     8     1    1
    17     8     5    1
    18    30    29    1
    19    24    25    2
    20    25    26    1
    21    29    28    1
    22    26    28    2
    23    26    27    1
    24    15    14    1
    25    15    17    1
    26     1     3    1
    27     1     2    1
    28    12     5    1
    29    20    19    1
    30    19    17    1
    31     5     6    2
    32     5     7    1
    33    17    18    1
