@<TRIPOS>MOLECULE
3ajg_BLA_A_1.pdb
 43 46 0 0 0
SMALL
GASTEIGER

@<TRIPOS>ATOM
      1  CHA       -0.8080   18.2610  -24.7690 C.3   1131  BLA1131     0.1170
      2  NA        -3.0720   17.1520  -24.8100 N.2   1131  BLA1131    -0.4104
      3  C1A       -1.8830   17.4430  -25.3890 C.2   1131  BLA1131     0.1114
      4  C2A       -1.6920   16.8620  -26.7500 C.2   1131  BLA1131     0.0024
      5  C3A       -2.9720   16.1470  -26.9740 C.2   1131  BLA1131     0.0021
      6  C4A       -3.7410   16.3870  -25.7130 C.2   1131  BLA1131     0.1114
      7  CMA       -3.3860   15.3580  -28.1880 C.3   1131  BLA1131     0.0331
      8  CAA       -0.4860   17.0000  -27.6740 C.3   1131  BLA1131     0.0402
      9  CBA       -0.1720   15.7090  -28.4470 C.3   1131  BLA1131     0.1188
     10  CGA       -0.0900   15.9440  -29.9500 C.2   1131  BLA1131     0.3652
     11  O1A        0.9210   15.5000  -30.5580 O.co2 1131  BLA1131    -0.2456
     12  O2A       -1.0280   16.5610  -30.5310 O.co2 1131  BLA1131    -0.2456
     13  CHB       -5.1260   15.8420  -25.4980 C.3   1131  BLA1131     0.1181
     14  NB        -5.6450   16.6220  -23.2320 N.2   1131  BLA1131    -0.3372
     15  C1B       -6.0410   15.9500  -24.3300 C.2   1131  BLA1131     0.1257
     16  C2B       -7.4190   15.3610  -24.2290 C.2   1131  BLA1131     0.0168
     17  C3B       -7.8340   15.7720  -22.8710 C.2   1131  BLA1131     0.0929
     18  C4B       -6.6740   16.5310  -22.3650 C.1   1131  BLA1131     0.2041
     19  CMB       -8.2120   14.5560  -25.2230 C.3   1131  BLA1131     0.0342
     20  OB        -6.6600   17.0570  -21.1930 O.2   1131  BLA1131    -0.2093
     21  CAB       -9.1190   15.4920  -22.1740 C.2   1131  BLA1131     0.0124
     22  CBB       -9.5250   14.2690  -21.8960 C.2   1131  BLA1131     0.0008
     23  NC        -4.2350   20.8010  -21.1860 N.2   1131  BLA1131    -0.3371
     24  C1C       -5.3440   21.2080  -20.5040 C.1   1131  BLA1131     0.2003
     25  C2C       -5.0810   22.0730  -19.3170 C.2   1131  BLA1131     0.0749
     26  C3C       -3.6170   22.1620  -19.3350 C.2   1131  BLA1131     0.0347
     27  C4C       -3.2000   21.3600  -20.5060 C.2   1131  BLA1131     0.1293
     28  CMC       -5.9990   22.7060  -18.3300 C.3   1131  BLA1131     0.0448
     29  OC        -6.5520   20.8920  -20.8420 O.2   1131  BLA1131    -0.2096
     30  CAC       -2.7420   22.9000  -18.3780 C.2   1131  BLA1131     0.0027
     31  CBC       -2.0960   23.9980  -18.7350 C.2   1131  BLA1131     0.0001
     32  CHD       -1.7730   21.2000  -20.8430 C.3   1131  BLA1131     0.1184
     33  ND        -1.6910   19.6020  -22.8120 N.2   1131  BLA1131    -0.4104
     34  C1D       -1.1010   20.4910  -21.9490 C.2   1131  BLA1131     0.1115
     35  C2D        0.3330   20.7500  -22.1840 C.2   1131  BLA1131     0.0021
     36  C3D        0.6340   19.8950  -23.3440 C.2   1131  BLA1131     0.0024
     37  C4D       -0.6770   19.2350  -23.6520 C.2   1131  BLA1131     0.1114
     38  CMD        1.2450   21.6710  -21.4120 C.3   1131  BLA1131     0.0331
     39  CAD        1.9830   19.7800  -24.0200 C.3   1131  BLA1131     0.0402
     40  CBD        2.0680   18.5840  -24.9480 C.3   1131  BLA1131     0.1188
     41  CGD        3.3350   17.8360  -24.6220 C.2   1131  BLA1131     0.3652
     42  O1D        3.2780   16.5900  -24.4750 O.co2 1131  BLA1131    -0.2456
     43  O2D        4.3840   18.5080  -24.5040 O.co2 1131  BLA1131    -0.2456
@<TRIPOS>BOND
     1    11    10   ar
     2    12    10   ar
     3    10     9    1
     4     9     8    1
     5     7     5    1
     6     8     4    1
     7     5     4    2
     8     5     6    1
     9     4     3    1
    10     6    13    1
    11     6     2    2
    12    13    15    1
    13     3     2    2
    14     3     1    1
    15    19    16    1
    16    40    41    1
    17    40    39    1
    18     1    37    1
    19    41    43   ar
    20    41    42   ar
    21    15    16    1
    22    15    14    2
    23    16    17    2
    24    39    36    1
    25    37    36    1
    26    37    33    2
    27    36    35    2
    28    14    18    2
    29    17    18    1
    30    17    21    1
    31    33    34    2
    32    18    20    2
    33    35    34    1
    34    35    38    1
    35    21    22    2
    36    34    32    1
    37    23    27    2
    38    23    24    2
    39    32    27    1
    40    29    24    2
    41    27    26    1
    42    24    25    1
    43    26    25    2
    44    26    30    1
    45    25    28    1
    46    31    30    2
