@<TRIPOS>MOLECULE
3ajh_BL3_A_1.pdb
 43 46 0 0 0
SMALL
GASTEIGER

@<TRIPOS>ATOM
      1  NA        -2.3530   17.1160  -24.7410 N.2   250  BL3250     -0.4104
      2  NB        -4.9580   16.6360  -23.1730 N.2   250  BL3250     -0.3375
      3  OB        -6.1130   16.9430  -21.2380 O.2   250  BL3250     -0.2096
      4  NC        -3.3030   20.6530  -21.5380 N.2   250  BL3250     -0.3375
      5  OC        -5.5680   20.7880  -21.3830 O.2   250  BL3250     -0.2096
      6  ND        -0.9070   19.4910  -23.0160 N.2   250  BL3250     -0.4104
      7  C1A       -1.1530   17.3630  -25.2910 C.2   250  BL3250      0.1114
      8  O1A        2.7870   17.4240  -28.2180 O.co2 250  BL3250     -0.2456
      9  C1B       -5.1800   16.0340  -24.3390 C.2   250  BL3250      0.1254
     10  C1C       -4.4410   21.0830  -20.9970 C.1   250  BL3250      0.2000
     11  C1D       -0.4000   20.4880  -22.2840 C.2   250  BL3250      0.1114
     12  O1D        4.5790   21.2610  -25.2170 O.co2 250  BL3250     -0.2456
     13  C2A       -1.1320   16.7950  -26.5600 C.2   250  BL3250      0.0024
     14  O2A        3.2440   16.7010  -26.1630 O.co2 250  BL3250     -0.2456
     15  C2B       -6.4600   15.4660  -24.2910 C.2   250  BL3250      0.0125
     16  C2C       -4.1490   22.0380  -20.0200 C.2   250  BL3250      0.0710
     17  C2D        0.8900   20.7120  -22.7360 C.2   250  BL3250      0.0021
     18  O2D        3.7400   22.0850  -27.1090 O.co2 250  BL3250     -0.2456
     19  C3A       -2.3820   16.2110  -26.7300 C.2   250  BL3250      0.0021
     20  C3B       -6.9880   15.7560  -23.0450 C.2   250  BL3250      0.0710
     21  C3C       -2.7650   22.1590  -20.0140 C.2   250  BL3250      0.0125
     22  C3D        1.1500   19.8070  -23.7640 C.2   250  BL3250      0.0024
     23  C4A       -3.1130   16.4170  -25.5730 C.2   250  BL3250      0.1114
     24  C4B       -6.0090   16.4910  -22.3850 C.1   250  BL3250      0.2000
     25  C4C       -2.2770   21.2820  -20.9760 C.2   250  BL3250      0.1254
     26  C4D       -0.0110   19.0670  -23.9070 C.2   250  BL3250      0.1114
     27  CAA        0.0210   16.9070  -27.5580 C.3   250  BL3250      0.0402
     28  CAB       -7.0460   14.7430  -25.3190 C.3   250  BL3250      0.0291
     29  CAC       -1.9710   22.8700  -19.1160 C.3   250  BL3250      0.0291
     30  CAD        2.4420   19.7580  -24.5780 C.3   250  BL3250      0.0402
     31  CBA        1.1950   16.0150  -27.1450 C.3   250  BL3250      0.1188
     32  CBB       -8.3260   14.2010  -25.2140 C.3   250  BL3250      0.0051
     33  CBC       -2.5080   23.7300  -18.1620 C.3   250  BL3250      0.0051
     34  CBD        2.3440   20.6950  -25.7840 C.3   250  BL3250      0.1188
     35  CGA        2.5230   16.7760  -27.1850 C.2   250  BL3250      0.3652
     36  CGD        3.6760   21.3900  -26.0710 C.2   250  BL3250      0.3652
     37  CHA       -0.0900   18.1850  -24.9840 C.3   250  BL3250      0.1170
     38  CHB       -4.3950   15.8720  -25.4710 C.3   250  BL3250      0.1181
     39  CHD       -0.9280   21.3470  -21.3360 C.3   250  BL3250      0.1181
     40  CMA       -2.9060   15.5760  -28.0220 C.3   250  BL3250      0.0331
     41  CMB       -8.3450   15.3330  -22.4730 C.3   250  BL3250      0.0445
     42  CMC       -5.1750   22.8220  -19.1960 C.3   250  BL3250      0.0445
     43  CMD        1.8140   21.8550  -22.3190 C.3   250  BL3250      0.0331
@<TRIPOS>BOND
     1     8    35   ar
     2    40    19    1
     3    27    31    1
     4    27    13    1
     5    35    31    1
     6    35    14   ar
     7    18    36   ar
     8    19    13    2
     9    19    23    1
    10    13     7    1
    11    36    34    1
    12    36    12   ar
    13    34    30    1
    14    23    38    1
    15    23     1    2
    16    38     9    1
    17    28    32    1
    18    28    15    1
    19     7    37    1
    20     7     1    2
    21    37    26    1
    22    30    22    1
    23     9    15    1
    24     9     2    2
    25    15    20    2
    26    26    22    1
    27    26     6    2
    28    22    17    2
    29     2    24    2
    30    20    41    1
    31    20    24    1
    32     6    11    2
    33    17    43    1
    34    17    11    1
    35    24     3    2
    36    11    39    1
    37     4    10    2
    38     4    25    2
    39     5    10    2
    40    39    25    1
    41    10    16    1
    42    25    21    1
    43    16    21    2
    44    16    42    1
    45    21    29    1
    46    29    33    1
