@<TRIPOS>MOLECULE
3ajm_4IP_A_1.pdb
 28 28 0 0 0
SMALL
GASTEIGER

@<TRIPOS>ATOM
      1  C1        93.2480   48.1710   13.2500 C.3     1  4IP1        0.1917
      2  O1        93.2150   48.0340   11.8020 O.3     1  4IP1       -0.2673
      3  C2        94.0010   46.9790   13.8540 C.3     1  4IP1        0.2120
      4  O2        93.2980   45.8100   13.4290 O.3     1  4IP1       -0.2177
      5  C3        94.0300   47.1120   15.4000 C.3     1  4IP1        0.1890
      6  O3        94.7580   46.0030   15.9510 O.3     1  4IP1       -0.2674
      7  C4        92.5800   47.1580   15.9430 C.3     1  4IP1        0.1865
      8  O4        92.6290   47.3030   17.3940 O.3     1  4IP1       -0.2675
      9  C5        91.8570   48.3540   15.2860 C.3     1  4IP1        0.1890
     10  O5        90.4830   48.4250   15.7120 O.3     1  4IP1       -0.2674
     11  C6        91.8060   48.2240   13.7860 C.3     1  4IP1        0.2120
     12  O6        91.1310   49.3590   13.2280 O.3     1  4IP1       -0.2177
     13  P1        92.3920   49.0520   10.8320 P.3     1  4IP1        0.5327
     14  O1P       90.9380   48.5230   10.8260 O.3     1  4IP1       -0.1145
     15  O2P       92.4700   50.4390   11.4070 O.3     1  4IP1       -0.1145
     16  O3P       93.0180   48.9150    9.4850 O.2     1  4IP1       -0.2224
     17  P3        96.3580   45.7540   15.6530 P.3     1  4IP1        0.5327
     18  O4P       97.1520   46.8860   16.4500 O.3     1  4IP1       -0.1145
     19  O5P       96.6950   45.9800   14.2610 O.2     1  4IP1       -0.2224
     20  O6P       96.7490   44.4840   16.3740 O.3     1  4IP1       -0.1145
     21  P4        92.7640   46.0740   18.4560 P.3     1  4IP1        0.5327
     22  O7P       93.7850   46.5870   19.4630 O.3     1  4IP1       -0.1145
     23  O8P       91.3780   45.8520   19.1060 O.3     1  4IP1       -0.1145
     24  O9P       93.1460   44.8110   17.7220 O.2     1  4IP1       -0.2224
     25  P5        89.9990   49.0490   17.1150 P.3     1  4IP1        0.5327
     26  OPF       88.4750   49.2170   16.9210 O.2     1  4IP1       -0.2224
     27  OPG       90.7270   50.3380   17.3770 O.3     1  4IP1       -0.1145
     28  OPH       90.3040   47.9660   18.1550 O.3     1  4IP1       -0.1145
@<TRIPOS>BOND
     1    16    13    2
     2    14    13    1
     3    13    15    1
     4    13     2    1
     5     2     1    1
     6    12    11    1
     7     1    11    1
     8     1     3    1
     9     4     3    1
    10    11     9    1
    11     3     5    1
    12    19    17    2
    13     9    10    1
    14     9     7    1
    15     5     7    1
    16     5     6    1
    17    17     6    1
    18    17    20    1
    19    17    18    1
    20    10    25    1
    21     7     8    1
    22    26    25    2
    23    25    27    1
    24    25    28    1
    25     8    21    1
    26    24    21    2
    27    21    23    1
    28    21    22    1
