@<TRIPOS>MOLECULE
3ajr_NAD_A_1.pdb
 44 48 0 0 0
SMALL
GASTEIGER

@<TRIPOS>ATOM
      1  PA        -9.1590    7.3450  -28.1360 P.3   3001  NAD3001     0.2189
      2  O1A      -10.5850    7.1700  -28.4350 O.3   3001  NAD3001    -0.4371
      3  O2A       -8.1980    7.2320  -29.3110 O.2   3001  NAD3001    -0.5170
      4  O5B       -8.9950    8.7460  -27.3900 O.3   3001  NAD3001    -0.3112
      5  C5B       -7.7180    9.2030  -27.0210 C.3   3001  NAD3001     0.1813
      6  C4B       -7.8290   10.6140  -26.4310 C.3   3001  NAD3001     0.1821
      7  O4B       -6.4940   11.0300  -26.1550 O.3   3001  NAD3001    -0.3135
      8  C3B       -8.4150   11.5760  -27.4660 C.3   3001  NAD3001     0.2184
      9  O3B       -9.6230   12.1790  -27.0140 O.3   3001  NAD3001    -0.2174
     10  C2B       -7.2590   12.5470  -27.7020 C.3   3001  NAD3001     0.2570
     11  O2B       -7.6120   13.8700  -28.0560 O.3   3001  NAD3001    -0.2130
     12  C1B       -6.5430   12.4160  -26.3820 C.3   3001  NAD3001     0.3186
     13  N9A       -5.1840   12.9780  -26.2790 N.pl3 3001  NAD3001    -0.1439
     14  C8A       -4.1200   12.8360  -27.1380 C.3   3001  NAD3001     0.3377
     15  N7A       -3.0770   13.5310  -26.6520 N.2   3001  NAD3001    -0.2095
     16  C5A       -3.4510   14.1180  -25.4930 C.2   3001  NAD3001     0.2526
     17  C6A       -2.8080   14.9480  -24.5610 C.2   3001  NAD3001     0.4393
     18  N6A       -1.5460   15.3190  -24.7400 N.pl3 3001  NAD3001     0.2180
     19  N1A       -3.5090   15.3910  -23.4300 N.2   3001  NAD3001     0.0021
     20  C2A       -4.8360   15.0120  -23.2320 C.3   3001  NAD3001     0.5254
     21  N3A       -5.4820   14.1960  -24.1500 N.2   3001  NAD3001    -0.0055
     22  C4A       -4.7880   13.7660  -25.2520 C.2   3001  NAD3001     0.3518
     23  O3        -8.6880    6.2780  -27.0230 O.3   3001  NAD3001    -0.2703
     24  PN        -9.6010    5.3090  -26.1080 P.3   3001  NAD3001     0.2189
     25  O1N      -10.7010    6.0660  -25.4770 O.3   3001  NAD3001    -0.4371
     26  O2N       -9.9690    4.1590  -26.9630 O.2   3001  NAD3001    -0.5170
     27  O5D       -8.5250    4.8030  -25.0340 O.3   3001  NAD3001    -0.3112
     28  C5D       -8.0100    5.6920  -24.0710 C.3   3001  NAD3001     0.1813
     29  C4D       -6.9970    4.9870  -23.1650 C.3   3001  NAD3001     0.1799
     30  O4D       -7.3780    3.6200  -22.9500 O.3   3001  NAD3001    -0.3327
     31  C3D       -5.5920    4.9480  -23.7570 C.3   3001  NAD3001     0.2158
     32  O3D       -4.6120    5.1880  -22.7550 O.3   3001  NAD3001    -0.2175
     33  C2D       -5.5030    3.5770  -24.3570 C.3   3001  NAD3001     0.2309
     34  O2D       -4.1870    3.1390  -24.5770 O.3   3001  NAD3001    -0.2158
     35  C1D       -6.3180    2.7620  -23.3580 C.3   3001  NAD3001     0.2263
     36  N1N       -6.8690    1.4830  -23.9060 N.pl3 3001  NAD3001    -0.2787
     37  C2N       -7.9850    1.5330  -24.7450 C.3   3001  NAD3001     0.1244
     38  C3N       -8.5090    0.3430  -25.2760 C.2   3001  NAD3001     0.0544
     39  C7N       -9.7090    0.3940  -26.1810 C.2   3001  NAD3001     0.2818
     40  O7N      -10.1840   -0.7930  -26.6820 O.2   3001  NAD3001    -0.2670
     41  N7N      -10.3230    1.5130  -26.5190 N.am  3001  NAD3001    -0.0839
     42  C4N       -7.8850   -0.8860  -24.9440 C.2   3001  NAD3001     0.0033
     43  C5N       -6.7560   -0.9140  -24.0970 C.2   3001  NAD3001     0.0157
     44  C6N       -6.2570    0.2840  -23.5840 C.2   3001  NAD3001     0.0633
@<TRIPOS>BOND
     1     3     1    2
     2     2     1    1
     3     1     4    1
     4     1    23    1
     5    11    10    1
     6    10     8    1
     7    10    12    1
     8     8     9    1
     9     8     6    1
    10     4     5    1
    11    14    15    1
    12    14    13    1
    13    23    24    1
    14     5     6    1
    15    26    24    2
    16    40    39    2
    17    15    16    2
    18    41    39   am
    19     6     7    1
    20    12    13    1
    21    12     7    1
    22    13    22    1
    23    39    38    1
    24    24    25    1
    25    24    27    1
    26    16    22    1
    27    16    17    1
    28    38    42    2
    29    38    37    1
    30    22    21    2
    31    27    28    1
    32    42    43    1
    33    37    36    1
    34    18    17    1
    35    34    33    1
    36    17    19    2
    37    33    31    1
    38    33    35    1
    39    21    20    1
    40    43    44    2
    41    28    29    1
    42    36    44    1
    43    36    35    1
    44    31    29    1
    45    31    32    1
    46    19    20    1
    47    35    30    1
    48    29    30    1
