@<TRIPOS>MOLECULE
3ajy_GAL_A_1.pdb
 11 11 0 0 0
SMALL
GASTEIGER

@<TRIPOS>ATOM
      1  C1       -21.3630    3.5440   21.7730 C.3   136  GAL136      0.1777
      2  C2       -21.3260    3.9680   23.2370 C.3   136  GAL136      0.2141
      3  C3       -19.9980    3.5840   23.8850 C.3   136  GAL136      0.2173
      4  C4       -19.6970    2.1020   23.6260 C.3   136  GAL136      0.2142
      5  C5       -19.7620    1.8010   22.1250 C.3   136  GAL136      0.1810
      6  C6       -19.4770    0.3300   21.7740 C.3   136  GAL136      0.2141
      7  O2       -21.5180    5.3600   23.3260 O.3   136  GAL136     -0.2176
      8  O3       -20.1000    3.8350   25.2740 O.3   136  GAL136     -0.2175
      9  O4       -20.6300    1.3010   24.3270 O.3   136  GAL136     -0.2176
     10  O5       -21.0270    2.1720   21.6120 O.3   136  GAL136     -0.3481
     11  O6       -19.4420    0.1670   20.3620 O.3   136  GAL136     -0.2176
@<TRIPOS>BOND
     1    11     6    1
     2    10     1    1
     3    10     5    1
     4     1     2    1
     5     6     5    1
     6     5     4    1
     7     2     7    1
     8     2     3    1
     9     4     3    1
    10     4     9    1
    11     3     8    1
