@<TRIPOS>MOLECULE
3ajy_BGC_A_1.pdb
 12 12 0 0 0
SMALL
GASTEIGER

@<TRIPOS>ATOM
      1  C2       -24.3800    2.7230   18.1600 C.3   135  BGC135      0.2434
      2  C3       -23.9780    2.7380   19.6270 C.3   135  BGC135      0.2199
      3  C4       -22.8060    3.6980   19.8980 C.3   135  BGC135      0.2144
      4  C5       -23.1470    5.0610   19.2760 C.3   135  BGC135      0.1836
      5  C6       -22.0980    6.1590   19.4390 C.3   135  BGC135      0.2142
      6  C1       -24.5890    4.1630   17.7100 C.3   135  BGC135      0.3024
      7  O1       -24.8770    4.1680   16.3460 O.3   135  BGC135     -0.1869
      8  O2       -25.5770    1.9890   17.9960 O.3   135  BGC135     -0.2148
      9  O3       -23.6630    1.4200   19.9700 O.3   135  BGC135     -0.2174
     10  O4       -22.6790    3.8480   21.2950 O.3   135  BGC135     -0.2176
     11  O5       -23.3850    4.8700   17.9050 O.3   135  BGC135     -0.3236
     12  O6       -20.8910    5.6740   18.8950 O.3   135  BGC135     -0.2176
@<TRIPOS>BOND
     1     7     6    1
     2     6    11    1
     3     6     1    1
     4    11     4    1
     5     8     1    1
     6     1     2    1
     7    12     5    1
     8     4     5    1
     9     4     3    1
    10     2     3    1
    11     2     9    1
    12     3    10    1
