@<TRIPOS>MOLECULE
3ajz_BGC_A_1.pdb
 12 12 0 0 0
SMALL
GASTEIGER

@<TRIPOS>ATOM
      1  C2        -0.8890  -10.5790  -23.0550 C.3   134  BGC134      0.2434
      2  C3        -0.3360  -11.9400  -22.6170 C.3   134  BGC134      0.2199
      3  C4        -0.2910  -12.9360  -23.7720 C.3   134  BGC134      0.2144
      4  C5         0.5180  -12.2490  -24.8850 C.3   134  BGC134      0.1836
      5  C6         0.6960  -13.0920  -26.1360 C.3   134  BGC134      0.2142
      6  C1        -0.0430  -10.0780  -24.2220 C.3   134  BGC134      0.3024
      7  O1        -0.6110   -8.9070  -24.7460 O.3   134  BGC134     -0.1869
      8  O2        -0.8160   -9.6640  -21.9960 O.3   134  BGC134     -0.2148
      9  O3        -1.1280  -12.4660  -21.5730 O.3   134  BGC134     -0.2174
     10  O4         0.4240  -14.0910  -23.3570 O.3   134  BGC134     -0.2176
     11  O5        -0.1410  -11.0470  -25.2350 O.3   134  BGC134     -0.3236
     12  O6        -0.5740  -13.4580  -26.6210 O.3   134  BGC134     -0.2176
@<TRIPOS>BOND
     1    12     5    1
     2     5     4    1
     3    11     4    1
     4    11     6    1
     5     4     3    1
     6     7     6    1
     7     6     1    1
     8     3    10    1
     9     3     2    1
    10     1     2    1
    11     1     8    1
    12     2     9    1
