@<TRIPOS>MOLECULE
3ajz_GAL_A_1.pdb
 11 11 0 0 0
SMALL
GASTEIGER

@<TRIPOS>ATOM
      1  C1        -0.2280  -15.3370  -23.6640 C.3   133  GAL133      0.1777
      2  C2         0.8240  -16.4620  -23.5480 C.3   133  GAL133      0.2141
      3  C3         0.1810  -17.8360  -23.7090 C.3   133  GAL133      0.2173
      4  C4        -0.9870  -17.9490  -22.7170 C.3   133  GAL133      0.2142
      5  C5        -1.9520  -16.7890  -23.0170 C.3   133  GAL133      0.1810
      6  C6        -3.1580  -16.8210  -22.0980 C.3   133  GAL133      0.2141
      7  O2         1.8610  -16.2910  -24.5190 O.3   133  GAL133     -0.2176
      8  O3         1.1450  -18.8310  -23.4670 O.3   133  GAL133     -0.2175
      9  O4        -0.4740  -17.9350  -21.3930 O.3   133  GAL133     -0.2176
     10  O5        -1.3320  -15.5240  -22.7940 O.3   133  GAL133     -0.3481
     11  O6        -4.0840  -15.8100  -22.4660 O.3   133  GAL133     -0.2176
@<TRIPOS>BOND
     1     7     2    1
     2     3     2    1
     3     3     8    1
     4     3     4    1
     5     1     2    1
     6     1    10    1
     7     5    10    1
     8     5     4    1
     9     5     6    1
    10     4     9    1
    11    11     6    1
