@<TRIPOS>MOLECULE
3ak0_GAL_A_1.pdb
 11 11 0 0 0
SMALL
GASTEIGER

@<TRIPOS>ATOM
      1  C1        25.6730   13.3880   26.2810 C.3   133  GAL133      0.1777
      2  C2        25.3590   11.9160   26.5800 C.3   133  GAL133      0.2141
      3  C3        25.2590   11.1350   25.2730 C.3   133  GAL133      0.2173
      4  C4        24.2580   11.8100   24.3460 C.3   133  GAL133      0.2142
      5  C5        24.6680   13.2750   24.1500 C.3   133  GAL133      0.1810
      6  C6        23.6850   14.0430   23.2790 C.3   133  GAL133      0.2141
      7  O2        26.3440   11.2920   27.4050 O.3   133  GAL133     -0.2176
      8  O3        24.8960    9.8110   25.5840 O.3   133  GAL133     -0.2175
      9  O4        22.9610   11.7060   24.9130 O.3   133  GAL133     -0.2176
     10  O5        24.6860   13.9200   25.4180 O.3   133  GAL133     -0.3481
     11  O6        24.2240   15.3270   23.0160 O.3   133  GAL133     -0.2176
@<TRIPOS>BOND
     1    11     6    1
     2     6     5    1
     3     5     4    1
     4     5    10    1
     5     4     9    1
     6     4     3    1
     7     3     8    1
     8     3     2    1
     9    10     1    1
    10     1     2    1
    11     2     7    1
