@<TRIPOS>MOLECULE
3ak0_BGC_A_1.pdb
 12 12 0 0 0
SMALL
GASTEIGER

@<TRIPOS>ATOM
      1  C2        25.7270   17.7910   28.2970 C.3   134  BGC134      0.2434
      2  C3        25.1830   16.3680   28.1440 C.3   134  BGC134      0.2199
      3  C4        26.1570   15.4100   27.4610 C.3   134  BGC134      0.2144
      4  C5        27.4370   15.4540   28.3050 C.3   134  BGC134      0.1836
      5  C6        28.5490   14.6520   27.6780 C.3   134  BGC134      0.2142
      6  C1        27.0600   17.7020   29.0240 C.3   134  BGC134      0.3024
      7  O1        27.6920   18.9600   28.9530 O.3   134  BGC134     -0.1869
      8  O2        24.8140   18.5800   29.0530 O.3   134  BGC134     -0.2148
      9  O3        23.9690   16.4110   27.4190 O.3   134  BGC134     -0.2174
     10  O4        25.6110   14.1020   27.5140 O.3   134  BGC134     -0.2176
     11  O5        27.9050   16.7980   28.3600 O.3   134  BGC134     -0.3236
     12  O6        28.8060   15.2080   26.4160 O.3   134  BGC134     -0.2176
@<TRIPOS>BOND
     1    12     5    1
     2     9     2    1
     3     3    10    1
     4     3     2    1
     5     3     4    1
     6     5     4    1
     7     2     1    1
     8     1     6    1
     9     1     8    1
    10     4    11    1
    11    11     6    1
    12     7     6    1
