@<TRIPOS>MOLECULE
3ak4_NAD_A_1.pdb
 44 48 0 0 0
SMALL
GASTEIGER

@<TRIPOS>ATOM
      1  PA       -24.1940   -2.1990    8.1090 P.3   901  NAD901      0.2189
      2  O1A      -23.8390   -2.8600    6.8000 O.2   901  NAD901     -0.5170
      3  O2A      -23.1120   -1.6880    9.0170 O.3   901  NAD901     -0.4371
      4  O5B      -25.0990   -3.1740    9.0130 O.3   901  NAD901     -0.3112
      5  C5B      -26.2410   -3.9250    8.5630 C.3   901  NAD901      0.1813
      6  C4B      -26.6170   -4.9330    9.6780 C.3   901  NAD901      0.1821
      7  O4B      -27.7140   -5.7560    9.1950 O.3   901  NAD901     -0.3135
      8  C3B      -25.4410   -5.8690   10.0190 C.3   901  NAD901      0.2184
      9  O3B      -25.3630   -6.1700   11.4470 O.3   901  NAD901     -0.2174
     10  C2B      -25.7640   -7.1180    9.1940 C.3   901  NAD901      0.2570
     11  O2B      -25.2340   -8.3400    9.7300 O.3   901  NAD901     -0.2130
     12  C1B      -27.3020   -7.1200    9.1870 C.3   901  NAD901      0.3186
     13  N9A      -27.8880   -7.9390    8.0800 N.pl3 901  NAD901     -0.1439
     14  C8A      -27.6550   -7.8560    6.7590 C.3   901  NAD901      0.3377
     15  N7A      -28.3920   -8.8140    6.1490 N.2   901  NAD901     -0.2095
     16  C5A      -29.0650   -9.4820    7.1150 C.2   901  NAD901      0.2526
     17  C6A      -29.9490  -10.5390    7.0700 C.2   901  NAD901      0.4393
     18  N6A      -30.2480  -11.0870    5.8440 N.pl3 901  NAD901      0.2180
     19  N1A      -30.4700  -10.9830    8.2500 N.2   901  NAD901      0.0021
     20  C2A      -30.1720  -10.4180    9.4430 C.3   901  NAD901      0.5254
     21  N3A      -29.2800   -9.4150    9.4990 N.2   901  NAD901     -0.0055
     22  C4A      -28.7450   -8.9290    8.3340 C.2   901  NAD901      0.3518
     23  O3       -25.1790   -0.9680    7.7180 O.3   901  NAD901     -0.2703
     24  PN       -25.6520    0.3950    8.4730 P.3   901  NAD901      0.2189
     25  O1N      -25.6430    0.3670    9.9790 O.3   901  NAD901     -0.4371
     26  O2N      -25.0000    1.4980    7.6790 O.2   901  NAD901     -0.5170
     27  O5D      -27.2000    0.3310    8.0030 O.3   901  NAD901     -0.3112
     28  C5D      -28.2820   -0.0580    8.8760 C.3   901  NAD901      0.1813
     29  C4D      -29.6470    0.2970    8.2570 C.3   901  NAD901      0.1799
     30  O4D      -29.7010    1.7020    7.9690 O.3   901  NAD901     -0.3327
     31  C3D      -29.9150   -0.4300    6.9260 C.3   901  NAD901      0.2158
     32  O3D      -31.3220   -0.7610    6.9120 O.3   901  NAD901     -0.2175
     33  C2D      -29.5320    0.6180    5.8750 C.3   901  NAD901      0.2309
     34  O2D      -30.1960    0.4400    4.6070 O.3   901  NAD901     -0.2158
     35  C1D      -29.9510    1.9160    6.5840 C.3   901  NAD901      0.2263
     36  N1N      -29.3230    3.1740    6.1540 N.pl3 901  NAD901     -0.2787
     37  C2N      -27.9880    3.4140    6.2510 C.3   901  NAD901      0.1244
     38  C3N      -27.4520    4.6610    5.8500 C.2   901  NAD901      0.0544
     39  C7N      -25.9530    4.9820    5.8780 C.2   901  NAD901      0.2818
     40  O7N      -25.5490    6.0070    5.3190 O.2   901  NAD901     -0.2670
     41  N7N      -25.0620    4.1430    6.4260 N.am  901  NAD901     -0.0839
     42  C4N      -28.3560    5.6180    5.3570 C.2   901  NAD901      0.0033
     43  C5N      -29.7320    5.3470    5.2630 C.2   901  NAD901      0.0157
     44  C6N      -30.1860    4.1030    5.6850 C.2   901  NAD901      0.0633
@<TRIPOS>BOND
     1    34    33    1
     2    43    42    1
     3    43    44    2
     4    40    39    2
     5    42    38    2
     6    44    36    1
     7    18    17    1
     8    38    39    1
     9    38    37    1
    10    33    35    1
    11    33    31    1
    12    39    41   am
    13    15    14    1
    14    15    16    2
    15    36    37    1
    16    36    35    1
    17    35    30    1
    18    14    13    1
    19     2     1    2
    20    32    31    1
    21    31    29    1
    22    17    16    1
    23    17    19    2
    24    16    22    1
    25    26    24    2
    26    23     1    1
    27    23    24    1
    28    30    29    1
    29    27    24    1
    30    27    28    1
    31    13    22    1
    32    13    12    1
    33     1     4    1
    34     1     3    1
    35    19    20    1
    36    29    28    1
    37    22    21    2
    38    24    25    1
    39     5     4    1
    40     5     6    1
    41    12    10    1
    42    12     7    1
    43    10    11    1
    44    10     8    1
    45     7     6    1
    46    20    21    1
    47     6     8    1
    48     8     9    1
