@<TRIPOS>MOLECULE
3akc_CDP_A_1.pdb
 25 26 0 0 0
SMALL
GASTEIGER

@<TRIPOS>ATOM
      1  O3B       -3.5070   34.1970   16.6350 O.2   209  CDP209     -0.2221
      2  PB        -4.7520   35.0170   16.9730 P.3   209  CDP209      0.5373
      3  O1B       -4.3570   36.3390   17.4220 O.3   209  CDP209     -0.1143
      4  O2B       -5.5820   34.3440   17.9360 O.3   209  CDP209     -0.1143
      5  O3A       -5.7280   35.1550   15.7180 O.3   209  CDP209     -0.2261
      6  PA        -7.2140   35.5740   15.9460 P.3   209  CDP209      0.2231
      7  O1A       -7.3680   36.5350   17.0660 O.3   209  CDP209     -0.4370
      8  O2A       -8.0040   34.2940   16.1570 O.2   209  CDP209     -0.5169
      9  O5'       -7.6400   36.3350   14.6760 O.3   209  CDP209     -0.3111
     10  C5'       -7.5100   35.6310   13.4920 C.3   209  CDP209      0.1813
     11  C4'       -7.5940   36.4070   12.3050 C.3   209  CDP209      0.1799
     12  O4'       -8.7920   37.0890   12.2920 O.3   209  CDP209     -0.3320
     13  C3'       -6.5910   37.4020   12.3870 C.3   209  CDP209      0.2158
     14  O3'       -5.1890   37.5350   11.9220 O.3   209  CDP209     -0.2175
     15  C2'       -7.1650   38.7710   11.9050 C.3   209  CDP209      0.2319
     16  O2'       -6.8640   38.7820   10.4510 O.3   209  CDP209     -0.2157
     17  C1'       -8.5560   38.3420   11.9300 C.3   209  CDP209      0.2400
     18  N1        -9.0760   39.2640   12.9640 N.am  209  CDP209     -0.1778
     19  C2        -9.3390   40.4310   12.5580 C.1   209  CDP209      0.2756
     20  O2        -9.2150   41.1460   11.3450 O.2   209  CDP209     -0.1925
     21  N3        -9.9000   41.3610   13.3260 N.2   209  CDP209     -0.3024
     22  C4       -10.2280   41.0610   14.5830 C.2   209  CDP209      0.2346
     23  N4       -11.1160   41.6790   15.3440 N.pl3 209  CDP209     -0.0921
     24  C5        -9.9910   39.8050   15.0370 C.2   209  CDP209      0.0687
     25  C6        -9.4010   38.8850   14.2110 C.2   209  CDP209      0.0836
@<TRIPOS>BOND
     1    16    15    1
     2    20    19    2
     3    15    17    1
     4    15    13    1
     5    14    13    1
     6    17    12    1
     7    17    18    1
     8    12    11    1
     9    11    13    1
    10    11    10    1
    11    19    18   am
    12    19    21    2
    13    18    25    1
    14    21    22    2
    15    10     9    1
    16    25    24    2
    17    22    24    1
    18    22    23    1
    19     9     6    1
    20     5     6    1
    21     5     2    1
    22     6     8    2
    23     6     7    1
    24     1     2    2
    25     2     3    1
    26     2     4    1
