@<TRIPOS>MOLECULE
3akc_ADP_A_1.pdb
 27 29 0 0 0
SMALL
GASTEIGER

@<TRIPOS>ATOM
      1  PB        -3.8000   35.4550   21.3350 P.3   210  ADP210      0.5373
      2  O1B       -3.2060   36.8070   21.3430 O.3   210  ADP210     -0.1143
      3  O2B       -3.3670   34.6880   20.0210 O.2   210  ADP210     -0.2221
      4  O3B       -5.2190   35.5350   21.3990 O.3   210  ADP210     -0.1143
      5  PA        -3.7570   33.3090   23.0310 P.3   210  ADP210      0.2231
      6  O1A       -4.4060   33.3730   24.4170 O.3   210  ADP210     -0.4370
      7  O2A       -4.7210   32.8230   22.1400 O.2   210  ADP210     -0.5169
      8  O3A       -3.2280   34.7290   22.5650 O.3   210  ADP210     -0.2261
      9  O5'       -2.6140   32.3630   23.0160 O.3   210  ADP210     -0.3111
     10  C5'       -1.4110   32.6810   23.7480 C.3   210  ADP210      0.1813
     11  C4'       -0.5860   31.5680   24.0910 C.3   210  ADP210      0.1821
     12  O4'        0.5910   31.9800   24.8410 O.3   210  ADP210     -0.3135
     13  C3'       -1.3160   30.6920   24.9690 C.3   210  ADP210      0.2184
     14  O3'       -0.9290   29.4570   24.6000 O.3   210  ADP210     -0.2174
     15  C2'       -0.8270   31.0100   26.3230 C.3   210  ADP210      0.2570
     16  O2'       -0.9950   30.0230   27.1890 O.3   210  ADP210     -0.2130
     17  C1'        0.5890   31.3550   26.0670 C.3   210  ADP210      0.3186
     18  N9         0.8750   32.3900   27.2390 N.pl3 210  ADP210     -0.1439
     19  C8         2.0930   32.3630   27.7620 C.3   210  ADP210      0.3377
     20  N7         2.2650   33.4350   28.4890 N.2   210  ADP210     -0.2095
     21  C5         1.1630   34.1560   28.3900 C.2   210  ADP210      0.2526
     22  C6         0.8340   35.3530   28.9310 C.2   210  ADP210      0.4393
     23  N6         1.7160   36.0860   29.7170 N.pl3 210  ADP210      0.2180
     24  N1        -0.3590   35.8810   28.6890 N.2   210  ADP210      0.0021
     25  C2        -1.2040   35.1960   27.8950 C.3   210  ADP210      0.5254
     26  N3        -0.9350   34.0270   27.3390 N.2   210  ADP210     -0.0055
     27  C4         0.2650   33.5060   27.5950 C.2   210  ADP210      0.3518
@<TRIPOS>BOND
     1     3     1    2
     2     1     2    1
     3     1     4    1
     4     1     8    1
     5     7     5    2
     6     8     5    1
     7     9     5    1
     8     9    10    1
     9     5     6    1
    10    10    11    1
    11    11    12    1
    12    11    13    1
    13    14    13    1
    14    12    17    1
    15    13    15    1
    16    17    15    1
    17    17    18    1
    18    15    16    1
    19    18    27    1
    20    18    19    1
    21    26    27    2
    22    26    25    1
    23    27    21    1
    24    19    20    1
    25    25    24    1
    26    21    20    2
    27    21    22    1
    28    24    22    2
    29    22    23    1
