@<TRIPOS>MOLECULE
3akd_CDP_A_1.pdb
 25 26 0 0 0
SMALL
GASTEIGER

@<TRIPOS>ATOM
      1  O3B       33.8900   20.5590    1.2030 O.2   209  CDP209     -0.2221
      2  PB        33.8320   21.6320    2.2310 P.3   209  CDP209      0.5373
      3  O1B       33.3760   21.0740    3.4810 O.3   209  CDP209     -0.1143
      4  O2B       32.8460   22.6880    1.9030 O.3   209  CDP209     -0.1143
      5  O3A       35.2310   22.2810    2.3480 O.3   209  CDP209     -0.2261
      6  PA        35.4520   23.7630    2.3440 P.3   209  CDP209      0.2231
      7  O1A       34.8050   24.4840    1.2440 O.2   209  CDP209     -0.5169
      8  O2A       36.8820   23.9200    2.2180 O.3   209  CDP209     -0.4370
      9  O5'       34.9260   24.3560    3.6690 O.3   209  CDP209     -0.3111
     10  C5'       35.4430   23.9260    4.8940 C.3   209  CDP209      0.1813
     11  C4'       34.6790   24.3770    6.0390 C.3   209  CDP209      0.1799
     12  O4'       34.6920   25.7650    6.1580 O.3   209  CDP209     -0.3320
     13  C3'       33.3040   24.0980    5.8160 C.3   209  CDP209      0.2158
     14  O3'       32.9530   22.7810    6.0290 O.3   209  CDP209     -0.2175
     15  C2'       32.6540   25.1510    6.4170 C.3   209  CDP209      0.2319
     16  O2'       32.4600   24.3920    7.7580 O.3   209  CDP209     -0.2157
     17  C1'       33.4700   26.1550    6.5790 C.3   209  CDP209      0.2400
     18  N1        32.8620   27.1240    5.6590 N.am  209  CDP209     -0.1778
     19  C2        31.9540   28.0220    6.0440 C.1   209  CDP209      0.2756
     20  O2        31.4240   27.9360    7.1220 O.2   209  CDP209     -0.1925
     21  N3        31.5270   28.9710    5.2070 N.2   209  CDP209     -0.3024
     22  C4        32.0490   29.0670    3.9860 C.2   209  CDP209      0.2346
     23  N4        31.6530   30.1280    3.0950 N.pl3 209  CDP209     -0.0921
     24  C5        32.9790   28.1570    3.5770 C.2   209  CDP209      0.0687
     25  C6        33.3870   27.1740    4.4510 C.2   209  CDP209      0.0836
@<TRIPOS>BOND
     1     1     2    2
     2     7     6    2
     3     4     2    1
     4     8     6    1
     5     2     5    1
     6     2     3    1
     7     6     5    1
     8     6     9    1
     9    23    22    1
    10    24    22    1
    11    24    25    2
    12     9    10    1
    13    22    21    2
    14    25    18    1
    15    10    11    1
    16    21    19    2
    17    18    19   am
    18    18    17    1
    19    13    14    1
    20    13    11    1
    21    13    15    1
    22    11    12    1
    23    19    20    2
    24    12    17    1
    25    15    17    1
    26    15    16    1
