@<TRIPOS>MOLECULE
3ake_C5P_A_1.pdb
 21 22 0 0 0
SMALL
GASTEIGER

@<TRIPOS>ATOM
      1  O3P       34.7100   11.8070    1.4230 O.2   209  C5P209     -0.2224
      2  P         33.6310   11.8600    2.7880 P.3   209  C5P209      0.5327
      3  O1P       32.6450   10.8350    2.2920 O.3   209  C5P209     -0.1145
      4  O2P       33.4560   13.6690    2.7160 O.3   209  C5P209     -0.1145
      5  O5'       34.3760   11.1930    4.0230 O.3   209  C5P209     -0.2675
      6  C5'       33.9570   11.1470    5.4930 C.3   209  C5P209      0.1859
      7  C4'       34.6850   11.5710    6.5500 C.3   209  C5P209      0.1801
      8  O4'       35.8810   10.8380    6.3680 O.3   209  C5P209     -0.3320
      9  C3'       35.0150   12.9260    6.1560 C.3   209  C5P209      0.2158
     10  O3'       34.0240   13.8220    6.5190 O.3   209  C5P209     -0.2175
     11  C2'       36.1010   13.0230    7.0510 C.3   209  C5P209      0.2319
     12  O2'       35.7650   13.0720    8.3920 O.3   209  C5P209     -0.2157
     13  C1'       36.8250   11.7360    6.7820 C.3   209  C5P209      0.2400
     14  N1        37.8600   11.7140    5.7690 N.am  209  C5P209     -0.1778
     15  C2        39.0890   11.9920    6.1390 C.1   209  C5P209      0.2756
     16  N3        40.1120   11.8580    5.2850 N.2   209  C5P209     -0.3024
     17  C4        39.8710   11.4030    4.0580 C.2   209  C5P209      0.2346
     18  C5        38.5960   11.0960    3.6310 C.2   209  C5P209      0.0687
     19  C6        37.5550   11.2560    4.5400 C.2   209  C5P209      0.0836
     20  O2        39.2960   12.4090    7.2530 O.2   209  C5P209     -0.1925
     21  N4        41.0410   11.1810    3.1670 N.pl3 209  C5P209     -0.0921
@<TRIPOS>BOND
     1     1     2    2
     2     3     2    1
     3     4     2    1
     4     2     5    1
     5    21    17    1
     6    18    17    1
     7    18    19    2
     8     5     6    1
     9    17    16    2
    10    19    14    1
    11    16    15    2
    12     6     7    1
    13    14    15   am
    14    14    13    1
    15    15    20    2
    16     9    10    1
    17     9     7    1
    18     9    11    1
    19     8     7    1
    20     8    13    1
    21    13    11    1
    22    11    12    1
