@<TRIPOS>MOLECULE
3akg_AHR_A_1.pdb
 10 10 0 0 0
SMALL
GASTEIGER

@<TRIPOS>ATOM
      1  O5'      -19.4640   10.8250  -37.2820 O.3   551  AHR551     -0.2176
      2  C5'      -19.2760    9.5240  -37.8540 C.3   551  AHR551      0.2142
      3  C4'      -20.1460    9.3850  -39.1070 C.3   551  AHR551      0.1837
      4  O4'      -21.5670    9.5090  -38.7620 O.3   551  AHR551     -0.3236
      5  C3'      -19.9280    7.9730  -39.6450 C.3   551  AHR551      0.2169
      6  O3'      -19.7380    8.0510  -41.0730 O.3   551  AHR551     -0.2175
      7  C2'      -21.2150    7.2130  -39.2820 C.3   551  AHR551      0.2433
      8  O2'      -21.1370    6.6330  -37.9700 O.3   551  AHR551     -0.2148
      9  C1'      -22.2630    8.3140  -39.2430 C.3   551  AHR551      0.3024
     10  O1'      -22.7900    8.4860  -40.5720 O.3   551  AHR551     -0.1869
@<TRIPOS>BOND
     1     6     5    1
     2    10     9    1
     3     5     7    1
     4     5     3    1
     5     7     9    1
     6     7     8    1
     7     9     4    1
     8     3     4    1
     9     3     2    1
    10     2     1    1
