@<TRIPOS>MOLECULE
3akh_AHR_A_1.pdb
 10 10 0 0 0
SMALL
GASTEIGER

@<TRIPOS>ATOM
      1  O5'      -18.2630   12.0740  -34.3630 O.3   541  AHR541     -0.2176
      2  C5'      -18.3620   12.9060  -35.5180 C.3   541  AHR541      0.2142
      3  C4'      -17.8600   12.1550  -36.7620 C.3   541  AHR541      0.1837
      4  O4'      -18.3450   10.7850  -36.6260 O.3   541  AHR541     -0.3236
      5  C3'      -16.3280   12.0630  -36.9540 C.3   541  AHR541      0.2169
      6  O3'      -15.8670   13.0140  -37.9200 O.3   541  AHR541     -0.2175
      7  C2'      -16.1940   10.6920  -37.5720 C.3   541  AHR541      0.2433
      8  O2'      -14.8740   10.1560  -37.3810 O.3   541  AHR541     -0.2148
      9  C1'      -17.1970    9.9300  -36.7220 C.3   541  AHR541      0.3024
     10  O1'      -17.5840    8.7830  -37.4330 O.3   541  AHR541     -0.1869
@<TRIPOS>BOND
     1     6     5    1
     2     7     8    1
     3     7     5    1
     4     7     9    1
     5    10     9    1
     6     5     3    1
     7     3     4    1
     8     3     2    1
     9     9     4    1
    10     2     1    1
