@<TRIPOS>MOLECULE
3aki_AH8_A_1.pdb
 12 12 0 0 0
SMALL
GASTEIGER

@<TRIPOS>ATOM
      1  C1       -21.9610    8.3070  -40.4270 C.3   551  AH8551      0.2884
      2  N1       -22.3640    8.3570  -41.8520 N.2   551  AH8551     -0.0659
      3  C2       -20.9610    7.1830  -40.1230 C.3   551  AH8551      0.2380
      4  N2       -23.4860    8.3450  -41.9460 N.2   551  AH8551     -0.1639
      5  O2       -21.0790    6.7750  -38.7500 O.3   551  AH8551     -0.2153
      6  C3       -19.5930    7.8320  -40.3680 C.3   551  AH8551      0.2163
      7  N3       -24.5980    8.3100  -42.1160 N.2   551  AH8551      0.0679
      8  O3       -19.0690    7.4150  -41.6350 O.3   551  AH8551     -0.2175
      9  C4       -19.8730    9.3420  -40.4220 C.3   551  AH8551      0.1832
     10  O4       -21.2680    9.5230  -40.0630 O.3   551  AH8551     -0.3276
     11  C5       -19.0000   10.0940  -39.4090 C.3   551  AH8551      0.2142
     12  O5       -18.9450    9.3880  -38.1680 O.3   551  AH8551     -0.2176
@<TRIPOS>BOND
     1     7     4    2
     2     4     2    2
     3     2     1    1
     4     8     6    1
     5     1     3    1
     6     1    10    1
     7     9     6    1
     8     9    10    1
     9     9    11    1
    10     6     3    1
    11     3     5    1
    12    11    12    1
