@<TRIPOS>MOLECULE
3akk_ADP_A_1.pdb
 27 29 0 0 0
SMALL
GASTEIGER

@<TRIPOS>ATOM
      1  PB         0.9630   27.0080   12.0970 P.3   500  ADP500      0.5373
      2  O1B        1.6140   26.5290   10.8210 O.2   500  ADP500     -0.2221
      3  O2B        1.8080   26.7870   13.3170 O.3   500  ADP500     -0.1143
      4  O3B       -0.4470   26.5270   12.2540 O.3   500  ADP500     -0.1143
      5  PA         0.2260   29.4990   10.8680 P.3   500  ADP500      0.2231
      6  O1A        1.2990   29.9560    9.9060 O.2   500  ADP500     -0.5169
      7  O2A       -0.9580   28.7550   10.3370 O.3   500  ADP500     -0.4370
      8  O3A        0.9160   28.6220   12.0300 O.3   500  ADP500     -0.2261
      9  O5'       -0.3060   30.7600   11.7320 O.3   500  ADP500     -0.3111
     10  C5'       -0.9920   30.5430   12.9630 C.3   500  ADP500      0.1813
     11  C4'       -2.2210   31.4250   13.0500 C.3   500  ADP500      0.1821
     12  O4'       -1.8200   32.7900   13.0490 O.3   500  ADP500     -0.3135
     13  C3'       -3.1190   31.2810   11.8360 C.3   500  ADP500      0.2184
     14  O3'       -4.1330   30.2990   12.0420 O.3   500  ADP500     -0.2174
     15  C2'       -3.7260   32.6500   11.6310 C.3   500  ADP500      0.2570
     16  O2'       -4.9780   32.7450   12.3170 O.3   500  ADP500     -0.2130
     17  C1'       -2.7070   33.5920   12.2520 C.3   500  ADP500      0.3186
     18  N9        -1.8950   34.1650   11.1540 N.pl3 500  ADP500     -0.1439
     19  C8        -1.2170   33.4070   10.2760 C.3   500  ADP500      0.3377
     20  N7        -0.5690   34.1820    9.3850 N.2   500  ADP500     -0.2095
     21  C5        -0.8200   35.4670    9.6880 C.2   500  ADP500      0.2526
     22  C6        -0.4310   36.7840    9.1300 C.2   500  ADP500      0.4393
     23  N6         0.3730   36.8580    8.0600 N.pl3 500  ADP500      0.2180
     24  N1        -0.9180   37.8970    9.7170 N.2   500  ADP500      0.0021
     25  C2        -1.7280   37.8100   10.7930 C.3   500  ADP500      0.5254
     26  N3        -2.1210   36.6430   11.3520 N.2   500  ADP500     -0.0055
     27  C4        -1.7080   35.4540   10.8540 C.2   500  ADP500      0.3518
@<TRIPOS>BOND
     1    23    22    1
     2    22    21    1
     3    22    24    2
     4    20    21    2
     5    20    19    1
     6    21    27    1
     7    24    25    1
     8     6     5    2
     9    19    18    1
    10     7     5    1
    11    25    26    1
    12     2     1    2
    13    27    18    1
    14    27    26    2
    15     5     9    1
    16     5     8    1
    17    18    17    1
    18    15    13    1
    19    15    17    1
    20    15    16    1
    21     9    10    1
    22    13    14    1
    23    13    11    1
    24     8     1    1
    25     1     4    1
    26     1     3    1
    27    17    12    1
    28    10    11    1
    29    12    11    1
