@<TRIPOS>MOLECULE
3akl_ADP_C_1.pdb
 27 29 0 0 0
SMALL
GASTEIGER

@<TRIPOS>ATOM
      1  PB        30.8920   33.2670   -1.7740 P.3   500  ADP500      0.5373
      2  O1B       31.4470   32.5680   -3.0090 O.2   500  ADP500     -0.2221
      3  O2B       31.2770   32.6900   -0.4300 O.3   500  ADP500     -0.1143
      4  O3B       29.4210   33.6020   -1.9150 O.3   500  ADP500     -0.1143
      5  PA        31.2440   35.9670   -2.4540 P.3   500  ADP500      0.2231
      6  O1A       32.2370   36.4110   -3.5120 O.2   500  ADP500     -0.5169
      7  O2A       29.7860   35.8060   -2.8240 O.3   500  ADP500     -0.4370
      8  O3A       31.6870   34.6580   -1.6360 O.3   500  ADP500     -0.2261
      9  O5'       31.2290   37.0710   -1.3150 O.3   500  ADP500     -0.3111
     10  C5'       30.3210   38.0530   -1.7390 C.3   500  ADP500      0.1813
     11  C4'       29.7620   38.7990   -0.5700 C.3   500  ADP500      0.1821
     12  O4'       30.7880   39.6770   -0.1220 O.3   500  ADP500     -0.3135
     13  C3'       28.6330   39.6210   -1.1410 C.3   500  ADP500      0.2184
     14  O3'       27.5020   39.5770   -0.2580 O.3   500  ADP500     -0.2174
     15  C2'       29.1890   41.0200   -1.2300 C.3   500  ADP500      0.2570
     16  O2'       28.3540   41.8340   -0.4090 O.3   500  ADP500     -0.2130
     17  C1'       30.6060   40.9790   -0.6650 C.3   500  ADP500      0.3186
     18  N9        31.6270   41.1610   -1.7380 N.pl3 500  ADP500     -0.1439
     19  C8        31.9560   40.2180   -2.6430 C.3   500  ADP500      0.3377
     20  N7        32.9030   40.6470   -3.5010 N.2   500  ADP500     -0.2095
     21  C5        33.2040   41.9090   -3.1530 C.2   500  ADP500      0.2526
     22  C6        34.1430   42.9400   -3.6600 C.2   500  ADP500      0.4393
     23  N6        34.9540   42.6920   -4.7320 N.pl3 500  ADP500      0.2180
     24  N1        34.1510   44.1280   -3.0000 N.2   500  ADP500      0.0021
     25  C2        33.3490   44.3770   -1.9360 C.3   500  ADP500      0.5254
     26  N3        32.4770   43.4860   -1.4260 N.2   500  ADP500     -0.0055
     27  C4        32.3630   42.2520   -1.9870 C.2   500  ADP500      0.3518
@<TRIPOS>BOND
     1    23    22    1
     2    22    21    1
     3    22    24    2
     4     6     5    2
     5    20    21    2
     6    20    19    1
     7    21    27    1
     8     2     1    2
     9    24    25    1
    10     7     5    1
    11    19    18    1
    12     5     8    1
    13     5     9    1
    14    27    18    1
    15    27    26    2
    16    25    26    1
    17     4     1    1
    18     1     8    1
    19     1     3    1
    20    10     9    1
    21    10    11    1
    22    18    17    1
    23    15    13    1
    24    15    17    1
    25    15    16    1
    26    13    11    1
    27    13    14    1
    28    17    12    1
    29    11    12    1
