@<TRIPOS>MOLECULE
3akl_ANP_A_1.pdb
 31 33 0 0 0
SMALL
GASTEIGER

@<TRIPOS>ATOM
      1  PG        14.5200    2.8950   34.8130 P.3   601  ANP601      0.4884
      2  O1G       14.6850    2.1190   36.0600 O.3   601  ANP601     -0.1240
      3  O2G       14.2390    4.4740   35.1430 O.3   601  ANP601     -0.1240
      4  O3G       13.1810    2.4250   33.9160 O.2   601  ANP601     -0.2331
      5  PB        17.2630    2.4750   34.3360 P.3   601  ANP601      0.4669
      6  O1B       18.2170    2.1820   33.2410 O.2   601  ANP601     -0.2351
      7  O2B       17.5830    3.5610   35.2850 O.3   601  ANP601     -0.1253
      8  N3B       15.7830    2.7600   33.7330 N.3   601  ANP601     -0.0163
      9  PA        18.0790   -0.1300   35.0390 P.3   601  ANP601      0.2220
     10  O1A       19.4450    0.3940   35.1500 O.2   601  ANP601     -0.5170
     11  O2A       17.7290   -1.2720   35.8520 O.3   601  ANP601     -0.4370
     12  O3A       17.0590    1.1110   35.2230 O.3   601  ANP601     -0.2360
     13  O5'       17.7560   -0.5020   33.5500 O.3   601  ANP601     -0.3111
     14  C5'       18.2200   -1.7300   33.0710 C.3   601  ANP601      0.1813
     15  C4'       17.0720   -2.6280   32.6310 C.3   601  ANP601      0.1821
     16  O4'       17.7070   -3.8490   32.1620 O.3   601  ANP601     -0.3135
     17  C3'       16.1150   -3.0230   33.7630 C.3   601  ANP601      0.2184
     18  O3'       14.8010   -2.5020   33.5090 O.3   601  ANP601     -0.2174
     19  C2'       16.0670   -4.5410   33.6880 C.3   601  ANP601      0.2570
     20  O2'       15.0330   -4.9040   32.7830 O.3   601  ANP601     -0.2130
     21  C1'       17.3920   -4.9600   33.0550 C.3   601  ANP601      0.3186
     22  N9        18.5280   -5.2510   34.0020 N.pl3 601  ANP601     -0.1439
     23  C8        18.9840   -4.4650   34.9800 C.3   601  ANP601      0.3377
     24  N7        20.0100   -5.0580   35.5880 N.2   601  ANP601     -0.2095
     25  C5        20.2270   -6.2330   34.9990 C.2   601  ANP601      0.2526
     26  C6        21.1380   -7.2710   35.2030 C.2   601  ANP601      0.4393
     27  N6        22.0500   -7.1960   36.1640 N.pl3 601  ANP601      0.2180
     28  N1        21.0800   -8.3570   34.4160 N.2   601  ANP601      0.0021
     29  C2        20.1690   -8.4400   33.4590 C.3   601  ANP601      0.5254
     30  N3        19.2820   -7.4750   33.2310 N.2   601  ANP601     -0.0055
     31  C4        19.2850   -6.3560   33.9830 C.2   601  ANP601      0.3518
@<TRIPOS>BOND
     1    16    15    1
     2    16    21    1
     3    15    14    1
     4    15    17    1
     5    20    19    1
     6    21    19    1
     7    21    22    1
     8    14    13    1
     9    30    29    1
    10    30    31    2
    11     6     5    2
    12    29    28    1
    13    18    17    1
    14    13     9    1
    15    19    17    1
    16     8     5    1
    17     8     1    1
    18     4     1    2
    19    31    22    1
    20    31    25    1
    21    22    23    1
    22     5    12    1
    23     5     7    1
    24    28    26    2
    25     1     3    1
    26     1     2    1
    27    23    24    1
    28    25    26    1
    29    25    24    2
    30     9    10    2
    31     9    12    1
    32     9    11    1
    33    26    27    1
