@<TRIPOS>MOLECULE
3akm_11D_A_1.pdb
 30 31 0 0 0
SMALL
GASTEIGER

@<TRIPOS>ATOM
      1  C1        14.4650  -14.9320   24.4740 C.ar  132  11D132      0.0013
      2  C2        14.3470  -13.5550   24.5320 C.ar  132  11D132      0.0146
      3  C3        15.5620  -12.7210   24.3310 C.ar  132  11D132      0.0199
      4  C4        16.8770  -13.3540   24.0710 C.ar  132  11D132      0.1236
      5  C5        16.8430  -14.7330   24.0380 C.ar  132  11D132      0.0200
      6  C6        15.6930  -15.4990   24.2160 C.ar  132  11D132      0.0014
      7  C7        13.0360  -12.8780   24.8200 C.ar  132  11D132      0.0479
      8  C8        13.0060  -11.4850   24.8680 C.ar  132  11D132      0.0145
      9  C9        14.1750  -10.7520   24.6660 C.ar  132  11D132      0.0013
     10  C10       15.4250  -11.3450   24.4120 C.ar  132  11D132      0.0014
     11  N11       11.8170  -13.5540   24.9870 N.pl3 132  11D132     -0.3041
     12  C12       11.3530  -14.4510   23.9380 C.3   132  11D132      0.1122
     13  C13       10.9710  -13.2400   26.1340 C.3   132  11D132      0.1122
     14  S14       18.3090  -12.5510   23.8260 S.O2  132  11D132      0.0768
     15  O15       19.3080  -13.6030   23.6110 O.2   132  11D132     -0.1516
     16  O16       18.2590  -11.6780   22.6690 O.2   132  11D132     -0.1516
     17  N17       18.6530  -11.5730   25.0560 N.3   132  11D132     -0.0778
     18  C18       18.9410  -12.1080   26.3610 C.3   132  11D132      0.1155
     19  C19       20.4020  -12.4870   26.3400 C.3   132  11D132      0.0208
     20  C20       20.8750  -12.7820   27.7340 C.3   132  11D132      0.0015
     21  C21       22.2630  -13.3940   27.5730 C.3   132  11D132      0.0000
     22  C22       23.1110  -13.2520   28.8000 C.3   132  11D132      0.0000
     23  C23       23.7130  -14.5700   29.2080 C.3   132  11D132      0.0000
     24  C24       24.2390  -14.4230   30.6180 C.3   132  11D132      0.0000
     25  C25       23.4300  -15.1550   31.6570 C.3   132  11D132      0.0006
     26  C26       23.0230  -14.1810   32.7160 C.3   132  11D132      0.0118
     27  C27       22.9970  -14.7690   34.0810 C.3   132  11D132      0.1141
     28  C28       23.2610  -13.5470   34.9420 C.2   132  11D132      0.3649
     29  O29       22.4360  -12.5900   35.0530 O.co2 132  11D132     -0.2457
     30  O30       24.3590  -13.4840   35.4760 O.co2 132  11D132     -0.2457
@<TRIPOS>BOND
     1    16    14    2
     2    15    14    2
     3    14     4    1
     4    14    17    1
     5    12    11    1
     6     5     4   ar
     7     5     6   ar
     8     4     3   ar
     9     6     1   ar
    10     3    10   ar
    11     3     2   ar
    12    10     9   ar
    13     1     2   ar
    14     2     7   ar
    15     9     8   ar
    16     7     8   ar
    17     7    11    1
    18    11    13    1
    19    17    18    1
    20    19    18    1
    21    19    20    1
    22    21    20    1
    23    21    22    1
    24    22    23    1
    25    23    24    1
    26    24    25    1
    27    25    26    1
    28    26    27    1
    29    27    28    1
    30    28    29   ar
    31    28    30   ar
