@<TRIPOS>MOLECULE
3akn_11D_A_1.pdb
 30 31 0 0 0
SMALL
GASTEIGER

@<TRIPOS>ATOM
      1  C1        23.2000  -20.3790    8.6810 C.ar  132  11D132      0.0013
      2  C2        23.6440  -19.0950    9.0310 C.ar  132  11D132      0.0146
      3  C3        22.6790  -17.9800    9.2350 C.ar  132  11D132      0.0199
      4  C4        21.2250  -18.2740    9.0470 C.ar  132  11D132      0.1236
      5  C5        20.8880  -19.5970    8.7240 C.ar  132  11D132      0.0200
      6  C6        21.8390  -20.5990    8.5380 C.ar  132  11D132      0.0014
      7  C7        25.0830  -18.7900    9.1850 C.ar  132  11D132      0.0479
      8  C8        25.4520  -17.5000    9.5580 C.ar  132  11D132      0.0145
      9  C9        24.5040  -16.4800    9.7510 C.ar  132  11D132      0.0013
     10  C10       23.1310  -16.7060    9.5850 C.ar  132  11D132      0.0014
     11  N11       26.1020  -19.7400    9.1130 N.pl3 132  11D132     -0.3041
     12  C12       26.0460  -20.8440   10.0480 C.3   132  11D132      0.1122
     13  C13       27.3450  -19.5530    8.3710 C.3   132  11D132      0.1122
     14  S14       20.0800  -17.1490    9.2570 S.O2  132  11D132      0.0768
     15  O15       20.1700  -16.5470   10.5600 O.2   132  11D132     -0.1516
     16  O16       18.8010  -17.7560    9.0120 O.2   132  11D132     -0.1516
     17  N17       20.2190  -16.0120    8.1390 N.3   132  11D132     -0.0778
     18  C18       19.9920  -16.3030    6.7310 C.3   132  11D132      0.1155
     19  C19       18.5310  -16.0770    6.3290 C.3   132  11D132      0.0208
     20  C20       18.3430  -16.3100    4.8410 C.3   132  11D132      0.0015
     21  C21       16.8660  -16.4630    4.4630 C.3   132  11D132      0.0000
     22  C22       16.7920  -16.6730    2.9450 C.3   132  11D132      0.0000
     23  C23       15.3730  -16.5630    2.3770 C.3   132  11D132      0.0000
     24  C24       15.1890  -17.4220    1.1170 C.3   132  11D132      0.0000
     25  C25       16.0460  -16.9610   -0.0610 C.3   132  11D132      0.0006
     26  C26       15.6700  -17.7330   -1.3240 C.3   132  11D132      0.0118
     27  C27       16.5500  -17.3890   -2.5230 C.3   132  11D132      0.1141
     28  C28       16.4380  -15.9490   -2.9730 C.2   132  11D132      0.3649
     29  O29       15.3390  -15.5480   -3.3840 O.co2 132  11D132     -0.2457
     30  O30       17.4380  -15.1890   -2.9240 O.co2 132  11D132     -0.2457
@<TRIPOS>BOND
     1    29    28   ar
     2    28    30   ar
     3    28    27    1
     4    27    26    1
     5    26    25    1
     6    25    24    1
     7    24    23    1
     8    23    22    1
     9    22    21    1
    10    21    20    1
    11    20    19    1
    12    19    18    1
    13    18    17    1
    14    17    14    1
    15    13    11    1
    16     6     1   ar
    17     6     5   ar
    18     1     2   ar
    19     5     4   ar
    20    16    14    2
    21     2     7   ar
    22     2     3   ar
    23     4     3   ar
    24     4    14    1
    25    11     7    1
    26    11    12    1
    27     7     8   ar
    28     3    10   ar
    29    14    15    2
    30     8     9   ar
    31    10     9   ar
