@<TRIPOS>MOLECULE
3akz_GSU_A_1.pdb
 32 34 0 0 0
SMALL
GASTEIGER

@<TRIPOS>ATOM
      1  C2        -5.7110   57.0020    1.3460 C.3   1001  GSU1001     0.5254
      2  S         -0.1000   63.9030    2.4040 S.3   1001  GSU1001     0.0852
      3  N          0.8600   65.8920    6.2830 N.3   1001  GSU1001    -0.1230
      4  CA        -0.1570   64.8340    6.3350 C.3   1001  GSU1001     0.1715
      5  CB        -1.5420   65.4640    6.5320 C.3   1001  GSU1001     0.0403
      6  CG        -2.3560   64.6320    7.5300 C.3   1001  GSU1001     0.1161
      7  CD        -3.6330   65.3560    7.8730 C.2   1001  GSU1001     0.3649
      8  OE1       -4.6240   65.2050    7.1840 O.co2 1001  GSU1001    -0.2457
      9  OE2       -3.6720   66.0880    8.8400 O.co2 1001  GSU1001    -0.2457
     10  C         -0.1330   64.0510    5.0540 C.2   1001  GSU1001     0.2798
     11  O         -0.1310   62.8350    5.0900 O.2   1001  GSU1001    -0.2701
     12  N10       -0.1200   64.7090    3.8640 N.am  1001  GSU1001    -0.0577
     13  O1S        0.9170   62.9150    2.5190 O.3   1001  GSU1001    -0.0508
     14  O2S       -0.1190   64.9230    1.4050 O.3   1001  GSU1001    -0.0508
     15  O5'       -1.4210   63.1180    2.2630 O.3   1001  GSU1001    -0.2230
     16  C5'       -2.5400   64.0240    2.3900 C.3   1001  GSU1001     0.2064
     17  C4'       -3.7900   63.3000    2.9410 C.3   1001  GSU1001     0.1842
     18  O4'       -4.0390   62.1580    2.0600 O.3   1001  GSU1001    -0.3135
     19  C1'       -4.0330   60.9250    2.8470 C.3   1001  GSU1001     0.3186
     20  N9        -3.4440   59.8120    2.0780 N.pl3 1001  GSU1001    -0.1439
     21  C4        -4.0980   58.6680    1.6920 C.2   1001  GSU1001     0.3518
     22  N3        -5.3540   58.1860    1.8520 N.2   1001  GSU1001    -0.0055
     23  N1        -4.8410   56.2440    0.6620 N.2   1001  GSU1001     0.0021
     24  C6        -3.5650   56.6400    0.4510 C.2   1001  GSU1001     0.4393
     25  N6        -2.6880   55.8390   -0.2570 N.pl3 1001  GSU1001     0.2180
     26  C5        -3.1420   57.8980    0.9730 C.2   1001  GSU1001     0.2526
     27  N7        -1.9860   58.6030    0.9630 N.2   1001  GSU1001    -0.2095
     28  C8        -2.1570   59.7230    1.6080 C.3   1001  GSU1001     0.3377
     29  C2'       -3.2270   61.2720    4.0920 C.3   1001  GSU1001     0.2570
     30  O2'       -3.5230   60.4250    5.2040 O.3   1001  GSU1001    -0.2130
     31  C3'       -3.5310   62.7670    4.3730 C.3   1001  GSU1001     0.2185
     32  O3'       -4.7480   62.8060    5.1190 O.3   1001  GSU1001    -0.2174
@<TRIPOS>BOND
     1    25    24    1
     2    24    23    2
     3    24    26    1
     4    23     1    1
     5    27    26    2
     6    27    28    1
     7    26    21    1
     8     1    22    1
     9    14     2    1
    10    28    20    1
    11    21    22    2
    12    21    20    1
    13    18    19    1
    14    18    17    1
    15    20    19    1
    16    15    16    1
    17    15     2    1
    18    16    17    1
    19     2    13    1
    20     2    12    1
    21    19    29    1
    22    17    31    1
    23    12    10   am
    24    29    31    1
    25    29    30    1
    26    31    32    1
    27    10    11    2
    28    10     4    1
    29     3     4    1
    30     4     5    1
    31     5     6    1
    32     8     7   ar
    33     6     7    1
    34     7     9   ar
