@<TRIPOS>MOLECULE
3al0_GSU_C_1.pdb
 32 34 0 0 0
SMALL
GASTEIGER

@<TRIPOS>ATOM
      1  C2        13.8810    7.9860   31.2890 C.3   1001  GSU1001     0.5254
      2  S         20.7900   10.2180   26.7180 S.3   1001  GSU1001     0.0852
      3  N         22.3140    9.5170   22.6880 N.3   1001  GSU1001    -0.1230
      4  CA        20.8440    9.5410   22.7150 C.3   1001  GSU1001     0.1715
      5  CB        20.3160    8.1340   22.4150 C.3   1001  GSU1001     0.0403
      6  CG        18.8990    8.2150   21.8410 C.3   1001  GSU1001     0.1161
      7  CD        18.5210    6.9170   21.1820 C.2   1001  GSU1001     0.3649
      8  OE1       18.1420    5.9900   21.8860 O.co2 1001  GSU1001    -0.2457
      9  OE2       18.5920    6.7980   19.9450 O.co2 1001  GSU1001    -0.2457
     10  C         20.3810    9.9860   24.0790 C.2   1001  GSU1001     0.2798
     11  O         19.2960   10.5180   24.2080 O.2   1001  GSU1001    -0.2701
     12  N10       21.1920    9.7790   25.1540 N.am  1001  GSU1001    -0.0577
     13  O1S       20.2160   11.5300   26.6660 O.3   1001  GSU1001    -0.0508
     14  O2S       21.9430    9.8710   27.4870 O.3   1001  GSU1001    -0.0508
     15  O5'       19.6430    9.3190   27.2170 O.3   1001  GSU1001    -0.2230
     16  C5'       19.8930    7.9310   26.8850 C.3   1001  GSU1001     0.2064
     17  C4'       18.5520    7.1740   26.7760 C.3   1001  GSU1001     0.1842
     18  O4'       17.8200    7.4800   27.9880 O.3   1001  GSU1001    -0.3135
     19  C1'       16.5600    8.0890   27.6590 C.3   1001  GSU1001     0.3186
     20  N9        16.1860    9.1230   28.6590 N.pl3 1001  GSU1001    -0.1439
     21  C4        15.3180    8.9270   29.7190 C.2   1001  GSU1001     0.3518
     22  N3        14.7030    7.8640   30.2530 N.2   1001  GSU1001    -0.0055
     23  N1        13.6230    9.1600   31.8500 N.2   1001  GSU1001     0.0021
     24  C6        14.1890   10.2840   31.4000 C.2   1001  GSU1001     0.4393
     25  N6        13.8950   11.4870   32.0110 N.pl3 1001  GSU1001     0.2180
     26  C5        15.0900   10.2040   30.2830 C.2   1001  GSU1001     0.2526
     27  N7        15.8360   11.0920   29.5650 N.2   1001  GSU1001    -0.2095
     28  C8        16.4840   10.4620   28.6190 C.3   1001  GSU1001     0.3377
     29  C2'       16.7780    8.6510   26.2590 C.3   1001  GSU1001     0.2570
     30  O2'       15.5940    8.8140   25.5160 O.3   1001  GSU1001    -0.2130
     31  C3'       17.7420    7.6890   25.5660 C.3   1001  GSU1001     0.2185
     32  O3'       16.9450    6.6280   25.0160 O.3   1001  GSU1001    -0.2174
@<TRIPOS>BOND
     1     9     7   ar
     2     7     6    1
     3     7     8   ar
     4     6     5    1
     5     5     4    1
     6     3     4    1
     7     4    10    1
     8    10    11    2
     9    10    12   am
    10    32    31    1
    11    12     2    1
    12    30    29    1
    13    31    29    1
    14    31    17    1
    15    29    19    1
    16    13     2    1
    17     2    15    1
    18     2    14    1
    19    17    16    1
    20    17    18    1
    21    16    15    1
    22    19    18    1
    23    19    20    1
    24    28    20    1
    25    28    27    1
    26    20    21    1
    27    27    26    2
    28    21    22    2
    29    21    26    1
    30    22     1    1
    31    26    24    1
    32     1    23    1
    33    24    23    2
    34    24    25    1
