@<TRIPOS>MOLECULE
3al6_AKG_B_1.pdb
 10 9 0 0 0
SMALL
GASTEIGER

@<TRIPOS>ATOM
      1  C1       -64.4100  -19.4220   -1.7340 C.2   501  AKG501      0.4219
      2  O1       -65.1990  -18.6980   -1.0870 O.co2 501  AKG501     -0.2373
      3  O2       -64.5700  -20.6720   -1.7740 O.co2 501  AKG501     -0.2373
      4  C2       -63.2410  -18.8350   -2.5200 C.2   501  AKG501      0.2526
      5  O5       -62.4640  -19.5670   -3.1430 O.2   501  AKG501     -0.2843
      6  C3       -63.1220  -17.2870   -2.4710 C.3   501  AKG501      0.0881
      7  C4       -61.7650  -16.8230   -3.0220 C.3   501  AKG501      0.1224
      8  C5       -61.7350  -15.2770   -2.9780 C.2   501  AKG501      0.3653
      9  O3       -62.8370  -14.7050   -2.8690 O.co2 501  AKG501     -0.2456
     10  O4       -60.6330  -14.6910   -3.0730 O.co2 501  AKG501     -0.2456
@<TRIPOS>BOND
     1     5     4    2
     2    10     8   ar
     3     7     8    1
     4     7     6    1
     5     8     9   ar
     6     4     6    1
     7     4     1    1
     8     3     1   ar
     9     1     2   ar
