@<TRIPOS>MOLECULE
3alg_NAG_A_1.pdb
 14 14 0 0 0
SMALL
GASTEIGER

@<TRIPOS>ATOM
      1  C1        47.1230   29.3760   22.0580 C.3   355  NAG355      0.1665
      2  C2        46.2250   28.6510   21.0610 C.3   355  NAG355      0.1576
      3  C3        44.8120   28.4360   21.5910 C.3   355  NAG355      0.2069
      4  C4        44.7640   27.9430   23.0440 C.3   355  NAG355      0.2134
      5  C5        45.8060   28.6430   23.9220 C.3   355  NAG355      0.1809
      6  C6        45.9770   27.9130   25.2520 C.3   355  NAG355      0.2141
      7  C7        46.8360   28.9300   18.7340 C.2   355  NAG355      0.2420
      8  C8        46.6800   29.7270   17.4730 C.3   355  NAG355      0.0964
      9  N2        46.1500   29.3550   19.7890 N.am  355  NAG355     -0.2019
     10  O3        44.1760   27.5050   20.7410 O.3   355  NAG355     -0.2184
     11  O4        43.4950   28.2590   23.5790 O.3   355  NAG355     -0.2176
     12  O5        47.0730   28.6930   23.2960 O.3   355  NAG355     -0.3489
     13  O6        46.8730   28.6360   26.0670 O.3   355  NAG355     -0.2176
     14  O7        47.5670   27.9370   18.7710 O.2   355  NAG355     -0.2733
@<TRIPOS>BOND
     1     8     7    1
     2     7    14    2
     3     7     9   am
     4     9     2    1
     5    10     3    1
     6     2     3    1
     7     2     1    1
     8     3     4    1
     9     1    12    1
    10     4    11    1
    11     4     5    1
    12    12     5    1
    13     5     6    1
    14     6    13    1
