@<TRIPOS>MOLECULE
3ali_5PR_A_1.pdb
 13 13 0 0 0
SMALL
GASTEIGER

@<TRIPOS>ATOM
      1  N1       -22.5230   12.1180   19.9400 N.ar  381  5PR381     -0.2447
      2  C2       -21.2770   11.6250   19.8770 C.ar  381  5PR381      0.0979
      3  C3       -20.5480   11.7320   18.6910 C.ar  381  5PR381      0.2078
      4  O3       -19.2410   11.2940   18.6680 O.3   381  5PR381     -0.2856
      5  C4       -21.1030   12.3920   17.5440 C.ar  381  5PR381      0.0586
      6  C5       -22.3890   12.8830   17.6860 C.ar  381  5PR381      0.1004
      7  C6       -23.1090   12.7510   18.9100 C.ar  381  5PR381      0.1050
      8  C2A      -20.6410   10.9660   21.1000 C.3   381  5PR381      0.0555
      9  C4A      -20.2590   12.5180   16.1910 C.3   381  5PR381      0.2121
     10  O4A      -18.9310   12.4420   16.7910 O.3   381  5PR381     -0.2151
     11  O51      -22.8830   13.0840   15.2920 O.co2 381  5PR381     -0.2405
     12  O52      -24.0870   14.2350   16.7800 O.co2 381  5PR381     -0.2405
     13  C5A      -23.1070   13.5240   16.4680 C.2   381  5PR381      0.3891
@<TRIPOS>BOND
     1    11    13   ar
     2     9    10    1
     3     9     5    1
     4    13    12   ar
     5    13     6    1
     6     5     6   ar
     7     5     3   ar
     8     6     7   ar
     9     4     3    1
    10     3     2   ar
    11     7     1   ar
    12     2     1   ar
    13     2     8    1
