@<TRIPOS>MOLECULE
3alt_MLB_A_1.pdb
 23 24 0 0 0
SMALL
GASTEIGER

@<TRIPOS>ATOM
      1  C1        18.2520  -38.2240   32.3440 C.3   301  MLB301      0.2695
      2  O1        18.5330  -38.2650   33.7780 O.3   301  MLB301     -0.3259
      3  C2        19.3930  -37.8210   31.4490 C.3   301  MLB301      0.2406
      4  O2        20.4610  -38.6760   31.8150 O.3   301  MLB301     -0.2149
      5  C3        19.6680  -36.3320   31.6280 C.3   301  MLB301      0.2198
      6  O3        20.5320  -35.9570   30.5540 O.3   301  MLB301     -0.2174
      7  C4        18.3620  -35.5240   31.5500 C.3   301  MLB301      0.2144
      8  O4        17.8300  -35.6280   30.2250 O.3   301  MLB301     -0.2176
      9  C5        17.3150  -36.0530   32.5310 C.3   301  MLB301      0.1835
     10  O5        17.0980  -37.3860   32.1620 O.3   301  MLB301     -0.3256
     11  C6        15.9670  -35.3300   32.5510 C.3   301  MLB301      0.2142
     12  O6        15.3290  -35.2650   31.2730 O.3   301  MLB301     -0.2176
     13  C1'       18.4560  -40.4230   37.0610 C.3   301  MLB301      0.3024
     14  O1'       17.2700  -41.2480   37.0950 O.3   301  MLB301     -0.1869
     15  C2'       19.0090  -40.0180   38.4190 C.3   301  MLB301      0.2434
     16  O2'       18.0340  -40.2000   39.4400 O.3   301  MLB301     -0.2148
     17  C3'       19.4890  -38.5680   38.4030 C.3   301  MLB301      0.2199
     18  O3'       20.3040  -38.3510   39.5370 O.3   301  MLB301     -0.2174
     19  C4'       20.3000  -38.2490   37.1410 C.3   301  MLB301      0.2143
     20  O4'       20.8210  -36.9130   37.1900 O.3   301  MLB301     -0.2176
     21  C5'       19.2890  -38.3310   36.0180 C.3   301  MLB301      0.1803
     22  O5'       18.1800  -39.1970   36.4070 O.3   301  MLB301     -0.3237
     23  C6'       19.7510  -38.5510   34.5400 C.3   301  MLB301      0.1770
@<TRIPOS>BOND
     1     8     7    1
     2     6     5    1
     3    12    11    1
     4     3     5    1
     5     3     4    1
     6     3     1    1
     7     7     5    1
     8     7     9    1
     9    10     1    1
    10    10     9    1
    11     1     2    1
    12     9    11    1
    13     2    23    1
    14    23    21    1
    15    21    22    1
    16    21    19    1
    17    22    13    1
    18    13    14    1
    19    13    15    1
    20    19    20    1
    21    19    17    1
    22    17    15    1
    23    17    18    1
    24    15    16    1
