@<TRIPOS>MOLECULE
3alu_RAF_A_1.pdb
 34 36 0 0 0
SMALL
GASTEIGER

@<TRIPOS>ATOM
      1  O6'       -1.3340   -4.9870  -52.6690 O.3   158  RAF158     -0.2176
      2  C6'       -1.8850   -6.2270  -52.2280 C.3   158  RAF158      0.2142
      3  C5'       -0.7680   -7.1130  -51.6880 C.3   158  RAF158      0.1835
      4  C4'       -0.3130   -8.1100  -52.7560 C.3   158  RAF158      0.2167
      5  O4'        0.9210   -7.7040  -53.3700 O.3   158  RAF158     -0.2175
      6  C3'       -0.1930   -9.4350  -52.0180 C.3   158  RAF158      0.2381
      7  O3'       -0.4060  -10.5620  -52.8820 O.3   158  RAF158     -0.2150
      8  O2'       -1.2460   -7.8960  -50.5730 O.3   158  RAF158     -0.3272
      9  C2'       -1.2490   -9.3060  -50.9150 C.3   158  RAF158      0.2516
     10  C1'       -0.9100  -10.1910  -49.7050 C.3   158  RAF158      0.2406
     11  O1'        0.3490   -9.7910  -49.1410 O.3   158  RAF158     -0.2149
     12  O1        -2.5480   -9.6490  -51.4380 O.3   158  RAF158     -0.3033
     13  C1        -3.6460   -9.0450  -50.7080 C.3   158  RAF158      0.2713
     14  C2        -4.6660  -10.1090  -50.3260 C.3   158  RAF158      0.2406
     15  O2        -3.9660  -11.2170  -49.7480 O.3   158  RAF158     -0.2149
     16  C3        -5.4370  -10.5690  -51.5590 C.3   158  RAF158      0.2198
     17  O3        -6.4560  -11.4980  -51.1480 O.3   158  RAF158     -0.2174
     18  C4        -6.0840   -9.3920  -52.2780 C.3   158  RAF158      0.2143
     19  O4        -6.6090   -9.8720  -53.5170 O.3   158  RAF158     -0.2176
     20  C5        -5.0860   -8.2710  -52.5800 C.3   158  RAF158      0.1802
     21  O5        -4.2760   -7.9570  -51.4190 O.3   158  RAF158     -0.3257
     22  C6        -5.8420   -7.0580  -53.1700 C.3   158  RAF158      0.1770
     23  O6        -5.0580   -5.8480  -53.1910 O.3   158  RAF158     -0.3259
     24  C1X       -5.6380   -4.7210  -53.8720 C.3   158  RAF158      0.2695
     25  O5X       -6.7520   -4.0990  -53.1630 O.3   158  RAF158     -0.3256
     26  C5X       -6.3890   -3.5940  -51.8650 C.3   158  RAF158      0.1835
     27  C6X       -7.6800   -3.1390  -51.1660 C.3   158  RAF158      0.2142
     28  O6X       -8.3100   -2.1650  -52.0030 O.3   158  RAF158     -0.2176
     29  C4X       -5.3420   -2.4680  -51.9820 C.3   158  RAF158      0.2144
     30  O4X       -5.8840   -1.3690  -52.7230 O.3   158  RAF158     -0.2176
     31  C3X       -4.1310   -2.9880  -52.7670 C.3   158  RAF158      0.2198
     32  O3X       -3.2090   -1.9260  -53.0580 O.3   158  RAF158     -0.2174
     33  C2X       -4.5650   -3.6420  -54.0690 C.3   158  RAF158      0.2406
     34  O2X       -3.3850   -4.2200  -54.6690 O.3   158  RAF158     -0.2149
@<TRIPOS>BOND
     1    34    33    1
     2    33    24    1
     3    33    31    1
     4    24    23    1
     5    24    25    1
     6    19    18    1
     7     5     4    1
     8    23    22    1
     9    22    20    1
    10    25    26    1
    11    32    31    1
    12     7     6    1
    13    31    29    1
    14     4     6    1
    15     4     3    1
    16    30    29    1
    17     1     2    1
    18    20    18    1
    19    20    21    1
    20    18    16    1
    21     2     3    1
    22     6     9    1
    23    28    27    1
    24    29    26    1
    25    26    27    1
    26     3     8    1
    27    16    17    1
    28    16    14    1
    29    12     9    1
    30    12    13    1
    31    21    13    1
    32     9     8    1
    33     9    10    1
    34    13    14    1
    35    14    15    1
    36    10    11    1
