@<TRIPOS>MOLECULE
3am1_ATP_A_1.pdb
 31 33 0 0 0
SMALL
GASTEIGER

@<TRIPOS>ATOM
      1  PG         6.8300   35.9190   64.8040 P.3   301  ATP301      0.5373
      2  O1G        8.2640   36.3740   64.9280 O.3   301  ATP301     -0.1143
      3  O2G        6.4380   35.5230   63.4020 O.2   301  ATP301     -0.2221
      4  O3G        6.3720   34.9480   65.8680 O.3   301  ATP301     -0.1143
      5  PB         5.0710   37.8450   63.8640 P.3   301  ATP301      0.2277
      6  O1B        3.8010   37.0430   63.8350 O.3   301  ATP301     -0.4368
      7  O2B        5.9750   37.8810   62.6690 O.2   301  ATP301     -0.5168
      8  O3B        5.9690   37.2580   65.0640 O.3   301  ATP301     -0.2258
      9  PA         3.4360   39.9370   65.0960 P.3   301  ATP301      0.2189
     10  O1A        3.1170   39.0700   66.2900 O.3   301  ATP301     -0.4371
     11  O2A        2.3160   40.3640   64.1870 O.2   301  ATP301     -0.5170
     12  O3A        4.7370   39.3700   64.2980 O.3   301  ATP301     -0.2700
     13  O5'        4.1690   41.2500   65.6370 O.3   301  ATP301     -0.3112
     14  C5'        5.5330   41.4390   65.2600 C.3   301  ATP301      0.1813
     15  C4'        5.6690   42.9020   64.8970 C.3   301  ATP301      0.1821
     16  O4'        5.4050   43.0930   63.5010 O.3   301  ATP301     -0.3135
     17  C3'        4.6100   43.6600   65.6810 C.3   301  ATP301      0.2184
     18  O3'        5.2160   44.5790   66.5960 O.3   301  ATP301     -0.2174
     19  C2'        3.7790   44.3850   64.6400 C.3   301  ATP301      0.2570
     20  O2'        3.6120   45.7580   65.0060 O.3   301  ATP301     -0.2130
     21  C1'        4.5550   44.2330   63.3360 C.3   301  ATP301      0.3186
     22  N9         3.6190   44.0890   62.1880 N.pl3 301  ATP301     -0.1439
     23  C8         2.8200   43.0360   61.9220 C.3   301  ATP301      0.3377
     24  N7         2.0840   43.2480   60.7980 N.2   301  ATP301     -0.2095
     25  C5         2.4090   44.4680   60.3250 C.2   301  ATP301      0.2526
     26  C6         2.0140   45.3200   59.1710 C.2   301  ATP301      0.4393
     27  N6         1.0950   44.9020   58.2660 N.pl3 301  ATP301      0.2180
     28  N1         2.6040   46.5340   59.0520 N.2   301  ATP301      0.0021
     29  C2         3.5200   46.9720   59.9380 C.3   301  ATP301      0.5254
     30  N3         3.9250   46.2540   61.0020 N.2   301  ATP301     -0.0055
     31  C4         3.4180   45.0190   61.2480 C.2   301  ATP301      0.3518
@<TRIPOS>BOND
     1    27    26    1
     2    28    26    2
     3    28    29    1
     4    26    25    1
     5    29    30    1
     6    25    24    2
     7    25    31    1
     8    24    23    1
     9    30    31    2
    10    31    22    1
    11    23    22    1
    12    22    21    1
    13     7     5    2
    14    21    16    1
    15    21    19    1
    16     3     1    2
    17    16    15    1
    18     6     5    1
    19     5    12    1
    20     5     8    1
    21    11     9    2
    22    12     9    1
    23    19    20    1
    24    19    17    1
    25     1     2    1
    26     1     8    1
    27     1     4    1
    28    15    14    1
    29    15    17    1
    30     9    13    1
    31     9    10    1
    32    14    13    1
    33    17    18    1
