@<TRIPOS>MOLECULE
3am3_TCL_A_1.pdb
 17 18 0 0 0
SMALL
GASTEIGER

@<TRIPOS>ATOM
      1  C1        49.0270   93.8660   33.5340 C.ar  802  TCL802      0.0566
      2  C2        49.6820   94.7760   34.3490 C.ar  802  TCL802      0.0611
      3  C6        49.2550   92.5100   33.6940 C.ar  802  TCL802      0.2307
      4  C5        50.1370   92.0580   34.6720 C.ar  802  TCL802      0.1840
      5  C4        50.8130   92.9740   35.4910 C.ar  802  TCL802      0.0417
      6  C3        50.5840   94.3410   35.3290 C.ar  802  TCL802      0.0147
      7  C11       53.4900   88.9200   32.8460 C.ar  802  TCL802      0.0587
      8  C10       52.8520   88.2070   33.8400 C.ar  802  TCL802      0.0259
      9  C9        51.8000   88.8120   34.4970 C.ar  802  TCL802      0.0929
     10  C8        51.3970   90.1050   34.1570 C.ar  802  TCL802      0.1559
     11  C12       53.1090   90.2070   32.4870 C.ar  802  TCL802      0.0146
     12  C13       52.0560   90.8090   33.1430 C.ar  802  TCL802      0.0392
     13  O7        50.3530   90.7100   34.8190 O.3   802  TCL802     -0.4494
     14 CL14       49.3330   96.5100   34.0890 Cl    802  TCL802     -0.0821
     15 CL15       54.8500   88.1570   32.0000 Cl    802  TCL802     -0.0822
     16 CL16       50.9910   87.8820   35.7910 Cl    802  TCL802     -0.0790
     17  O17       48.5980   91.6440   32.8790 O.3   802  TCL802     -0.2833
@<TRIPOS>BOND
     1    15     7    1
     2    11     7   ar
     3    11    12   ar
     4     7     8   ar
     5    17     3    1
     6    12    10   ar
     7     1     3   ar
     8     1     2   ar
     9     3     4   ar
    10     8     9   ar
    11    14     2    1
    12    10     9   ar
    13    10    13    1
    14     2     6   ar
    15     9    16    1
    16     4    13    1
    17     4     5   ar
    18     6     5   ar
