@<TRIPOS>MOLECULE
3am3_NAD_A_1.pdb
 44 48 0 0 0
SMALL
GASTEIGER

@<TRIPOS>ATOM
      1  PA        51.1240   87.7510   40.5030 P.3   801  NAD801      0.2189
      2  O1A       52.5790   87.5020   40.1880 O.2   801  NAD801     -0.5170
      3  O2A       50.7050   87.9210   41.9480 O.3   801  NAD801     -0.4371
      4  O5B       50.2910   86.5430   39.8330 O.3   801  NAD801     -0.3112
      5  C5B       50.8830   85.7680   38.7870 C.3   801  NAD801      0.1813
      6  C4B       51.0970   84.3360   39.2670 C.3   801  NAD801      0.1821
      7  O4B       51.1170   83.3960   38.1850 O.3   801  NAD801     -0.3135
      8  C3B       52.4370   84.2040   39.9720 C.3   801  NAD801      0.2184
      9  O3B       52.2220   83.9450   41.3610 O.3   801  NAD801     -0.2174
     10  C2B       53.1300   83.0150   39.3330 C.3   801  NAD801      0.2570
     11  O2B       53.6560   82.1420   40.3380 O.3   801  NAD801     -0.2130
     12  C1B       52.0340   82.3470   38.5170 C.3   801  NAD801      0.3186
     13  N9A       52.6060   81.6550   37.3300 N.pl3 801  NAD801     -0.1439
     14  C8A       53.5060   82.1500   36.4750 C.3   801  NAD801      0.3377
     15  N7A       53.7810   81.2080   35.5440 N.2   801  NAD801     -0.2095
     16  C5A       53.0440   80.1150   35.8290 C.2   801  NAD801      0.2526
     17  C6A       52.8790   78.7700   35.2200 C.2   801  NAD801      0.4393
     18  N6A       53.5680   78.4110   34.1110 N.pl3 801  NAD801      0.2180
     19  N1A       52.0210   77.9150   35.8070 N.2   801  NAD801      0.0021
     20  C2A       51.3400   78.2700   36.9070 C.3   801  NAD801      0.5254
     21  N3A       51.4820   79.4830   37.4640 N.2   801  NAD801     -0.0055
     22  C4A       52.3060   80.4040   36.9600 C.2   801  NAD801      0.3518
     23  O3        50.6730   89.0590   39.6710 O.3   801  NAD801     -0.2703
     24  PN        49.1270   89.3920   39.3680 P.3   801  NAD801      0.2189
     25  O1N       49.0440   90.7700   38.7540 O.2   801  NAD801     -0.5170
     26  O2N       48.3330   89.0430   40.6010 O.3   801  NAD801     -0.4371
     27  O5D       48.7390   88.3320   38.2210 O.3   801  NAD801     -0.3112
     28  C5D       47.4840   87.6600   38.2590 C.3   801  NAD801      0.1813
     29  C4D       46.6740   87.8900   36.9790 C.3   801  NAD801      0.1799
     30  O4D       46.0860   89.2030   36.9360 O.3   801  NAD801     -0.3327
     31  C3D       47.5310   87.7520   35.7320 C.3   801  NAD801      0.2158
     32  O3D       46.8590   86.9200   34.7840 O.3   801  NAD801     -0.2175
     33  C2D       47.6120   89.1540   35.1710 C.3   801  NAD801      0.2309
     34  O2D       47.6660   89.0900   33.7430 O.3   801  NAD801     -0.2158
     35  C1D       46.3260   89.8020   35.6600 C.3   801  NAD801      0.2263
     36  N1N       46.3920   91.2680   35.7200 N.pl3 801  NAD801     -0.2787
     37  C2N       47.2750   91.8870   36.5120 C.3   801  NAD801      0.1244
     38  C3N       47.3270   93.2800   36.5610 C.2   801  NAD801      0.0544
     39  C7N       48.3200   93.9670   37.4430 C.2   801  NAD801      0.2818
     40  O7N       48.4970   95.1630   37.3100 O.2   801  NAD801     -0.2670
     41  N7N       48.9810   93.2520   38.3470 N.am  801  NAD801     -0.0839
     42  C4N       46.4010   94.1370   35.7290 C.2   801  NAD801      0.0033
     43  C5N       45.5010   93.3310   34.9240 C.2   801  NAD801      0.0157
     44  C6N       45.5370   91.9450   34.9550 C.2   801  NAD801      0.0633
@<TRIPOS>BOND
     1    34    33    1
     2    18    17    1
     3    32    31    1
     4    43    44    2
     5    43    42    1
     6    44    36    1
     7    33    35    1
     8    33    31    1
     9    17    19    2
    10    17    16    1
    11    15    16    2
    12    15    14    1
    13    35    36    1
    14    35    30    1
    15    36    37    1
    16    42    38    2
    17    31    29    1
    18    19    20    1
    19    16    22    1
    20    14    13    1
    21    37    38    1
    22    38    39    1
    23    20    21    1
    24    30    29    1
    25    22    13    1
    26    22    21    2
    27    29    28    1
    28    40    39    2
    29    13    12    1
    30    39    41   am
    31     7    12    1
    32     7     6    1
    33    27    28    1
    34    27    24    1
    35    12    10    1
    36    25    24    2
    37     5     6    1
    38     5     4    1
    39     6     8    1
    40    10     8    1
    41    10    11    1
    42    24    23    1
    43    24    26    1
    44    23     1    1
    45     4     1    1
    46     8     9    1
    47     2     1    2
    48     1     3    1
