@<TRIPOS>MOLECULE
3am4_FT1_A_1.pdb
 18 19 0 0 0
SMALL
GASTEIGER

@<TRIPOS>ATOM
      1  C1        49.9270   92.0280   34.6080 C.ar  802  FT1802      0.1840
      2  C2        48.9640   92.4190   33.6810 C.ar  802  FT1802      0.2300
      3  C3        48.7210   93.7740   33.4600 C.ar  802  FT1802      0.0485
      4  C4        49.4560   94.7420   34.1550 C.ar  802  FT1802      0.0456
      5  C5        50.4410   94.3580   35.0710 C.ar  802  FT1802      0.0066
      6  C6        50.6770   93.0050   35.3050 C.ar  802  FT1802      0.0409
      7  O7        50.1810   90.6880   34.8180 O.3   802  FT1802     -0.4494
      8  C8        51.2320   90.0940   34.1370 C.ar  802  FT1802      0.1559
      9  C9        51.6520   88.8220   34.4830 C.ar  802  FT1802      0.0929
     10  C10       52.7160   88.2250   33.8030 C.ar  802  FT1802      0.0259
     11  C11       53.3690   88.9130   32.7790 C.ar  802  FT1802      0.0587
     12  C12       52.9640   90.1990   32.4230 C.ar  802  FT1802      0.0146
     13  C13       51.9030   90.7870   33.1010 C.ar  802  FT1802      0.0392
     14  C14       49.1690   96.1760   33.8980 C.2   802  FT1802      0.2343
     15  O15       49.6010   97.0470   34.6400 O.2   802  FT1802     -0.2831
     16 CL1        54.7400   88.1370   31.9150 Cl    802  FT1802     -0.0822
     17 CL9        50.8420   87.9190   35.8050 Cl    802  FT1802     -0.0790
     18  O18       48.2330   91.4870   32.9940 O.3   802  FT1802     -0.2833
@<TRIPOS>BOND
     1    16    11    1
     2    12    11   ar
     3    12    13   ar
     4    11    10   ar
     5    18     2    1
     6    13     8   ar
     7     3     2   ar
     8     3     4   ar
     9     2     1   ar
    10    10     9   ar
    11    14     4    1
    12    14    15    2
    13     8     9   ar
    14     8     7    1
    15     4     5   ar
    16     9    17    1
    17     1     7    1
    18     1     6   ar
    19     5     6   ar
