@<TRIPOS>MOLECULE
3am4_NAD_A_1.pdb
 44 48 0 0 0
SMALL
GASTEIGER

@<TRIPOS>ATOM
      1  PA        50.9560   87.7310   40.4160 P.3   801  NAD801      0.2189
      2  O1A       52.4320   87.4840   40.2040 O.2   801  NAD801     -0.5170
      3  O2A       50.4110   87.9160   41.8160 O.3   801  NAD801     -0.4371
      4  O5B       50.1340   86.5340   39.7110 O.3   801  NAD801     -0.3112
      5  C5B       50.7160   85.7570   38.6660 C.3   801  NAD801      0.1813
      6  C4B       50.9280   84.3360   39.1770 C.3   801  NAD801      0.1821
      7  O4B       50.9460   83.3880   38.1020 O.3   801  NAD801     -0.3135
      8  C3B       52.2500   84.1790   39.9210 C.3   801  NAD801      0.2184
      9  O3B       52.0130   83.9100   41.3060 O.3   801  NAD801     -0.2174
     10  C2B       52.9190   82.9720   39.2990 C.3   801  NAD801      0.2570
     11  O2B       53.4040   82.0890   40.3150 O.3   801  NAD801     -0.2130
     12  C1B       51.8150   82.3180   38.4880 C.3   801  NAD801      0.3186
     13  N9A       52.3740   81.5720   37.3350 N.pl3 801  NAD801     -0.1439
     14  C8A       53.3010   81.9950   36.4560 C.3   801  NAD801      0.3377
     15  N7A       53.5440   81.0070   35.5630 N.2   801  NAD801     -0.2095
     16  C5A       52.7600   79.9590   35.8970 C.2   801  NAD801      0.2526
     17  C6A       52.5520   78.6010   35.3360 C.2   801  NAD801      0.4393
     18  N6A       53.2330   78.1810   34.2450 N.pl3 801  NAD801      0.2180
     19  N1A       51.6590   77.7940   35.9520 N.2   801  NAD801      0.0021
     20  C2A       50.9880   78.2240   37.0370 C.3   801  NAD801      0.5254
     21  N3A       51.1680   79.4510   37.5540 N.2   801  NAD801     -0.0055
     22  C4A       52.0340   80.3230   37.0120 C.2   801  NAD801      0.3518
     23  O3        50.5560   89.0210   39.5400 O.3   801  NAD801     -0.2703
     24  PN        49.0230   89.4180   39.2830 P.3   801  NAD801      0.2189
     25  O1N       48.9910   90.7440   38.5600 O.2   801  NAD801     -0.5170
     26  O2N       48.2660   89.2420   40.5800 O.3   801  NAD801     -0.4371
     27  O5D       48.5150   88.2820   38.2630 O.3   801  NAD801     -0.3112
     28  C5D       47.1950   87.7600   38.3710 C.3   801  NAD801      0.1813
     29  C4D       46.4780   87.8990   37.0340 C.3   801  NAD801      0.1799
     30  O4D       45.8600   89.1860   36.9250 O.3   801  NAD801     -0.3327
     31  C3D       47.4390   87.7680   35.8620 C.3   801  NAD801      0.2158
     32  O3D       46.9240   86.8060   34.9410 O.3   801  NAD801     -0.2175
     33  C2D       47.4580   89.1300   35.2040 C.3   801  NAD801      0.2309
     34  O2D       47.5400   89.0250   33.7800 O.3   801  NAD801     -0.2158
     35  C1D       46.1370   89.7350   35.6320 C.3   801  NAD801      0.2263
     36  N1N       46.2220   91.1970   35.6540 N.pl3 801  NAD801     -0.2787
     37  C2N       47.0770   91.8240   36.4690 C.3   801  NAD801      0.1244
     38  C3N       47.1710   93.2150   36.4970 C.2   801  NAD801      0.0544
     39  C7N       48.1390   93.8860   37.4260 C.2   801  NAD801      0.2818
     40  O7N       48.3770   95.0750   37.2680 O.2   801  NAD801     -0.2670
     41  N7N       48.7070   93.1730   38.3950 N.am  801  NAD801     -0.0839
     42  C4N       46.3100   94.0740   35.6010 C.2   801  NAD801      0.0033
     43  C5N       45.4280   93.2730   34.7630 C.2   801  NAD801      0.0157
     44  C6N       45.4260   91.8850   34.8270 C.2   801  NAD801      0.0633
@<TRIPOS>BOND
     1    34    33    1
     2    18    17    1
     3    43    44    2
     4    43    42    1
     5    44    36    1
     6    32    31    1
     7    33    35    1
     8    33    31    1
     9    17    16    1
    10    17    19    2
    11    15    16    2
    12    15    14    1
    13    42    38    2
    14    35    36    1
    15    35    30    1
    16    36    37    1
    17    31    29    1
    18    16    22    1
    19    19    20    1
    20    14    13    1
    21    37    38    1
    22    38    39    1
    23    30    29    1
    24    22    13    1
    25    22    21    2
    26    29    28    1
    27    20    21    1
    28    40    39    2
    29    13    12    1
    30    39    41   am
    31     7    12    1
    32     7     6    1
    33    27    28    1
    34    27    24    1
    35    12    10    1
    36    25    24    2
    37     5     6    1
    38     5     4    1
    39     6     8    1
    40    24    23    1
    41    24    26    1
    42    10     8    1
    43    10    11    1
    44    23     1    1
    45     4     1    1
    46     8     9    1
    47     2     1    2
    48     1     3    1
