@<TRIPOS>MOLECULE
3am5_TCL_A_1.pdb
 17 18 0 0 0
SMALL
GASTEIGER

@<TRIPOS>ATOM
      1  C1        48.9450   93.9050   33.5050 C.ar  802  TCL802      0.0566
      2  C2        49.5540   94.8280   34.3560 C.ar  802  TCL802      0.0611
      3  C6        49.2210   92.5590   33.6730 C.ar  802  TCL802      0.2307
      4  C5        50.1330   92.1610   34.7710 C.ar  802  TCL802      0.1840
      5  C4        50.7270   93.1120   35.5970 C.ar  802  TCL802      0.0417
      6  C3        50.4290   94.4530   35.3760 C.ar  802  TCL802      0.0147
      7  C11       53.5010   89.0970   32.8930 C.ar  802  TCL802      0.0587
      8  C10       52.8740   88.3320   33.8740 C.ar  802  TCL802      0.0259
      9  C9        51.8330   88.9360   34.5480 C.ar  802  TCL802      0.0929
     10  C8        51.4430   90.3130   34.2130 C.ar  802  TCL802      0.1559
     11  C12       53.1510   90.4020   32.5450 C.ar  802  TCL802      0.0146
     12  C13       52.1080   91.0230   33.2120 C.ar  802  TCL802      0.0392
     13  O7        50.4060   90.8430   34.9310 O.3   802  TCL802     -0.4494
     14 CL14       49.1560   96.5460   34.1040 Cl    802  TCL802     -0.0821
     15 CL15       54.8300   88.3110   32.0430 Cl    802  TCL802     -0.0822
     16 CL16       50.9600   88.0940   35.8490 Cl    802  TCL802     -0.0790
     17  O17       48.6810   91.6220   32.8500 O.3   802  TCL802     -0.2833
@<TRIPOS>BOND
     1    15     7    1
     2    11     7   ar
     3    11    12   ar
     4    17     3    1
     5     7     8   ar
     6    12    10   ar
     7     1     3   ar
     8     1     2   ar
     9     3     4   ar
    10     8     9   ar
    11    14     2    1
    12    10     9   ar
    13    10    13    1
    14     2     6   ar
    15     9    16    1
    16     4    13    1
    17     4     5   ar
    18     6     5   ar
