@<TRIPOS>MOLECULE
3am5_NAD_A_1.pdb
 44 48 0 0 0
SMALL
GASTEIGER

@<TRIPOS>ATOM
      1  PA        50.9920   88.0860   40.5930 P.3   801  NAD801      0.2189
      2  O1A       52.4700   87.8110   40.4420 O.2   801  NAD801     -0.5170
      3  O2A       50.4110   88.4040   41.9520 O.3   801  NAD801     -0.4371
      4  O5B       50.1920   86.8330   39.9750 O.3   801  NAD801     -0.3112
      5  C5B       50.7330   86.0890   38.8820 C.3   801  NAD801      0.1813
      6  C4B       50.9730   84.6540   39.3370 C.3   801  NAD801      0.1821
      7  O4B       51.0090   83.7420   38.2310 O.3   801  NAD801     -0.3135
      8  C3B       52.3030   84.5010   40.0680 C.3   801  NAD801      0.2184
      9  O3B       52.0660   84.1850   41.4450 O.3   801  NAD801     -0.2174
     10  C2B       53.0130   83.3410   39.3920 C.3   801  NAD801      0.2570
     11  O2B       53.5320   82.4310   40.3670 O.3   801  NAD801     -0.2130
     12  C1B       51.9110   82.6860   38.5710 C.3   801  NAD801      0.3186
     13  N9A       52.4590   81.9620   37.3950 N.pl3 801  NAD801     -0.1439
     14  C8A       53.3060   82.4330   36.4660 C.3   801  NAD801      0.3377
     15  N7A       53.5590   81.4470   35.5760 N.2   801  NAD801     -0.2095
     16  C5A       52.8630   80.3540   35.9630 C.2   801  NAD801      0.2526
     17  C6A       52.7010   78.9750   35.4430 C.2   801  NAD801      0.4393
     18  N6A       53.3410   78.5630   34.3190 N.pl3 801  NAD801      0.2180
     19  N1A       51.8930   78.1290   36.1210 N.2   801  NAD801      0.0021
     20  C2A       51.2640   78.5430   37.2300 C.3   801  NAD801      0.5254
     21  N3A       51.4000   79.7840   37.7110 N.2   801  NAD801     -0.0055
     22  C4A       52.1790   80.6930   37.1080 C.2   801  NAD801      0.3518
     23  O3        50.5870   89.2730   39.5840 O.3   801  NAD801     -0.2703
     24  PN        49.0410   89.6730   39.3570 P.3   801  NAD801      0.2189
     25  O1N       48.9880   91.0900   38.8440 O.2   801  NAD801     -0.5170
     26  O2N       48.2800   89.2910   40.6040 O.3   801  NAD801     -0.4371
     27  O5D       48.5810   88.6870   38.1730 O.3   801  NAD801     -0.3112
     28  C5D       47.3180   88.0230   38.2550 C.3   801  NAD801      0.1813
     29  C4D       46.5410   88.2100   36.9550 C.3   801  NAD801      0.1799
     30  O4D       45.9540   89.5210   36.9060 O.3   801  NAD801     -0.3327
     31  C3D       47.4510   88.0840   35.7380 C.3   801  NAD801      0.2158
     32  O3D       46.8350   87.2120   34.7890 O.3   801  NAD801     -0.2175
     33  C2D       47.5210   89.4810   35.1580 C.3   801  NAD801      0.2309
     34  O2D       47.6060   89.4350   33.7320 O.3   801  NAD801     -0.2158
     35  C1D       46.2150   90.0990   35.6230 C.3   801  NAD801      0.2263
     36  N1N       46.2910   91.5650   35.6540 N.pl3 801  NAD801     -0.2787
     37  C2N       47.1380   92.1990   36.4790 C.3   801  NAD801      0.1244
     38  C3N       47.2150   93.5900   36.5060 C.2   801  NAD801      0.0544
     39  C7N       48.1670   94.2850   37.4350 C.2   801  NAD801      0.2818
     40  O7N       48.3710   95.4780   37.2920 O.2   801  NAD801     -0.2670
     41  N7N       48.7660   93.5860   38.3920 N.am  801  NAD801     -0.0839
     42  C4N       46.3510   94.4380   35.6060 C.2   801  NAD801      0.0033
     43  C5N       45.4880   93.6260   34.7680 C.2   801  NAD801      0.0157
     44  C6N       45.4940   92.2400   34.8250 C.2   801  NAD801      0.0633
@<TRIPOS>BOND
     1    34    33    1
     2    18    17    1
     3    43    44    2
     4    43    42    1
     5    32    31    1
     6    44    36    1
     7    33    35    1
     8    33    31    1
     9    17    16    1
    10    17    19    2
    11    15    16    2
    12    15    14    1
    13    42    38    2
    14    35    36    1
    15    35    30    1
    16    36    37    1
    17    31    29    1
    18    16    22    1
    19    19    20    1
    20    14    13    1
    21    37    38    1
    22    38    39    1
    23    30    29    1
    24    29    28    1
    25    22    13    1
    26    22    21    2
    27    20    21    1
    28    40    39    2
    29    13    12    1
    30    39    41   am
    31    27    28    1
    32    27    24    1
    33     7    12    1
    34     7     6    1
    35    12    10    1
    36    25    24    2
    37     5     6    1
    38     5     4    1
    39     6     8    1
    40    24    23    1
    41    24    26    1
    42    10     8    1
    43    10    11    1
    44    23     1    1
    45     4     1    1
    46     8     9    1
    47     2     1    2
    48     1     3    1
