@<TRIPOS>MOLECULE
3am6_RET_A_1.pdb
 20 20 0 0 0
SMALL
GASTEIGER

@<TRIPOS>ATOM
      1  C1        19.0650   -6.5650   17.1480 C.3   301  RET301      0.0183
      2  C2        19.2360   -7.6450   16.0230 C.3   301  RET301      0.0044
      3  C3        19.5630   -7.2080   14.6820 C.3   301  RET301      0.0047
      4  C4        20.5280   -6.0550   14.5820 C.3   301  RET301      0.0217
      5  C5        20.3770   -4.9470   15.6100 C.2   301  RET301     -0.0479
      6  C6        19.6960   -5.1170   16.8350 C.2   301  RET301     -0.0307
      7  C7        19.6700   -3.8950   17.7950 C.2   301  RET301     -0.0052
      8  C8        19.0870   -3.7420   19.0060 C.2   301  RET301     -0.0046
      9  C9        19.2020   -2.6430   19.9660 C.2   301  RET301     -0.0219
     10  C10       18.4360   -2.7360   21.1050 C.2   301  RET301     -0.0043
     11  C11       18.3500   -1.8290   22.2400 C.2   301  RET301     -0.0007
     12  C12       17.4900   -2.0610   23.2450 C.2   301  RET301     -0.0046
     13  C13       17.2410   -1.2390   24.4530 C.2   301  RET301     -0.0261
     14  C14       16.2160   -1.6430   25.2710 C.2   301  RET301     -0.0300
     15  C15       15.5890   -0.9830   26.4360 C.3   301  RET301      0.0304
     16  C16       19.1800   -7.1970   18.5200 C.3   301  RET301      0.0043
     17  C17       17.5420   -6.3960   17.0610 C.3   301  RET301      0.0043
     18  C18       21.0880   -3.6710   15.1620 C.3   301  RET301      0.0260
     19  C19       20.1370   -1.4750   19.7150 C.3   301  RET301      0.0310
     20  C20       18.0180    0.0370   24.6830 C.3   301  RET301      0.0307
@<TRIPOS>BOND
     1     4     3    1
     2     4     5    1
     3     3     2    1
     4    18     5    1
     5     5     6    2
     6     2     1    1
     7     6     1    1
     8     6     7    1
     9    17     1    1
    10     1    16    1
    11     7     8    2
    12     8     9    1
    13    19     9    1
    14     9    10    2
    15    10    11    1
    16    11    12    2
    17    12    13    1
    18    13    20    1
    19    13    14    2
    20    14    15    1
