@<TRIPOS>MOLECULE
3am6_CLR_A_1.pdb
 28 31 0 0 0
SMALL
GASTEIGER

@<TRIPOS>ATOM
      1  C1        16.4130   15.9340   44.1260 C.3   401  CLR401      0.0063
      2  C2        16.2040   17.4570   44.3520 C.3   401  CLR401      0.0335
      3  C3        16.9340   18.2240   43.2270 C.3   401  CLR401      0.1560
      4  C4        16.4740   17.8570   41.7720 C.3   401  CLR401      0.0545
      5  C5        16.6180   16.3300   41.6590 C.2   401  CLR401     -0.0466
      6  C6        17.3200   15.8490   40.6640 C.2   401  CLR401     -0.0345
      7  C7        17.5200   14.3410   40.5050 C.3   401  CLR401      0.0254
      8  C8        16.4030   13.5190   41.1800 C.3   401  CLR401      0.0046
      9  C9        16.2510   13.9530   42.5050 C.3   401  CLR401      0.0038
     10  C10       15.9530   15.4760   42.7080 C.3   401  CLR401      0.0150
     11  C11       15.1690   13.0970   43.2890 C.3   401  CLR401      0.0003
     12  C12       15.5660   11.6050   43.2080 C.3   401  CLR401      0.0000
     13  C13       15.6460   11.1210   41.7620 C.3   401  CLR401      0.0000
     14  C14       16.7270   12.0050   41.0860 C.3   401  CLR401      0.0003
     15  C15       16.8800   11.3130   39.7110 C.3   401  CLR401      0.0000
     16  C16       16.9460    9.8280   40.2020 C.3   401  CLR401      0.0000
     17  C17       16.2050    9.6830   41.5370 C.3   401  CLR401      0.0000
     18  C18       14.2750   11.3190   41.0440 C.3   401  CLR401      0.0000
     19  C19       14.4330   15.6950   42.5180 C.3   401  CLR401      0.0040
     20  C20       15.2230    8.4550   41.5340 C.3   401  CLR401      0.0000
     21  C21       14.4940    8.3420   42.9030 C.3   401  CLR401      0.0000
     22  C22       16.0960    7.1920   41.3160 C.3   401  CLR401      0.0000
     23  C23       15.2990    5.8910   41.3080 C.3   401  CLR401      0.0000
     24  C24       16.2930    4.7390   41.1110 C.3   401  CLR401      0.0000
     25  C25       15.6000    3.3660   41.0890 C.3   401  CLR401      0.0000
     26  C26       16.6690    2.2980   40.8710 C.3   401  CLR401      0.0000
     27  C27       14.8950    3.0770   42.4200 C.3   401  CLR401      0.0000
     28  O1        16.7840   19.6370   43.4260 O.3   401  CLR401     -0.2228
@<TRIPOS>BOND
     1    15    16    1
     2    15    14    1
     3    16    17    1
     4     7     6    1
     5     7     8    1
     6     6     5    2
     7    26    25    1
     8    18    13    1
     9    14     8    1
    10    14    13    1
    11    25    24    1
    12    25    27    1
    13    24    23    1
    14     8     9    1
    15    23    22    1
    16    22    20    1
    17    20    17    1
    18    20    21    1
    19    17    13    1
    20     5     4    1
    21     5    10    1
    22    13    12    1
    23     4     3    1
    24     9    10    1
    25     9    11    1
    26    19    10    1
    27    10     1    1
    28    12    11    1
    29     3    28    1
    30     3     2    1
    31     1     2    1
