@<TRIPOS>MOLECULE
3am7_MGP_A_1.pdb
 33 35 0 0 0
SMALL
GASTEIGER

@<TRIPOS>ATOM
      1  PA        -8.8680   18.8010    5.9080 P.3   1000  MGP1000     0.2189
      2  O1A       -9.3900   20.1820    5.6490 O.3   1000  MGP1000    -0.4371
      3  O2A       -7.6770   18.5670    5.0270 O.2   1000  MGP1000    -0.5170
      4  O3A       -8.4370   18.6360    7.4270 O.3   1000  MGP1000    -0.2700
      5  O5'      -10.0270   17.6840    5.4790 O.3   1000  MGP1000    -0.3112
      6  PB        -9.4160   18.8210    8.6810 P.3   1000  MGP1000     0.2277
      7  O1B      -10.5130   19.7970    8.4060 O.2   1000  MGP1000    -0.5168
      8  O2B       -8.5360   19.2560    9.7700 O.3   1000  MGP1000    -0.4368
      9  O3B      -10.0080   17.5540    9.0710 O.3   1000  MGP1000    -0.2258
     10  PC        -9.4830   16.1060    9.5050 P.3   1000  MGP1000     0.5373
     11  O1C       -9.9760   16.1900   11.0780 O.3   1000  MGP1000    -0.1143
     12  O2C       -7.9700   16.0830    9.4050 O.3   1000  MGP1000    -0.1143
     13  O3C      -10.0150   14.8300    8.8600 O.2   1000  MGP1000    -0.2221
     14  C5'      -11.4070   17.7420    5.8930 C.3   1000  MGP1000     0.1813
     15  C4'      -12.3660   17.2100    4.8910 C.3   1000  MGP1000     0.1799
     16  O4'      -12.3830   18.1810    3.7530 O.3   1000  MGP1000    -0.3326
     17  C3'      -12.0290   15.9170    4.1290 C.3   1000  MGP1000     0.2158
     18  O3'      -12.2460   14.6860    4.8810 O.3   1000  MGP1000    -0.2175
     19  C2'      -12.8910   16.0160    2.9020 C.3   1000  MGP1000     0.2310
     20  O2'      -14.2590   15.5930    3.2200 O.3   1000  MGP1000    -0.2158
     21  C1'      -12.7050   17.4740    2.5000 C.3   1000  MGP1000     0.2287
     22  N9       -11.4910   17.8230    1.6200 N.pl3 1000  MGP1000    -0.2454
     23  C8       -10.2570   18.3570    1.8910 C.3   1000  MGP1000     0.1735
     24  N7        -9.5530   18.4630    0.7870 N.3   1000  MGP1000    -0.2343
     25  CM7       -8.1770   18.9980    0.7290 C.3   1000  MGP1000     0.0924
     26  C5       -10.3070   17.9750   -0.4080 C.3   1000  MGP1000     0.2475
     27  C6       -10.1460   17.8270   -1.7340 C.1   1000  MGP1000     0.2145
     28  O6        -9.0640   18.1530   -2.3740 O.2   1000  MGP1000    -0.2115
     29  N1       -11.2910   17.2640   -2.4150 N.2   1000  MGP1000    -0.2526
     30  C2       -12.5120   16.8710   -1.8310 C.1   1000  MGP1000     0.2525
     31  N2       -13.4680   16.3730   -2.5960 N.pl3 1000  MGP1000    -0.0226
     32  N3       -12.6930   17.0170   -0.4600 N.2   1000  MGP1000    -0.3118
     33  C4       -11.5640   17.5810    0.2670 C.2   1000  MGP1000     0.2086
@<TRIPOS>BOND
     1    31    30    1
     2    29    30    2
     3    29    27    2
     4    28    27    2
     5    30    32    2
     6    27    26    1
     7    32    33    2
     8    26    33    1
     9    26    24    1
    10    33    22    1
    11    25    24    1
    12    24    23    1
    13    22    23    1
    14    22    21    1
    15    21    19    1
    16    21    16    1
    17    19    20    1
    18    19    17    1
    19    16    15    1
    20    17    18    1
    21    17    15    1
    22    15    14    1
    23     3     1    2
    24     5    14    1
    25     5     1    1
    26     2     1    1
    27     1     4    1
    28     4     6    1
    29     7     6    2
    30     6     9    1
    31     6     8    1
    32    13    10    2
    33     9    10    1
    34    12    10    1
    35    10    11    1
