@<TRIPOS>MOLECULE
3am9_FYO_A_1.pdb
 22 24 0 0 0
SMALL
GASTEIGER

@<TRIPOS>ATOM
      1  NAA      -68.1440  -25.7150  -41.6660 N.2   1335  FYO1335    -0.1435
      2  OAB      -72.3460  -26.4520  -30.2690 O.2   1335  FYO1335    -0.2086
      3  OAC      -70.3990  -22.0590  -29.7810 O.2   1335  FYO1335    -0.2130
      4  OAD      -72.6420  -27.9350  -39.2490 O.2   1335  FYO1335    -0.2138
      5  CAE      -68.0870  -25.8230  -40.6120 C.2   1335  FYO1335     0.1550
      6  CAF      -71.2690  -25.4280  -32.0990 C.2   1335  FYO1335     0.1152
      7  CAG      -70.2620  -23.2450  -31.9050 C.3   1335  FYO1335     0.1737
      8  CAH      -71.4160  -26.6030  -37.7650 C.3   1335  FYO1335     0.1722
      9  CAI      -69.2800  -25.6380  -38.3560 C.2   1335  FYO1335     0.0426
     10  NAJ      -69.1580  -23.8080  -34.6330 N.2   1335  FYO1335    -0.0714
     11  NAK      -71.3690  -24.2480  -30.0170 N.2   1335  FYO1335    -0.2614
     12  NAL      -70.4930  -27.0470  -40.0040 N.2   1335  FYO1335    -0.3344
     13  NAM      -70.7340  -25.3550  -34.9900 N.2   1335  FYO1335    -0.2954
     14  NAN      -69.1290  -24.2520  -35.9910 N.2   1335  FYO1335    -0.0715
     15  CAO      -71.6640  -25.3630  -30.7680 C.1   1335  FYO1335     0.2158
     16  CAP      -70.6860  -23.1820  -30.5510 C.1   1335  FYO1335     0.1964
     17  CAQ      -71.4910  -27.2020  -39.0380 C.1   1335  FYO1335     0.1855
     18  CAR      -69.2470  -26.3330  -39.6190 C.2   1335  FYO1335     0.1654
     19  CAS      -70.5670  -24.3790  -32.6580 C.2   1335  FYO1335     0.0846
     20  CAT      -70.3060  -25.8340  -37.4490 C.2   1335  FYO1335     0.0746
     21  CAU      -70.1680  -24.5090  -34.0700 C.1   1335  FYO1335     0.1164
     22  CAV      -70.1040  -25.1700  -36.1710 C.1   1335  FYO1335     0.1157
@<TRIPOS>BOND
     1     1     5    2
     2     5    18    1
     3    12    18    2
     4    12    17    2
     5    18     9    1
     6     4    17    2
     7    17     8    1
     8     9    20    2
     9     8    20    1
    10    20    22    1
    11    22    14    2
    12    22    13    2
    13    14    10    1
    14    13    21    2
    15    10    21    2
    16    21    19    1
    17    19     6    2
    18    19     7    1
    19     6    15    1
    20     7    16    1
    21    15     2    2
    22    15    11    2
    23    16    11    2
    24    16     3    2
