@<TRIPOS>MOLECULE
3ama_SKE_A_1.pdb
 27 29 0 0 0
SMALL
GASTEIGER

@<TRIPOS>ATOM
      1  S        -28.6830   10.0970   11.9220 S.O2  351  SKE351      0.0935
      2  C1       -32.1560    9.8830    3.7540 C.2   351  SKE351      0.3152
      3  F1       -28.7600   11.7680    5.1630 F     351  SKE351     -0.2039
      4  N1       -32.7050    9.9840    2.5270 N.pl3 351  SKE351     -0.0755
      5  O1       -29.5200   10.0720   13.1440 O.2   351  SKE351     -0.1503
      6  C2       -31.9350    9.7100    5.8650 C.1   351  SKE351      0.1878
      7  F2       -28.0770    7.7870    2.6430 F     351  SKE351     -0.2039
      8  N2       -32.8470    9.7610    4.8840 N.2   351  SKE351     -0.2987
      9  O2       -27.9410   11.4000   11.7950 O.2   351  SKE351     -0.1503
     10  C3       -31.4040    9.6890    8.2320 C.ar  351  SKE351      0.0827
     11  N3       -32.2440    9.5780    7.1800 N.pl3 351  SKE351     -0.1347
     12  O3       -29.9410   10.0090    1.9880 O.2   351  SKE351     -0.2675
     13  C4       -30.0060    9.7340    8.1000 C.ar  351  SKE351      0.0187
     14  N4       -27.6010    8.8890   11.9620 N.3   351  SKE351      0.0392
     15  C5       -29.1850    9.8560    9.2300 C.ar  351  SKE351      0.0214
     16  N5       -30.7180    9.7660    5.3140 N.2   351  SKE351     -0.0867
     17  C6       -29.7490    9.9280   10.5000 C.ar  351  SKE351      0.1251
     18  N6       -30.8520    9.9000    4.0690 N.am  351  SKE351     -0.1003
     19  C7       -31.1380    9.8940   10.6410 C.ar  351  SKE351      0.0214
     20  C8       -31.9640    9.7690    9.5190 C.ar  351  SKE351      0.0187
     21  C9       -29.8050    9.9720    3.2190 C.2   351  SKE351      0.2798
     22  C10      -28.4260    9.7910    3.8830 C.ar  351  SKE351      0.1104
     23  C11      -27.9940   10.7000    4.8540 C.ar  351  SKE351      0.1467
     24  C12      -26.7610   10.5130    5.4890 C.ar  351  SKE351      0.0299
     25  C13      -25.9770    9.4020    5.1640 C.ar  351  SKE351      0.0046
     26  C14      -26.4190    8.4880    4.2010 C.ar  351  SKE351      0.0299
     27  C15      -27.6450    8.6810    3.5630 C.ar  351  SKE351      0.1467
@<TRIPOS>BOND
     1    12    21    2
     2     4     2    1
     3     7    27    1
     4    21    22    1
     5    21    18   am
     6    27    22   ar
     7    27    26   ar
     8     2    18    1
     9     2     8    2
    10    22    23   ar
    11    18    16    1
    12    26    25   ar
    13    23     3    1
    14    23    24   ar
    15     8     6    2
    16    25    24   ar
    17    16     6    2
    18     6    11    1
    19    11    10    1
    20    13    10   ar
    21    13    15   ar
    22    10    20   ar
    23    15    17   ar
    24    20    19   ar
    25    17    19   ar
    26    17     1    1
    27     9     1    2
    28     1    14    1
    29     1     5    2
