@<TRIPOS>MOLECULE
3amb_VX6_A_1.pdb
 33 37 0 0 0
SMALL
GASTEIGER

@<TRIPOS>ATOM
      1  N1       -31.7510   -8.4810  -14.4850 N.3   351  VX6351     -0.2686
      2  C2       -30.3410   -8.6250  -14.0490 C.3   351  VX6351      0.0939
      3  C3       -30.1980   -9.7380  -13.0020 C.3   351  VX6351      0.1102
      4  N4       -31.2820   -9.6310  -11.9610 N.pl3 351  VX6351     -0.2830
      5  C5       -32.6870   -9.3550  -12.4020 C.3   351  VX6351      0.1102
      6  C6       -32.6810   -8.1690  -13.3730 C.3   351  VX6351      0.0939
      7  C7       -31.8180   -7.3730  -15.4420 C.3   351  VX6351      0.0897
      8  C8       -30.9690   -9.7570  -10.5850 C.2   351  VX6351      0.1843
      9  C9       -31.9390   -9.6900   -9.5800 C.3   351  VX6351      0.1825
     10  C10      -31.5570   -9.8070   -8.2360 C.2   351  VX6351      0.3106
     11  N11      -30.2570   -9.9800   -7.9470 N.2   351  VX6351     -0.2951
     12  C12      -29.3410  -10.0380   -8.9290 C.1   351  VX6351      0.1763
     13  N13      -29.6900   -9.9290  -10.2220 N.2   351  VX6351     -0.3233
     14  N14      -32.5020   -9.7340   -7.2890 N.pl3 351  VX6351      0.0224
     15  C15      -32.3900   -9.8650   -5.9520 C.2   351  VX6351      0.3768
     16  C17      -31.3160  -10.1340   -5.1750 C.3   351  VX6351      0.1690
     17  C18      -31.8230  -10.1420   -3.9400 C.2   351  VX6351      0.0959
     18  N19      -33.1240   -9.8830   -3.9940 N.2   351  VX6351     -0.0426
     19  N20      -33.4480   -9.7080   -5.1670 N.2   351  VX6351      0.0793
     20  C21      -31.0840  -10.3970   -2.6180 C.3   351  VX6351      0.0520
     21  S23      -27.6470  -10.2770   -8.5870 S.3   351  VX6351      0.0090
     22  C24      -27.4980   -9.9830   -6.8400 C.ar  351  VX6351      0.0409
     23  C25      -27.4550   -8.6800   -6.3420 C.ar  351  VX6351      0.0085
     24  C26      -27.3360   -8.4440   -4.9640 C.ar  351  VX6351      0.0171
     25  C27      -27.2350   -9.5170   -4.0760 C.ar  351  VX6351      0.0734
     26  C28      -27.2500  -10.8220   -4.5880 C.ar  351  VX6351      0.0171
     27  C29      -27.3850  -11.0570   -5.9610 C.ar  351  VX6351      0.0085
     28  N30      -27.0940   -9.2430   -2.7640 N.am  351  VX6351     -0.1792
     29  C31      -27.1420  -10.0870   -1.7350 C.2   351  VX6351      0.2451
     30  O32      -27.3650  -11.3040   -1.7980 O.2   351  VX6351     -0.2730
     31  C33      -26.9200   -9.4060   -0.3990 C.3   351  VX6351      0.0786
     32  C34      -27.8110   -9.9280    0.7480 C.3   351  VX6351      0.0096
     33  C35      -26.3100  -10.2760    0.7060 C.3   351  VX6351      0.0096
@<TRIPOS>BOND
     1     7     1    1
     2     1     2    1
     3     1     6    1
     4     2     3    1
     5     6     5    1
     6     3     4    1
     7     5     4    1
     8     4     8    1
     9     8    13    2
    10     8     9    1
    11    13    12    2
    12     9    10    1
    13    12    21    1
    14    12    11    2
    15    21    22    1
    16    10    11    2
    17    10    14    1
    18    14    15    1
    19    22    23   ar
    20    22    27   ar
    21    23    24   ar
    22    27    26   ar
    23    15    16    1
    24    15    19    2
    25    16    17    1
    26    19    18    1
    27    24    25   ar
    28    26    25   ar
    29    25    28    1
    30    18    17    2
    31    17    20    1
    32    28    29   am
    33    30    29    2
    34    29    31    1
    35    31    33    1
    36    31    32    1
    37    33    32    1
