@<TRIPOS>MOLECULE
3amf_FMN_A_1.pdb
 31 33 0 0 0
SMALL
GASTEIGER

@<TRIPOS>ATOM
      1  N1        -6.3810   -0.8750  -19.9560 N.2   123  FMN123     -0.2887
      2  C2        -5.6110   -1.0700  -18.8060 C.1   123  FMN123      0.3669
      3  O2        -5.7940   -2.0640  -18.1110 O.2   123  FMN123     -0.1744
      4  N3        -4.6290   -0.1410  -18.4540 N.2   123  FMN123     -0.2300
      5  C4        -4.4210    0.9940  -19.2320 C.1   123  FMN123      0.2513
      6  O4        -3.5450    1.7930  -18.8970 O.2   123  FMN123     -0.2057
      7  C4A       -5.1910    1.1930  -20.3780 C.2   123  FMN123      0.2703
      8  N5        -4.9970    2.3240  -21.1690 N.2   123  FMN123     -0.3882
      9  C5A       -5.5720    2.3830  -22.4370 C.2   123  FMN123      0.1277
     10  C6        -5.1700    3.3810  -23.3190 C.3   123  FMN123      0.0820
     11  C7        -5.7380    3.4430  -24.5880 C.2   123  FMN123     -0.0408
     12  C7M       -5.2800    4.5360  -25.5560 C.3   123  FMN123      0.0265
     13  C8        -6.7140    2.5130  -24.9670 C.2   123  FMN123     -0.0280
     14  C8M       -7.3640    2.5530  -26.3490 C.3   123  FMN123      0.0304
     15  C9        -7.1170    1.5220  -24.0800 C.2   123  FMN123      0.0123
     16  C9A       -6.5540    1.4600  -22.8060 C.2   123  FMN123      0.0793
     17  N10       -6.9300    0.4440  -21.9040 N.pl3 123  FMN123     -0.2545
     18  C10       -6.1780    0.2700  -20.7350 C.2   123  FMN123      0.2449
     19  C1'       -7.8810   -0.6240  -22.3180 C.3   123  FMN123      0.1336
     20  C2'       -7.0940   -1.8610  -22.8310 C.3   123  FMN123      0.2048
     21  O2'       -6.4820   -1.5730  -24.1020 O.3   123  FMN123     -0.2185
     22  C3'       -7.9540   -3.1300  -22.9660 C.3   123  FMN123      0.2165
     23  O3'       -9.0040   -2.9010  -23.9190 O.3   123  FMN123     -0.2175
     24  C4'       -8.5840   -3.5850  -21.6390 C.3   123  FMN123      0.2147
     25  O4'       -7.6430   -3.5140  -20.5570 O.3   123  FMN123     -0.2176
     26  C5'       -9.1230   -5.0130  -21.7500 C.3   123  FMN123      0.1892
     27  O5'       -8.0290   -5.9190  -21.9160 O.3   123  FMN123     -0.2674
     28  P         -8.2260   -7.4310  -22.3820 P.3   123  FMN123      0.5327
     29  O1P       -8.9040   -7.3910  -23.8360 O.2   123  FMN123     -0.2224
     30  O2P       -9.2990   -8.1060  -21.3750 O.3   123  FMN123     -0.1145
     31  O3P       -6.9040   -8.1100  -22.3640 O.3   123  FMN123     -0.1145
@<TRIPOS>BOND
     1    14    13    1
     2    12    11    1
     3    13    11    2
     4    13    15    1
     5    11    10    1
     6    21    20    1
     7    15    16    2
     8    23    22    1
     9    29    28    2
    10    10     9    1
    11    22    20    1
    12    22    24    1
    13    20    19    1
    14    16     9    1
    15    16    17    1
    16     9     8    2
    17    28    31    1
    18    28    27    1
    19    28    30    1
    20    19    17    1
    21    27    26    1
    22    17    18    1
    23    26    24    1
    24    24    25    1
    25     8     7    2
    26    18     7    1
    27    18     1    2
    28     7     5    1
    29     1     2    2
    30     5     6    2
    31     5     4    2
    32     2     4    2
    33     2     3    2
