@<TRIPOS>MOLECULE
3amg_CBI_B_1.pdb
 23 24 0 0 0
SMALL
GASTEIGER

@<TRIPOS>ATOM
      1  C1         4.5470    4.7440   -5.3190 C.3   402  CBI402      0.2695
      2  C2         5.9390    4.2730   -4.9240 C.3   402  CBI402      0.2406
      3  C3         6.4100    5.0870   -3.7300 C.3   402  CBI402      0.2198
      4  C4         6.3970    6.5560   -4.1150 C.3   402  CBI402      0.2144
      5  C5         4.9820    6.9390   -4.5290 C.3   402  CBI402      0.1835
      6  C6         4.9230    8.4130   -4.9290 C.3   402  CBI402      0.2142
      7  O2         5.9140    2.8780   -4.5900 O.3   402  CBI402     -0.2149
      8  O3         7.7440    4.7020   -3.3640 O.3   402  CBI402     -0.2174
      9  O4         6.8380    7.3540   -3.0070 O.3   402  CBI402     -0.2176
     10  O5         4.5800    6.1390   -5.6540 O.3   402  CBI402     -0.3256
     11  O6         5.2590    9.2390   -3.8100 O.3   402  CBI402     -0.2176
     12  C1'        0.6490    4.5950   -8.7570 C.3   402  CBI402      0.3023
     13  C2'        1.7570    5.6290   -8.8870 C.3   402  CBI402      0.2433
     14  C3'        3.0570    5.0150   -8.3930 C.3   402  CBI402      0.2168
     15  C4'        2.8610    4.5760   -6.9500 C.3   402  CBI402      0.1804
     16  C5'        1.7210    3.5690   -6.9100 C.3   402  CBI402      0.1804
     17  C6'        1.4820    3.1180   -5.4680 C.3   402  CBI402      0.2141
     18  O1'       -0.5920    5.1550   -9.2100 O.3   402  CBI402     -0.1869
     19  O2'        1.9010    6.0050  -10.2640 O.3   402  CBI402     -0.2148
     20  O3'        4.1220    5.9730   -8.4790 O.3   402  CBI402     -0.2175
     21  O4'        4.0730    3.9930   -6.4500 O.3   402  CBI402     -0.3257
     22  O5'        0.5170    4.1900   -7.3860 O.3   402  CBI402     -0.3237
     23  O6'        1.0040    4.2270   -4.7030 O.3   402  CBI402     -0.2176
@<TRIPOS>BOND
     1    19    13    1
     2    18    12    1
     3    13    12    1
     4    13    14    1
     5    12    22    1
     6    20    14    1
     7    14    15    1
     8    22    16    1
     9    15    16    1
    10    15    21    1
    11    16    17    1
    12    21     1    1
    13    10     1    1
    14    10     5    1
    15    17    23    1
    16     1     2    1
    17     6     5    1
    18     6    11    1
    19     2     7    1
    20     2     3    1
    21     5     4    1
    22     4     3    1
    23     4     9    1
    24     3     8    1
