@<TRIPOS>MOLECULE
3amg_BGC_A_1.pdb
 12 12 0 0 0
SMALL
GASTEIGER

@<TRIPOS>ATOM
      1  C2        25.9290   -0.5840    8.4300 C.3   400  BGC400      0.2434
      2  C3        25.6660   -2.0740    8.5720 C.3   400  BGC400      0.2199
      3  C4        26.0370   -2.7580    7.2650 C.3   400  BGC400      0.2144
      4  C5        27.4850   -2.4490    6.9220 C.3   400  BGC400      0.1836
      5  C6        27.8330   -3.0630    5.5650 C.3   400  BGC400      0.2142
      6  C1        27.3920   -0.3800    8.0730 C.3   400  BGC400      0.3024
      7  O1        27.6760    1.0230    7.9540 O.3   400  BGC400     -0.1869
      8  O2        25.6410    0.0760    9.6710 O.3   400  BGC400     -0.2148
      9  O3        24.2780   -2.3000    8.8510 O.3   400  BGC400     -0.2174
     10  O4        25.8510   -4.1750    7.3940 O.3   400  BGC400     -0.2176
     11  O5        27.6740   -1.0280    6.8240 O.3   400  BGC400     -0.3236
     12  O6        27.0770   -2.4180    4.5370 O.3   400  BGC400     -0.2176
@<TRIPOS>BOND
     1    12     5    1
     2     5     4    1
     3    11     4    1
     4    11     6    1
     5     4     3    1
     6     3    10    1
     7     3     2    1
     8     7     6    1
     9     6     1    1
    10     1     2    1
    11     1     8    1
    12     2     9    1
