@<TRIPOS>MOLECULE
3amm_CTT_A_1.pdb
 45 48 0 0 0
SMALL
GASTEIGER

@<TRIPOS>ATOM
      1  O1B       53.6080   14.1580   36.5030 O.3   901  CTT901     -0.1869
      2  C1B       52.5520   13.1960   36.5890 C.3   901  CTT901      0.3023
      3  C2B       53.1250   11.7780   36.6580 C.3   901  CTT901      0.2433
      4  O2B       53.9300   11.5270   35.5040 O.3   901  CTT901     -0.2148
      5  C3B       51.9870   10.7560   36.6860 C.3   901  CTT901      0.2168
      6  O3B       52.5610    9.4630   36.9090 O.3   901  CTT901     -0.2175
      7  O5B       51.7890   13.4320   37.7800 O.3   901  CTT901     -0.3237
      8  C5B       50.6480   12.5640   37.8420 C.3   901  CTT901      0.1804
      9  C6B       49.8630   12.8460   39.1270 C.3   901  CTT901      0.2141
     10  O6B       49.7080   14.2520   39.3440 O.3   901  CTT901     -0.2176
     11  C4B       50.9740   11.0760   37.7880 C.3   901  CTT901      0.1804
     12  O4B       49.7340   10.4130   37.5010 O.3   901  CTT901     -0.3257
     13  C1C       49.5220    9.1040   38.0530 C.3   901  CTT901      0.2695
     14  C2C       48.0160    8.8680   37.9230 C.3   901  CTT901      0.2404
     15  O2C       47.3440    9.8310   38.7430 O.3   901  CTT901     -0.2149
     16  C3C       47.5560    7.4560   38.3010 C.3   901  CTT901      0.2167
     17  O3C       46.2210    7.3300   37.7990 O.3   901  CTT901     -0.2175
     18  O5C       50.1660    8.0780   37.2870 O.3   901  CTT901     -0.3257
     19  C5C       49.8580    6.8190   37.9070 C.3   901  CTT901      0.1803
     20  C6C       50.9040    5.7650   37.5390 C.3   901  CTT901      0.2141
     21  O6C       50.9040    4.7850   38.5790 O.3   901  CTT901     -0.2176
     22  C4C       48.4240    6.3510   37.6850 C.3   901  CTT901      0.1804
     23  O4C       48.2190    5.1160   38.4010 O.3   901  CTT901     -0.3257
     24  C1D       47.6420    3.9160   37.8400 C.3   901  CTT901      0.2695
     25  C2D       48.7180    2.8870   37.4550 C.3   901  CTT901      0.2404
     26  O2D       49.0780    3.0270   36.0790 O.3   901  CTT901     -0.2149
     27  C3D       48.3300    1.4190   37.6530 C.3   901  CTT901      0.2167
     28  O3D       49.4950    0.5980   37.5070 O.3   901  CTT901     -0.2175
     29  O5D       46.8910    3.4710   38.9860 O.3   901  CTT901     -0.3257
     30  C5D       46.5520    2.0850   39.1520 C.3   901  CTT901      0.1803
     31  C6D       46.0300    1.9840   40.5870 C.3   901  CTT901      0.2141
     32  O6D       46.9020    2.7590   41.4170 O.3   901  CTT901     -0.2176
     33  C4D       47.7900    1.2080   39.0650 C.3   901  CTT901      0.1804
     34  O4D       47.3860   -0.1570   39.2710 O.3   901  CTT901     -0.3257
     35  C1E       48.3000   -0.9070   40.0870 C.3   901  CTT901      0.2695
     36  C2E       47.5680   -2.1190   40.6720 C.3   901  CTT901      0.2406
     37  O2E       46.4750   -1.6750   41.4790 O.3   901  CTT901     -0.2149
     38  C3E       48.5330   -2.9460   41.5240 C.3   901  CTT901      0.2198
     39  O3E       47.8760   -4.1130   42.0270 O.3   901  CTT901     -0.2174
     40  C4E       49.7040   -3.3730   40.6350 C.3   901  CTT901      0.2144
     41  O4E       50.6890   -4.0120   41.4460 O.3   901  CTT901     -0.2176
     42  O5E       49.3560   -1.4070   39.2530 O.3   901  CTT901     -0.3256
     43  C5E       50.3490   -2.1590   39.9640 C.3   901  CTT901      0.1835
     44  C6E       51.3770   -2.6910   38.9600 C.3   901  CTT901      0.2142
     45  O6E       51.9230   -1.6040   38.2130 O.3   901  CTT901     -0.2176
@<TRIPOS>BOND
     1     4     3    1
     2    26    25    1
     3     1     2    1
     4     2     3    1
     5     2     7    1
     6     3     5    1
     7     5     6    1
     8     5    11    1
     9    18    19    1
    10    18    13    1
    11    25    27    1
    12    25    24    1
    13    12    11    1
    14    12    13    1
    15    28    27    1
    16    20    19    1
    17    20    21    1
    18    27    33    1
    19    22    19    1
    20    22    16    1
    21    22    23    1
    22     7     8    1
    23    11     8    1
    24    17    16    1
    25    24    23    1
    26    24    29    1
    27     8     9    1
    28    14    13    1
    29    14    16    1
    30    14    15    1
    31    45    44    1
    32    44    43    1
    33    29    30    1
    34    33    30    1
    35    33    34    1
    36     9    10    1
    37    30    31    1
    38    42    43    1
    39    42    35    1
    40    34    35    1
    41    43    40    1
    42    35    36    1
    43    31    32    1
    44    40    41    1
    45    40    38    1
    46    36    37    1
    47    36    38    1
    48    38    39    1
