@<TRIPOS>MOLECULE
3amn_CBI_A_1.pdb
 23 24 0 0 0
SMALL
GASTEIGER

@<TRIPOS>ATOM
      1  C1        49.0060   10.3210   38.1190 C.3   902  CBI902      0.2695
      2  C2        47.5140   10.1060   37.8510 C.3   902  CBI902      0.2406
      3  C3        47.0370    8.7350   38.3340 C.3   902  CBI902      0.2198
      4  C4        48.0300    7.6570   37.9000 C.3   902  CBI902      0.2144
      5  C5        49.4780    8.0530   38.1900 C.3   902  CBI902      0.1835
      6  C6        50.4530    6.9450   37.7740 C.3   902  CBI902      0.2142
      7  O2        46.7600   11.1220   38.5160 O.3   902  CBI902     -0.2149
      8  O3        45.7470    8.4120   37.7910 O.3   902  CBI902     -0.2174
      9  O4        47.7700    6.5030   38.7010 O.3   902  CBI902     -0.2176
     10  O5        49.7320    9.2700   37.4800 O.3   902  CBI902     -0.3256
     11  O6        50.4420    5.8640   38.7160 O.3   902  CBI902     -0.2176
     12  C1'       52.2780   14.2120   36.7550 C.3   902  CBI902      0.3023
     13  C2'       52.7740   12.7660   36.8250 C.3   902  CBI902      0.2433
     14  C3'       51.5710   11.8270   36.7330 C.3   902  CBI902      0.2168
     15  C4'       50.5700   12.1600   37.8420 C.3   902  CBI902      0.1804
     16  C5'       50.2690   13.6520   37.8860 C.3   902  CBI902      0.1804
     17  C6'       49.4380   13.9980   39.1230 C.3   902  CBI902      0.2141
     18  O1'       53.3820   15.1200   36.7790 O.3   902  CBI902     -0.1869
     19  O2'       53.6560   12.4970   35.7330 O.3   902  CBI902     -0.2148
     20  O3'       52.0090   10.4680   36.8260 O.3   902  CBI902     -0.2175
     21  O4'       49.3120   11.5680   37.4870 O.3   902  CBI902     -0.3257
     22  O5'       51.4520   14.4660   37.9010 O.3   902  CBI902     -0.3237
     23  O6'       49.0000   15.3610   39.0720 O.3   902  CBI902     -0.2176
@<TRIPOS>BOND
     1    19    13    1
     2    14    13    1
     3    14    20    1
     4    14    15    1
     5    12    18    1
     6    12    13    1
     7    12    22    1
     8    10     1    1
     9    10     5    1
    10    21    15    1
    11    21     1    1
    12     6     5    1
    13     6    11    1
    14     8     3    1
    15    15    16    1
    16     2     1    1
    17     2     3    1
    18     2     7    1
    19    16    22    1
    20    16    17    1
    21     4     5    1
    22     4     3    1
    23     4     9    1
    24    23    17    1
