@<TRIPOS>MOLECULE
3amn_CBK_A_1.pdb
 23 24 0 0 0
SMALL
GASTEIGER

@<TRIPOS>ATOM
      1  C1        47.8010   -0.1160   40.0310 C.3   901  CBK901      0.2695
      2  C2        47.0810   -1.3240   40.6240 C.3   901  CBK901      0.2406
      3  O2        46.0230   -0.8900   41.4820 O.3   901  CBK901     -0.2149
      4  C3        48.1040   -2.1220   41.4190 C.3   901  CBK901      0.2198
      5  O3        47.4680   -3.2980   41.9210 O.3   901  CBK901     -0.2174
      6  C4        49.2430   -2.5340   40.4870 C.3   901  CBK901      0.2144
      7  O4        50.2670   -3.1230   41.2910 O.3   901  CBK901     -0.2176
      8  C5        49.8340   -1.3040   39.8020 C.3   901  CBK901      0.1835
      9  O5        48.7950   -0.6020   39.1180 O.3   901  CBK901     -0.3256
     10  C6        50.8630   -1.7440   38.7610 C.3   901  CBK901      0.2142
     11  O6        51.4140   -0.6160   38.0670 O.3   901  CBK901     -0.2176
     12  C1'       46.4320    4.3040   37.3740 C.3   901  CBK901      0.3023
     13  O1'       45.5640    3.6190   36.4670 O.3   901  CBK901     -0.1869
     14  C2'       47.8390    3.7090   37.3190 C.3   901  CBK901      0.2433
     15  O2'       48.3940    3.9640   36.0280 O.3   901  CBK901     -0.2148
     16  C3'       47.7410    2.2070   37.5830 C.3   901  CBK901      0.2168
     17  O3'       49.0200    1.5910   37.3940 O.3   901  CBK901     -0.2175
     18  C4'       47.2420    1.9980   39.0150 C.3   901  CBK901      0.1804
     19  O4'       46.8790    0.6210   39.2230 O.3   901  CBK901     -0.3257
     20  C5'       45.9280    2.7480   39.1760 C.3   901  CBK901      0.1804
     21  O5'       45.9440    4.1040   38.7060 O.3   901  CBK901     -0.3237
     22  C6'       45.5260    2.8460   40.6490 C.3   901  CBK901      0.2141
     23  O6'       46.4580    3.6610   41.3710 O.3   901  CBK901     -0.2176
@<TRIPOS>BOND
     1    15    14    1
     2    13    12    1
     3    14    12    1
     4    14    16    1
     5    12    21    1
     6    17    16    1
     7    16    18    1
     8    11    10    1
     9    21    20    1
    10    10     8    1
    11    18    20    1
    12    18    19    1
    13     9     8    1
    14     9     1    1
    15    20    22    1
    16    19     1    1
    17     8     6    1
    18     1     2    1
    19     6     7    1
    20     6     4    1
    21     2     4    1
    22     2     3    1
    23    22    23    1
    24     4     5    1
