@<TRIPOS>MOLECULE
3amp_CTR_A_1.pdb
 34 36 0 0 0
SMALL
GASTEIGER

@<TRIPOS>ATOM
      1  C1A       51.1600   -4.4880   41.1560 C.3   901  CTR901      0.2695
      2  C2A       52.6260   -4.3830   41.5830 C.3   901  CTR901      0.2406
      3  C3A       53.2970   -5.7320   41.3350 C.3   901  CTR901      0.2198
      4  C4A       52.5610   -6.7770   42.1770 C.3   901  CTR901      0.2144
      5  C5A       51.0700   -6.7590   41.8420 C.3   901  CTR901      0.1835
      6  C6A       50.4270   -7.7520   42.8150 C.3   901  CTR901      0.2142
      7  O2A       53.2760   -3.3600   40.8210 O.3   901  CTR901     -0.2149
      8  O3A       54.6630   -5.6730   41.7450 O.3   901  CTR901     -0.2174
      9  O4A       53.1040   -8.0760   41.9210 O.3   901  CTR901     -0.2176
     10  O5A       50.5050   -5.4460   42.0060 O.3   901  CTR901     -0.3256
     11  O6A       50.8860   -7.4530   44.1380 O.3   901  CTR901     -0.2176
     12  C1B       48.0030   -0.5590   39.7520 C.3   901  CTR901      0.2695
     13  C2B       47.3060   -1.7370   40.4400 C.3   901  CTR901      0.2404
     14  C3B       48.3260   -2.4930   41.2820 C.3   901  CTR901      0.2167
     15  C4B       49.5540   -2.8550   40.4380 C.3   901  CTR901      0.1804
     16  C5B       50.0570   -1.6830   39.6080 C.3   901  CTR901      0.1803
     17  C6B       51.1570   -2.1500   38.6530 C.3   901  CTR901      0.2141
     18  O2B       46.2960   -1.2470   41.3270 O.3   901  CTR901     -0.2149
     19  O3B       47.7030   -3.6870   41.7600 O.3   901  CTR901     -0.2175
     20  O4B       50.6040   -3.1840   41.3620 O.3   901  CTR901     -0.3257
     21  O5B       49.0230   -1.0270   38.8610 O.3   901  CTR901     -0.3257
     22  O6B       51.6510   -1.0450   37.8850 O.3   901  CTR901     -0.2176
     23  C1C       46.7340    3.8070   37.1390 C.3   901  CTR901      0.3023
     24  C2C       48.1480    3.2300   37.0880 C.3   901  CTR901      0.2433
     25  C3C       48.0410    1.7350   37.4030 C.3   901  CTR901      0.2168
     26  C4C       47.4040    1.5380   38.7850 C.3   901  CTR901      0.1804
     27  C5C       46.1380    2.3690   38.9540 C.3   901  CTR901      0.1804
     28  C6C       45.7410    2.4640   40.4300 C.3   901  CTR901      0.2141
     29  O1C       45.9150    3.0090   36.2850 O.3   901  CTR901     -0.1869
     30  O2C       48.6240    3.4170   35.7520 O.3   901  CTR901     -0.2148
     31  O3C       49.3500    1.1580   37.3810 O.3   901  CTR901     -0.2175
     32  O4C       47.0390    0.1610   38.9860 O.3   901  CTR901     -0.3257
     33  O5C       46.2490    3.7190   38.4820 O.3   901  CTR901     -0.3237
     34  O6C       46.5830    3.3970   41.1230 O.3   901  CTR901     -0.2176
@<TRIPOS>BOND
     1    30    24    1
     2    29    23    1
     3    24    23    1
     4    24    25    1
     5    23    33    1
     6    31    25    1
     7    25    26    1
     8    22    17    1
     9    33    27    1
    10    17    16    1
    11    26    27    1
    12    26    32    1
    13    21    16    1
    14    21    12    1
    15    27    28    1
    16    32    12    1
    17    16    15    1
    18    12    13    1
    19    28    34    1
    20    15    14    1
    21    15    20    1
    22    13    14    1
    23    13    18    1
    24     7     2    1
    25     1    20    1
    26     1     2    1
    27     1    10    1
    28    14    19    1
    29     3     2    1
    30     3     8    1
    31     3     4    1
    32     5    10    1
    33     5     4    1
    34     5     6    1
    35     9     4    1
    36     6    11    1
