@<TRIPOS>MOLECULE
3amp_CBI_A_1.pdb
 23 24 0 0 0
SMALL
GASTEIGER

@<TRIPOS>ATOM
      1  C1        49.1850   10.0450   37.9780 C.3   902  CBI902      0.2695
      2  C2        47.6900    9.8210   37.7430 C.3   902  CBI902      0.2406
      3  C3        47.2330    8.4280   38.1840 C.3   902  CBI902      0.2198
      4  C4        48.2130    7.3710   37.6710 C.3   902  CBI902      0.2144
      5  C5        49.6760    7.7560   37.9210 C.3   902  CBI902      0.1835
      6  C6        50.6430    6.7080   37.3510 C.3   902  CBI902      0.2142
      7  O2        46.9460   10.8360   38.4230 O.3   902  CBI902     -0.2149
      8  O3        45.9410    8.1190   37.6390 O.3   902  CBI902     -0.2174
      9  O4        47.9090    6.1480   38.3440 O.3   902  CBI902     -0.2176
     10  O5        49.9100    9.0200   37.2830 O.3   902  CBI902     -0.3256
     11  O6        50.6220    5.5150   38.1490 O.3   902  CBI902     -0.2176
     12  C1'       52.4440   13.9760   36.7180 C.3   902  CBI902      0.3023
     13  C2'       52.9120   12.5210   36.6970 C.3   902  CBI902      0.2433
     14  C3'       51.6870   11.6070   36.5770 C.3   902  CBI902      0.2168
     15  C4'       50.7060   11.9180   37.7100 C.3   902  CBI902      0.1804
     16  C5'       50.4320   13.4120   37.8110 C.3   902  CBI902      0.1804
     17  C6'       49.5780   13.6770   39.0560 C.3   902  CBI902      0.2141
     18  O1'       53.5960   14.8230   36.7510 O.3   902  CBI902     -0.1869
     19  O2'       53.7870   12.3500   35.5800 O.3   902  CBI902     -0.2148
     20  O3'       52.0680   10.2310   36.6270 O.3   902  CBI902     -0.2175
     21  O4'       49.4460   11.3190   37.3780 O.3   902  CBI902     -0.3257
     22  O5'       51.6390   14.1870   37.8880 O.3   902  CBI902     -0.3237
     23  O6'       49.1290   15.0370   39.1080 O.3   902  CBI902     -0.2176
@<TRIPOS>BOND
     1    19    13    1
     2    14    20    1
     3    14    13    1
     4    14    15    1
     5    13    12    1
     6    12    18    1
     7    12    22    1
     8    10     5    1
     9    10     1    1
    10     6     5    1
    11     6    11    1
    12    21    15    1
    13    21     1    1
    14     8     3    1
    15     4     5    1
    16     4     3    1
    17     4     9    1
    18    15    16    1
    19     2     1    1
    20     2     3    1
    21     2     7    1
    22    16    22    1
    23    16    17    1
    24    17    23    1
