@<TRIPOS>MOLECULE
3amq_CBK_A_1.pdb
 23 24 0 0 0
SMALL
GASTEIGER

@<TRIPOS>ATOM
      1  C1        -0.3710   15.0010   80.8810 C.3   901  CBK901      0.2695
      2  C2         0.9510   14.6460   80.1930 C.3   901  CBK901      0.2406
      3  O2         1.1070   13.2240   80.1570 O.3   901  CBK901     -0.2149
      4  C3         2.1320   15.3130   80.9010 C.3   901  CBK901      0.2198
      5  O3         3.3450   15.0250   80.1910 O.3   901  CBK901     -0.2174
      6  C4         1.8830   16.8240   80.9130 C.3   901  CBK901      0.2144
      7  O4         2.8530   17.4720   81.7420 O.3   901  CBK901     -0.2176
      8  C5         0.5010   17.1500   81.4820 C.3   901  CBK901      0.1835
      9  O5        -0.5580   16.4240   80.8350 O.3   901  CBK901     -0.3256
     10  C6         0.2580   18.6540   81.3230 C.3   901  CBK901      0.2142
     11  O6        -1.0110   18.9800   81.8960 O.3   901  CBK901     -0.2176
     12  C1'       -5.5000   13.5670   80.5690 C.3   901  CBK901      0.3023
     13  O1'       -5.6020   13.6350   79.1430 O.3   901  CBK901     -0.1869
     14  C2'       -5.0320   14.9190   81.1140 C.3   901  CBK901      0.2433
     15  O2'       -5.9550   15.9250   80.6900 O.3   901  CBK901     -0.2148
     16  C3'       -3.6520   15.2570   80.5500 C.3   901  CBK901      0.2168
     17  O3'       -3.2150   16.4920   81.1250 O.3   901  CBK901     -0.2175
     18  C4'       -2.6500   14.1470   80.8800 C.3   901  CBK901      0.1804
     19  O4'       -1.4220   14.3380   80.1600 O.3   901  CBK901     -0.3257
     20  C5'       -3.2190   12.7970   80.4600 C.3   901  CBK901      0.1804
     21  O5'       -4.5530   12.5520   80.9400 O.3   901  CBK901     -0.3237
     22  C6'       -2.3360   11.6980   81.0550 C.3   901  CBK901      0.2141
     23  O6'       -2.5420   11.7000   82.4710 O.3   901  CBK901     -0.2176
@<TRIPOS>BOND
     1    13    12    1
     2     3     2    1
     3    19    18    1
     4    19     1    1
     5     5     4    1
     6     2     1    1
     7     2     4    1
     8    20    18    1
     9    20    21    1
    10    20    22    1
    11    16    18    1
    12    16    14    1
    13    16    17    1
    14    12    21    1
    15    12    14    1
    16    15    14    1
    17     9     1    1
    18     9     8    1
    19     4     6    1
    20     6     8    1
    21     6     7    1
    22    22    23    1
    23    10     8    1
    24    10    11    1
