@<TRIPOS>MOLECULE
3amq_BGC_A_1.pdb
 12 12 0 0 0
SMALL
GASTEIGER

@<TRIPOS>ATOM
      1  C2        -9.6520   11.7570   84.2920 C.3   902  BGC902      0.2434
      2  C3        -8.2530   11.6420   83.6520 C.3   902  BGC902      0.2199
      3  C4        -7.5550   13.0030   83.5520 C.3   902  BGC902      0.2144
      4  C5        -7.7470   13.9120   84.7900 C.3   902  BGC902      0.1836
      5  C6        -7.2390   15.3510   84.5690 C.3   902  BGC902      0.2142
      6  C1        -9.6590   12.7150   85.4970 C.3   902  BGC902      0.3024
      7  O1       -10.9480   12.8750   85.9700 O.3   902  BGC902     -0.1869
      8  O2       -10.0910   10.4760   84.7150 O.3   902  BGC902     -0.2148
      9  O3        -8.3510   11.0920   82.3300 O.3   902  BGC902     -0.2174
     10  O4        -6.1830   12.7730   83.3620 O.3   902  BGC902     -0.2176
     11  O5        -9.1470   13.9940   85.1150 O.3   902  BGC902     -0.3236
     12  O6        -5.8120   15.4070   84.5070 O.3   902  BGC902     -0.2176
@<TRIPOS>BOND
     1     9     2    1
     2    10     3    1
     3     3     2    1
     4     3     4    1
     5     2     1    1
     6     1     8    1
     7     1     6    1
     8    12     5    1
     9     5     4    1
    10     4    11    1
    11    11     6    1
    12     6     7    1
