@<TRIPOS>MOLECULE
3amt_ATP_A_1.pdb
 31 33 0 0 0
SMALL
GASTEIGER

@<TRIPOS>ATOM
      1  PG        16.8530   91.7120   77.2820 P.3   421  ATP421      0.5373
      2  O1G       15.7460   91.2860   78.1800 O.3   421  ATP421     -0.1143
      3  O2G       17.7320   92.9070   77.9300 O.3   421  ATP421     -0.1143
      4  O3G       17.8850   90.5080   76.9590 O.2   421  ATP421     -0.2221
      5  PB        16.6090   91.0720   74.6620 P.3   421  ATP421      0.2277
      6  O1B       15.5260   90.0630   74.6240 O.3   421  ATP421     -0.4368
      7  O2B       18.0130   90.8750   74.2340 O.2   421  ATP421     -0.5168
      8  O3B       16.4280   92.1970   75.8010 O.3   421  ATP421     -0.2258
      9  PA        14.6350   92.4410   73.3280 P.3   421  ATP421      0.2189
     10  O1A       14.5230   93.6700   74.1530 O.3   421  ATP421     -0.4371
     11  O2A       13.7890   91.2690   73.6660 O.2   421  ATP421     -0.5170
     12  O3A       16.1710   91.9690   73.3970 O.3   421  ATP421     -0.2700
     13  O5'       14.4240   92.8290   71.7770 O.3   421  ATP421     -0.3112
     14  C5'       14.4810   91.8380   70.7500 C.3   421  ATP421      0.1813
     15  C4'       13.5470   92.2280   69.6020 C.3   421  ATP421      0.1821
     16  O4'       13.7930   91.3700   68.4710 O.3   421  ATP421     -0.3135
     17  C3'       12.0850   92.0080   70.0040 C.3   421  ATP421      0.2184
     18  O3'       11.2680   92.9730   69.3340 O.3   421  ATP421     -0.2174
     19  C2'       11.8170   90.6230   69.4150 C.3   421  ATP421      0.2570
     20  O2'       10.4200   90.4640   69.1530 O.3   421  ATP421     -0.2130
     21  C1'       12.5340   90.7970   68.0770 C.3   421  ATP421      0.3186
     22  N9        12.7570   89.4680   67.4630 N.pl3 421  ATP421     -0.1439
     23  C8        13.1010   88.3640   68.1240 C.3   421  ATP421      0.3377
     24  N7        13.2340   87.3480   67.2730 N.2   421  ATP421     -0.2095
     25  C5        12.9670   87.8080   66.0550 C.2   421  ATP421      0.2526
     26  C6        12.9260   87.2220   64.7970 C.2   421  ATP421      0.4393
     27  N6        13.2240   85.9340   64.6430 N.pl3 421  ATP421      0.2180
     28  N1        12.6020   87.9830   63.7420 N.2   421  ATP421      0.0021
     29  C2        12.3320   89.2680   63.8920 C.3   421  ATP421      0.5254
     30  N3        12.3620   89.8610   65.0750 N.2   421  ATP421     -0.0055
     31  C4        12.6700   89.1580   66.1730 C.2   421  ATP421      0.3518
@<TRIPOS>BOND
     1    28    29    1
     2    28    26    2
     3    29    30    1
     4    27    26    1
     5    26    25    1
     6    30    31    2
     7    25    31    1
     8    25    24    2
     9    31    22    1
    10    24    23    1
    11    22    21    1
    12    22    23    1
    13    21    16    1
    14    21    19    1
    15    16    15    1
    16    20    19    1
    17    18    17    1
    18    19    17    1
    19    15    17    1
    20    15    14    1
    21    14    13    1
    22    13     9    1
    23     9    12    1
    24     9    11    2
    25     9    10    1
    26    12     5    1
    27     7     5    2
    28     6     5    1
    29     5     8    1
    30     8     1    1
    31     4     1    2
    32     1     3    1
    33     1     2    1
