@<TRIPOS>MOLECULE
3amu_APC_A_1.pdb
 31 33 0 0 0
SMALL
GASTEIGER

@<TRIPOS>ATOM
      1  PG        47.2190  -21.2670   -4.0950 P.3   421  APC421      0.5389
      2  O1G       47.2340  -20.1870   -5.1130 O.2   421  APC421     -0.2220
      3  O2G       45.8730  -21.3000   -3.1980 O.3   421  APC421     -0.1143
      4  O3G       47.3620  -22.7420   -4.7430 O.3   421  APC421     -0.1143
      5  PB        48.6860  -22.5150   -2.1840 P.3   421  APC421      0.3895
      6  O1B       47.4480  -23.2070   -1.7600 O.3   421  APC421     -0.1388
      7  O2B       50.0120  -23.1570   -2.3380 O.2   421  APC421     -0.2544
      8  O3B       48.4150  -21.1640   -3.0170 O.3   421  APC421     -0.2026
      9  PA        50.5970  -20.9570   -0.7560 P.3   421  APC421      0.3820
     10  O1A       50.5300  -19.7270   -1.5800 O.2   421  APC421     -0.2548
     11  O2A       51.4450  -22.0910   -1.1960 O.3   421  APC421     -0.1392
     12  C3A       48.9190  -21.6080   -0.6400 C.3   421  APC421      0.2357
     13  O5'       50.9880  -20.6270    0.7710 O.3   421  APC421     -0.2896
     14  C5'       50.9500  -21.6970    1.7170 C.3   421  APC421      0.1836
     15  C4'       51.8380  -21.3880    2.9240 C.3   421  APC421      0.1822
     16  O4'       51.5510  -22.3530    3.9540 O.3   421  APC421     -0.3135
     17  C3'       53.3050  -21.5850    2.5340 C.3   421  APC421      0.2184
     18  O3'       54.1430  -20.7940    3.3810 O.3   421  APC421     -0.2174
     19  C2'       53.4970  -23.0520    2.9110 C.3   421  APC421      0.2570
     20  O2'       54.8910  -23.2910    3.1170 O.3   421  APC421     -0.2130
     21  C1'       52.8080  -22.9700    4.2720 C.3   421  APC421      0.3186
     22  N9        52.5970  -24.3060    4.8630 N.pl3 421  APC421     -0.1439
     23  C8        52.4940  -25.4620    4.2070 C.3   421  APC421      0.3377
     24  N7        52.3550  -26.4550    5.0800 N.2   421  APC421     -0.2095
     25  C5        52.3680  -25.9270    6.3040 C.2   421  APC421      0.2526
     26  C6        52.2830  -26.4510    7.5860 C.2   421  APC421      0.4393
     27  N6        52.2250  -27.7690    7.7690 N.pl3 421  APC421      0.2180
     28  N1        52.3280  -25.6130    8.6290 N.2   421  APC421      0.0021
     29  C2        52.4580  -24.3070    8.4590 C.3   421  APC421      0.5254
     30  N3        52.5510  -23.7750    7.2540 N.2   421  APC421     -0.0055
     31  C4        52.5120  -24.5590    6.1670 C.2   421  APC421      0.3518
@<TRIPOS>BOND
     1     2     1    2
     2     4     1    1
     3     1     3    1
     4     1     8    1
     5     8     5    1
     6     7     5    2
     7     5     6    1
     8     5    12    1
     9    10     9    2
    10    11     9    1
    11     9    12    1
    12     9    13    1
    13    13    14    1
    14    14    15    1
    15    17    19    1
    16    17    15    1
    17    17    18    1
    18    19    20    1
    19    19    21    1
    20    15    16    1
    21    16    21    1
    22    23    22    1
    23    23    24    1
    24    21    22    1
    25    22    31    1
    26    24    25    2
    27    31    25    1
    28    31    30    2
    29    25    26    1
    30    30    29    1
    31    26    27    1
    32    26    28    2
    33    29    28    1
