@<TRIPOS>MOLECULE
3amv_BIN_A_1.pdb
 28 29 0 0 0
SMALL
GASTEIGER

@<TRIPOS>ATOM
      1  C1        27.9610    2.2690   52.9470 C.ar  930  BIN930     -0.0032
      2  C2        27.3160    3.6340   53.3400 C.ar  930  BIN930      0.0543
      3  C3        27.4490    4.1200   54.7240 C.ar  930  BIN930      0.0111
      4  C4        28.2340    3.2640   55.6850 C.ar  930  BIN930      0.0008
      5  C5        28.8210    2.0640   55.3710 C.ar  930  BIN930     -0.0002
      6  C6        28.6870    1.5600   54.0220 C.ar  930  BIN930     -0.0028
      7  C7        27.8800    1.6580   51.4890 C.3   930  BIN930      0.0827
      8  C8        26.9280    0.2460   51.4410 C.2   930  BIN930      0.0710
      9  C9        29.9290    0.3110   50.6910 C.2   930  BIN930      0.1351
     10  C11       27.5580   -1.0210   51.1960 C.2   930  BIN930      0.0321
     11  C12       29.2760    1.6510   50.8680 C.2   930  BIN930      0.0857
     12  C13       29.9820    3.0590   50.5500 C.2   930  BIN930      0.3859
     13  C14       31.2980    0.2270   50.1430 C.2   930  BIN930      0.4011
     14  C15       26.9010   -2.3950   51.0280 C.3   930  BIN930      0.0473
     15  C16       30.2480   -2.2590   53.0770 C.3   930  BIN930      0.0236
     16  C17       29.8410   -2.1490   51.6430 C.3   930  BIN930      0.0955
     17  C18       25.3210    0.4300   51.6270 C.2   930  BIN930      0.3386
     18  C19       23.3130    2.0350   51.3960 C.3   930  BIN930      0.1694
     19  C20       23.1480    2.4680   52.8950 C.3   930  BIN930      0.0473
     20  C21       23.0590    3.1160   50.3590 C.3   930  BIN930      0.0473
     21  N10       29.0990   -0.9670   51.1400 N.pl3 930  BIN930     -0.2853
     22  O3A       31.2080    3.3100   50.5930 O.co2 930  BIN930     -0.2408
     23  O3B       29.2440    4.0710   50.2930 O.co2 930  BIN930     -0.2408
     24  O4A       31.4280   -0.1720   48.9410 O.co2 930  BIN930     -0.2392
     25  O4B       32.1490    0.6040   50.9940 O.co2 930  BIN930     -0.2392
     26  O8A       24.6010   -0.4530   52.0160 O.2   930  BIN930     -0.2452
     27  O8        24.8790    1.7030   51.3100 O.3   930  BIN930     -0.4494
     28 CL2        26.4980    4.5920   52.2890 Cl    930  BIN930     -0.0826
@<TRIPOS>BOND
     1    24    13   ar
     2    13     9    1
     3    13    25   ar
     4    23    12   ar
     5    20    18    1
     6    12    22   ar
     7    12    11    1
     8     9    11    2
     9     9    21    1
    10    11     7    1
    11    14    10    1
    12    21    10    1
    13    21    16    1
    14    10     8    2
    15    27    18    1
    16    27    17    1
    17    18    19    1
    18     8     7    1
    19     8    17    1
    20     7     1    1
    21    17    26    2
    22    16    15    1
    23    28     2    1
    24     1     2   ar
    25     1     6   ar
    26     2     3   ar
    27     6     5   ar
    28     3     4   ar
    29     5     4   ar
