@<TRIPOS>MOLECULE
3amv_GLC_A_1.pdb
 12 12 0 0 0
SMALL
GASTEIGER

@<TRIPOS>ATOM
      1  C1        33.2000   22.6150   27.7900 C.3   998  GLC998      0.3024
      2  C2        33.3710   22.9700   26.2390 C.3   998  GLC998      0.2434
      3  C3        32.2330   22.2530   25.3720 C.3   998  GLC998      0.2199
      4  C4        32.0660   20.7600   25.6930 C.3   998  GLC998      0.2144
      5  C5        31.8530   20.5910   27.2370 C.3   998  GLC998      0.1836
      6  C6        31.7270   19.1400   27.6410 C.3   998  GLC998      0.2142
      7  O1        32.2100   23.3980   28.4770 O.3   998  GLC998     -0.1869
      8  O2        33.3360   24.3720   26.0140 O.3   998  GLC998     -0.2148
      9  O3        32.4770   22.2980   23.9940 O.3   998  GLC998     -0.2174
     10  O4        30.9560   20.3200   24.9610 O.3   998  GLC998     -0.2176
     11  O5        32.9900   21.1760   27.9370 O.3   998  GLC998     -0.3236
     12  O6        32.8020   18.4470   27.0580 O.3   998  GLC998     -0.2176
@<TRIPOS>BOND
     1     9     3    1
     2    10     4    1
     3     3     4    1
     4     3     2    1
     5     4     5    1
     6     8     2    1
     7     2     1    1
     8    12     6    1
     9     5     6    1
    10     5    11    1
    11     1    11    1
    12     1     7    1
