@<TRIPOS>MOLECULE
3amv_PLP_A_1.pdb
 15 15 0 0 0
SMALL
GASTEIGER

@<TRIPOS>ATOM
      1  N1        24.4120   25.4450   30.0790 N.ar  999  PLP999     -0.2452
      2  C2        23.3210   24.6990   30.3500 C.ar  999  PLP999      0.0978
      3  C2A       22.3260   25.2200   31.3910 C.3   999  PLP999      0.0555
      4  C3        23.0800   23.5540   29.6410 C.ar  999  PLP999      0.2049
      5  O3        21.9190   22.8670   29.8790 O.3   999  PLP999     -0.2857
      6  C4        23.9850   23.1260   28.6660 C.ar  999  PLP999      0.0182
      7  C4A       23.6530   21.8410   27.8070 C.3   999  PLP999      0.0342
      8  C5        25.1320   23.9100   28.4350 C.ar  999  PLP999      0.0261
      9  C6        25.3020   25.0640   29.1280 C.ar  999  PLP999      0.0965
     10  C5A       26.2050   23.5970   27.3550 C.3   999  PLP999      0.1815
     11  O4P       25.7740   24.2580   26.1500 O.3   999  PLP999     -0.2653
     12  P         26.6590   24.5190   24.8270 P.3   999  PLP999      0.5329
     13  O1P       25.7900   25.2830   23.9140 O.2   999  PLP999     -0.2224
     14  O2P       27.8670   25.4180   25.3430 O.3   999  PLP999     -0.1145
     15  O3P       27.1750   23.2110   24.4040 O.3   999  PLP999     -0.1145
@<TRIPOS>BOND
     1    13    12    2
     2    15    12    1
     3    12    14    1
     4    12    11    1
     5    11    10    1
     6    10     8    1
     7     7     6    1
     8     8     6   ar
     9     8     9   ar
    10     6     4   ar
    11     9     1   ar
    12     4     5    1
    13     4     2   ar
    14     1     2   ar
    15     2     3    1
