@<TRIPOS>MOLECULE
3amy_AGI_A_1.pdb
 20 22 0 0 0
SMALL
GASTEIGER

@<TRIPOS>ATOM
      1  CAG       12.1670   -4.8400   11.6320 C.ar  336  AGI336      0.0063
      2  CAE       11.8030   -3.8570   12.5440 C.ar  336  AGI336      0.0421
      3  CAM       12.2190   -2.5470   12.3460 C.ar  336  AGI336      0.1957
      4  OAB       11.8570   -1.5920   13.2540 O.3   336  AGI336     -0.2866
      5  CAF       12.9870   -2.2290   11.2220 C.ar  336  AGI336      0.0421
      6  CAH       13.3520   -3.2130   10.2970 C.ar  336  AGI336      0.0063
      7  CAP       12.9370   -4.5310   10.5090 C.ar  336  AGI336      0.0349
      8  CAQ       13.2410   -5.5830    9.6510 C.ar  336  AGI336      0.1484
      9  OAL       13.1400   -6.8300   10.1930 O.2   336  AGI336     -0.4531
     10  CAJ       13.5770   -5.3970    8.3080 C.ar  336  AGI336      0.0797
     11  CAR       13.8450   -6.5060    7.5030 C.ar  336  AGI336      0.2048
     12  OAA       14.1490   -6.3390    6.3200 O.2   336  AGI336     -0.2862
     13  CAT       13.7360   -7.7900    8.0500 C.ar  336  AGI336      0.1126
     14  CAS       13.3740   -7.9070    9.3970 C.ar  336  AGI336      0.1546
     15  CAK       13.2440   -9.1560    9.9850 C.ar  336  AGI336      0.0798
     16  CAN       13.4650  -10.2990    9.2350 C.ar  336  AGI336      0.2020
     17  OAC       13.3350  -11.4990    9.8390 O.3   336  AGI336     -0.2864
     18  CAI       13.8220  -10.2110    7.8910 C.ar  336  AGI336      0.0843
     19  CAO       13.9560   -8.9570    7.2910 C.ar  336  AGI336      0.2049
     20  OAD       14.3030   -8.9010    5.9700 O.3   336  AGI336     -0.2862
@<TRIPOS>BOND
     1    20    19    1
     2    12    11    2
     3    19    18   ar
     4    19    13   ar
     5    11    13   ar
     6    11    10   ar
     7    18    16   ar
     8    13    14   ar
     9    10     8   ar
    10    16    17    1
    11    16    15   ar
    12    14    15   ar
    13    14     9   ar
    14     8     9   ar
    15     8     7    1
    16     6     7   ar
    17     6     5   ar
    18     7     1   ar
    19     5     3   ar
    20     1     2   ar
    21     3     2   ar
    22     3     4    1
