@<TRIPOS>MOLECULE
3amz_NAI_A_1.pdb
 44 48 0 0 0
SMALL
GASTEIGER

@<TRIPOS>ATOM
      1  PA       -34.0130  -40.3850  -44.5070 P.3   1333  NAI1333     0.2189
      2  O1A      -33.6520  -40.7590  -43.0830 O.3   1333  NAI1333    -0.4371
      3  O2A      -32.8600  -39.7910  -45.3170 O.2   1333  NAI1333    -0.5170
      4  O5B      -34.5870  -41.7480  -45.1010 O.3   1333  NAI1333    -0.3112
      5  C5B      -35.7480  -42.3560  -44.5460 C.3   1333  NAI1333     0.1813
      6  C4B      -36.0290  -43.5940  -45.3700 C.3   1333  NAI1333     0.1821
      7  O4B      -34.8310  -44.4210  -45.3010 O.3   1333  NAI1333    -0.3135
      8  C3B      -37.1550  -44.4390  -44.8110 C.3   1333  NAI1333     0.2184
      9  O3B      -38.4150  -44.1340  -45.3710 O.3   1333  NAI1333    -0.2174
     10  C2B      -36.7500  -45.8440  -45.2570 C.3   1333  NAI1333     0.2570
     11  O2B      -36.8440  -45.9760  -46.6670 O.3   1333  NAI1333    -0.2130
     12  C1B      -35.2420  -45.7950  -45.1210 C.3   1333  NAI1333     0.3186
     13  N9A      -34.5990  -46.2200  -43.8630 N.pl3 1333  NAI1333    -0.1439
     14  C8A      -33.8580  -45.4240  -43.0280 C.3   1333  NAI1333     0.3377
     15  N7A      -33.3580  -46.2520  -42.0880 N.2   1333  NAI1333    -0.2095
     16  C5A      -33.7700  -47.5180  -42.3360 C.2   1333  NAI1333     0.2526
     17  C6A      -33.5860  -48.7550  -41.7170 C.2   1333  NAI1333     0.4393
     18  N6A      -32.8420  -48.8640  -40.5880 N.pl3 1333  NAI1333     0.2180
     19  N1A      -34.1560  -49.8580  -42.2400 N.2   1333  NAI1333     0.0021
     20  C2A      -34.9080  -49.8410  -43.3480 C.3   1333  NAI1333     0.5254
     21  N3A      -35.1160  -48.6540  -43.9420 N.2   1333  NAI1333    -0.0055
     22  C4A      -34.5560  -47.4980  -43.4570 C.2   1333  NAI1333     0.3518
     23  O3       -35.3480  -39.4950  -44.6290 O.3   1333  NAI1333    -0.2703
     24  PN       -35.4770  -37.8760  -44.3440 P.3   1333  NAI1333     0.2189
     25  O1N      -34.4990  -37.5390  -43.2520 O.3   1333  NAI1333    -0.4371
     26  O2N      -36.9810  -37.6960  -44.4160 O.2   1333  NAI1333    -0.5170
     27  O5D      -34.9780  -37.1450  -45.7140 O.3   1333  NAI1333    -0.3112
     28  C5D      -35.7730  -37.2720  -46.9010 C.3   1333  NAI1333     0.1813
     29  C4D      -34.9090  -36.9970  -48.1290 C.3   1333  NAI1333     0.1799
     30  O4D      -35.7300  -37.0550  -49.2820 O.3   1333  NAI1333    -0.3327
     31  C3D      -34.4640  -35.5290  -48.1940 C.3   1333  NAI1333     0.2158
     32  O3D      -33.3860  -35.3250  -47.2820 O.3   1333  NAI1333    -0.2175
     33  C2D      -34.0650  -35.4540  -49.6540 C.3   1333  NAI1333     0.2309
     34  O2D      -32.6840  -35.9340  -49.7820 O.3   1333  NAI1333    -0.2158
     35  C1D      -35.0240  -36.4470  -50.3350 C.3   1333  NAI1333     0.2263
     36  N1N      -35.9230  -35.8010  -51.2760 N.pl3 1333  NAI1333    -0.2787
     37  C2N      -36.7290  -34.7750  -50.6870 C.3   1333  NAI1333     0.1244
     38  C3N      -37.9990  -34.5100  -51.1170 C.2   1333  NAI1333     0.0544
     39  C7N      -38.7800  -33.3550  -50.5020 C.2   1333  NAI1333     0.2818
     40  O7N      -39.8480  -33.0060  -50.9970 O.2   1333  NAI1333    -0.2670
     41  N7N      -38.3250  -32.7460  -49.5280 N.am  1333  NAI1333    -0.0839
     42  C4N      -38.5810  -35.3270  -52.0990 C.2   1333  NAI1333     0.0033
     43  C5N      -37.8770  -36.4070  -52.6470 C.2   1333  NAI1333     0.0157
     44  C6N      -36.5620  -36.6230  -52.2460 C.2   1333  NAI1333     0.0633
@<TRIPOS>BOND
     1    43    44    2
     2    43    42    1
     3    44    36    1
     4    42    38    2
     5    36    37    1
     6    36    35    1
     7    38    37    1
     8    38    39    1
     9    40    39    2
    10    39    41   am
    11    35    33    1
    12    35    30    1
    13    34    33    1
    14    33    31    1
    15    30    29    1
    16    31    29    1
    17    31    32    1
    18    29    28    1
    19    28    27    1
    20    11    10    1
    21    27    24    1
    22     9     8    1
    23     6     7    1
    24     6     8    1
    25     6     5    1
    26     3     1    2
    27     7    12    1
    28    10    12    1
    29    10     8    1
    30    12    13    1
    31     4     5    1
    32     4     1    1
    33    23     1    1
    34    23    24    1
    35     1     2    1
    36    26    24    2
    37    24    25    1
    38    21    22    2
    39    21    20    1
    40    13    22    1
    41    13    14    1
    42    22    16    1
    43    20    19    1
    44    14    15    1
    45    16    15    2
    46    16    17    1
    47    19    17    2
    48    17    18    1
