@<TRIPOS>MOLECULE
3amz_URC_A_1.pdb
 12 13 0 0 0
SMALL
GASTEIGER

@<TRIPOS>ATOM
      1  N1       -71.1650  -26.0950  -38.4480 N.2   1339  URC1339    -0.2300
      2  C2       -71.7770  -26.8190  -39.4780 C.1   1339  URC1339     0.3744
      3  C6       -69.8880  -25.5040  -38.5790 C.1   1339  URC1339     0.2458
      4  N3       -71.0760  -26.9880  -40.6670 N.2   1339  URC1339    -0.2507
      5  O11      -72.9530  -27.3460  -39.3390 O.2   1339  URC1339    -0.1738
      6  C4       -69.8210  -26.4470  -40.8000 C.1   1339  URC1339     0.1325
      7  C5       -69.1440  -25.6890  -39.7950 C.2   1339  URC1339     0.2501
      8  N9       -69.0410  -26.5850  -41.9340 N.2   1339  URC1339    -0.1533
      9  O13      -69.4290  -24.8430  -37.5990 O.2   1339  URC1339    -0.2062
     10  N7       -67.9020  -25.3340  -40.3280 N.2   1339  URC1339    -0.1962
     11  C8       -67.7220  -25.9050  -41.7480 C.3   1339  URC1339     0.3739
     12  O24      -67.7040  -25.2540  -42.9910 O.3   1339  URC1339    -0.1665
@<TRIPOS>BOND
     1    12    11    1
     2     8    11    1
     3     8     6    2
     4    11    10    1
     5     6     4    2
     6     6     7    1
     7     4     2    2
     8    10     7    2
     9     7     3    1
    10     2     5    2
    11     2     1    2
    12     3     1    2
    13     3     9    2
