@<TRIPOS>MOLECULE
3an1_URC_A_1.pdb
 12 13 0 0 0
SMALL
GASTEIGER

@<TRIPOS>ATOM
      1  N1       -20.9050   22.8770  -18.4300 N.2   1333  URC1333    -0.2289
      2  C2       -20.9330   22.0120  -17.3150 C.1   1333  URC1333     0.3754
      3  C6       -19.9690   22.7810  -19.4490 C.1   1333  URC1333     0.2604
      4  N3       -20.0510   20.9600  -17.1800 N.2   1333  URC1333    -0.2368
      5  O11      -21.7960   22.2450  -16.4140 O.2   1333  URC1333    -0.1738
      6  C4       -19.1470   20.7950  -18.1680 C.1   1333  URC1333     0.2099
      7  C5       -19.0920   21.6940  -19.3070 C.2   1333  URC1333     0.3262
      8  N9       -18.1770   19.7930  -18.2880 N.2   1333  URC1333    -0.2373
      9  O13      -19.9050   23.6450  -20.4920 O.2   1333  URC1333    -0.2051
     10  N7       -17.9860   21.2540  -20.0260 N.2   1333  URC1333    -0.2823
     11  C8       -17.4810   20.1350  -19.3930 C.1   1333  URC1333     0.3665
     12  O24      -16.4210   19.4800  -19.8530 O.2   1333  URC1333    -0.1745
@<TRIPOS>BOND
     1     9     3    2
     2    10    11    2
     3    10     7    2
     4    12    11    2
     5     3     7    1
     6     3     1    2
     7    11     8    2
     8     7     6    1
     9     1     2    2
    10     8     6    2
    11     6     4    2
    12     2     4    2
    13     2     5    2
