@<TRIPOS>MOLECULE
3an3_M7S_A_1.pdb
 42 47 0 0 0
SMALL
GASTEIGER

@<TRIPOS>ATOM
      1  C1        18.1150   66.5110   18.2180 C.2     1  M7S1        0.3650
      2  O1        18.7160   65.4690   18.4770 O.co2   1  M7S1       -0.2456
      3  C2        18.1070   67.1860   16.9790 C.3     1  M7S1        0.1121
      4  O2        17.3970   67.1510   19.1590 O.co2   1  M7S1       -0.2456
      5  C3        19.5160   67.8380   16.6840 C.3     1  M7S1        0.0379
      6  O3        17.6620   67.2390   10.1540 O.3     1  M7S1       -0.4757
      7  C4        20.0410   68.8950   17.7000 C.ar    1  M7S1       -0.0216
      8  C5        17.6510   66.1110   15.9310 C.3     1  M7S1        0.0379
      9  C6        17.5640   66.4420   14.4520 C.ar    1  M7S1       -0.0217
     10  C7        16.3330   66.9420   13.7670 C.ar    1  M7S1       -0.0038
     11  C8        16.3800   67.2150   12.2810 C.ar    1  M7S1        0.0331
     12  C9        17.6150   66.9860   11.5420 C.ar    1  M7S1        0.1362
     13  C10       18.7810   66.4990   12.2660 C.ar    1  M7S1        0.0363
     14  C11       18.7660   66.2310   13.6710 C.ar    1  M7S1       -0.0012
     15  C12       18.8860   67.8800    9.7580 C.3     1  M7S1        0.2054
     16  C13       18.9080   68.1410    8.2970 C.3     1  M7S1        0.0473
     17  C14       19.3910   69.5480    8.1070 C.3     1  M7S1        0.0040
     18  C15       15.2030   67.7100   11.5470 C.3     1  M7S1        0.1448
     19  C17       14.1010   71.7930    8.9010 C.ar    1  M7S1        0.0042
     20  C19       14.5810   73.0800    8.3790 C.ar    1  M7S1       -0.0041
     21  C22       16.4950   71.1340    9.4140 C.ar    1  M7S1        0.0042
     22  C23       16.5750   74.7910    7.8050 C.3     1  M7S1        0.0189
     23  C24       17.5650   74.5430    6.5810 C.3     1  M7S1        0.0040
     24  C25       17.3740   75.5900    8.9310 C.3     1  M7S1        0.0040
     25  C26       15.3820   75.7390    7.2890 C.3     1  M7S1        0.0040
     26  C27       18.1170   75.9210    6.0140 C.3     1  M7S1        0.0003
     27  C28       17.9240   76.9690    8.3770 C.3     1  M7S1        0.0003
     28  C29       15.9390   77.1100    6.7380 C.3     1  M7S1        0.0003
     29  C30       18.8920   76.6900    7.1570 C.3     1  M7S1        0.0000
     30  C31       16.9150   76.8140    5.5260 C.3     1  M7S1        0.0000
     31  C32       16.7230   77.8560    7.8950 C.3     1  M7S1        0.0000
     32  C51       21.4380   69.1320   17.8810 C.ar    1  M7S1       -0.0043
     33  C52       21.9260   70.0980   18.8280 C.ar    1  M7S1       -0.0003
     34  C53       21.0180   70.8620   19.6330 C.ar    1  M7S1       -0.0000
     35  C54       19.5900   70.6590   19.4850 C.ar    1  M7S1       -0.0003
     36  C55       19.1080   69.6820   18.5240 C.ar    1  M7S1       -0.0043
     37  C87       15.0640   70.8060    9.4250 C.ar    1  M7S1        0.0550
     38  C97       14.6110   69.5640    9.9230 C.2     1  M7S1        0.2651
     39  C98       16.0340   73.4170    8.3640 C.ar    1  M7S1       -0.0228
     40  C99       16.9800   72.4080    8.8960 C.ar    1  M7S1       -0.0041
     41  N99       15.4730   69.0030   10.8910 N.am    1  M7S1       -0.1967
     42  O99       13.5440   69.0340    9.5230 O.2     1  M7S1       -0.2684
@<TRIPOS>BOND
     1    30    26    1
     2    30    28    1
     3    26    23    1
     4    26    29    1
     5    23    22    1
     6    28    25    1
     7    28    31    1
     8    29    27    1
     9    25    22    1
    10    22    39    1
    11    22    24    1
    12    31    27    1
    13    17    16    1
    14    16    15    1
    15    39    20   ar
    16    39    40   ar
    17    27    24    1
    18    20    19   ar
    19    40    21   ar
    20    19    37   ar
    21    21    37   ar
    22    37    38    1
    23    42    38    2
    24    15     6    1
    25    38    41   am
    26     6    12    1
    27    41    18    1
    28    12    13   ar
    29    12    11   ar
    30    18    11    1
    31    13    14   ar
    32    11    10   ar
    33    14     9   ar
    34    10     9   ar
    35     9     8    1
    36     8     3    1
    37     5     3    1
    38     5     7    1
    39     3     1    1
    40     7    32   ar
    41     7    36   ar
    42    32    33   ar
    43     1     2   ar
    44     1     4   ar
    45    36    35   ar
    46    33    34   ar
    47    35    34   ar
