@<TRIPOS>MOLECULE
3an4_M7R_A_1.pdb
 42 47 0 0 0
SMALL
GASTEIGER

@<TRIPOS>ATOM
      1  C1        18.0490   66.5230   18.5750 C.2     1  M7R1        0.3650
      2  O1        17.9370   65.3340   18.8410 O.co2   1  M7R1       -0.2456
      3  C2        18.3200   67.0500   17.2680 C.3     1  M7R1        0.1121
      4  O2        17.9080   67.4410   19.5670 O.co2   1  M7R1       -0.2456
      5  C3        18.4250   68.6050   17.1700 C.3     1  M7R1        0.0379
      6  O3        17.7420   66.7970   10.6200 O.3     1  M7R1       -0.4757
      7  C4        19.5640   69.2630   17.9530 C.ar    1  M7R1       -0.0216
      8  C5        17.1470   66.5180   16.4300 C.3     1  M7R1        0.0379
      9  C6        17.3460   66.5820   14.9400 C.ar    1  M7R1       -0.0217
     10  C7        16.2450   67.0530   14.1100 C.ar    1  M7R1       -0.0038
     11  C8        16.3820   67.1250   12.6640 C.ar    1  M7R1        0.0331
     12  C9        17.6320   66.7240   12.0270 C.ar    1  M7R1        0.1362
     13  C10       18.7390   66.2510   12.8730 C.ar    1  M7R1        0.0363
     14  C11       18.6010   66.1780   14.3140 C.ar    1  M7R1       -0.0012
     15  C12       19.0420   67.1750   10.1610 C.3     1  M7R1        0.2054
     16  C13       18.9260   67.7320    8.7730 C.3     1  M7R1        0.0473
     17  C14       19.8090   68.9400    8.6600 C.3     1  M7R1        0.0040
     18  C15       15.2520   67.5980   11.8690 C.3     1  M7R1        0.1448
     19  C17       14.2990   71.4310    8.9700 C.ar    1  M7R1        0.0042
     20  C19       14.8030   72.6000    8.2940 C.ar    1  M7R1       -0.0041
     21  C22       16.6480   70.7360    9.5220 C.ar    1  M7R1        0.0042
     22  C23       16.7890   74.1110    7.4910 C.3     1  M7R1        0.0189
     23  C24       17.7390   73.6750    6.3220 C.3     1  M7R1        0.0040
     24  C25       17.5940   75.0070    8.4950 C.3     1  M7R1        0.0040
     25  C26       15.6210   74.9900    6.8820 C.3     1  M7R1        0.0040
     26  C27       18.3050   74.9300    5.5900 C.3     1  M7R1        0.0003
     27  C28       18.1610   76.2690    7.7660 C.3     1  M7R1        0.0003
     28  C29       16.1920   76.2420    6.1500 C.3     1  M7R1        0.0003
     29  C30       19.1060   75.8070    6.6050 C.3     1  M7R1        0.0000
     30  C31       17.1290   75.7730    4.9970 C.3     1  M7R1        0.0000
     31  C32       16.9900   77.1050    7.1720 C.3     1  M7R1        0.0000
     32  C51       19.2960   70.1240   19.0480 C.ar    1  M7R1       -0.0043
     33  C52       20.3460   70.7430   19.7930 C.ar    1  M7R1       -0.0003
     34  C53       21.7060   70.5040   19.4450 C.ar    1  M7R1       -0.0000
     35  C54       22.0200   69.6290   18.3340 C.ar    1  M7R1       -0.0003
     36  C55       20.9460   69.0100   17.5890 C.ar    1  M7R1       -0.0043
     37  C87       15.2160   70.4860    9.5910 C.ar    1  M7R1        0.0550
     38  C97       14.7140   69.3580   10.2290 C.2     1  M7R1        0.2651
     39  C98       16.2400   72.8650    8.2160 C.ar    1  M7R1       -0.0228
     40  C99       17.1610   71.9100    8.8460 C.ar    1  M7R1       -0.0041
     41  N99       15.6080   68.7890   11.1250 N.am    1  M7R1       -0.1967
     42  O99       13.5740   68.9170    9.9920 O.2     1  M7R1       -0.2684
@<TRIPOS>BOND
     1    30    26    1
     2    30    28    1
     3    26    23    1
     4    26    29    1
     5    28    25    1
     6    28    31    1
     7    23    22    1
     8    29    27    1
     9    25    22    1
    10    31    27    1
    11    22    39    1
    12    22    24    1
    13    27    24    1
    14    39    20   ar
    15    39    40   ar
    16    20    19   ar
    17    17    16    1
    18    16    15    1
    19    40    21   ar
    20    19    37   ar
    21    21    37   ar
    22    37    38    1
    23    42    38    2
    24    15     6    1
    25    38    41   am
    26     6    12    1
    27    41    18    1
    28    18    11    1
    29    12    11   ar
    30    12    13   ar
    31    11    10   ar
    32    13    14   ar
    33    10     9   ar
    34    14     9   ar
    35     9     8    1
    36     8     3    1
    37     5     3    1
    38     5     7    1
    39     3     1    1
    40    36     7   ar
    41    36    35   ar
    42     7    32   ar
    43    35    34   ar
    44     1     2   ar
    45     1     4   ar
    46    32    33   ar
    47    34    33   ar
