@<TRIPOS>MOLECULE
3ank_NG6_A_1.pdb
 19 19 0 0 0
SMALL
GASTEIGER

@<TRIPOS>ATOM
      1  C1        14.7540   -5.0570   30.8590 C.3   399  NG6399      0.2917
      2  C2        13.4970   -5.0480   29.9710 C.3   399  NG6399      0.1871
      3  C3        13.5430   -3.9230   28.9240 C.3   399  NG6399      0.2095
      4  C4        14.0270   -2.6010   29.5230 C.3   399  NG6399      0.2135
      5  C5        15.3030   -2.8290   30.3170 C.3   399  NG6399      0.1826
      6  C6        15.7590   -1.5390   30.9700 C.3   399  NG6399      0.2046
      7  C7        14.4130   -7.0150   28.8320 C.2   399  NG6399      0.2421
      8  C8        15.7680   -6.3330   29.0900 C.3   399  NG6399      0.0964
      9  N         13.3540   -6.3470   29.2830 N.am  399  NG6399     -0.1991
     10  O1        14.5270   -5.9080   31.9900 O.3   399  NG6399     -0.1879
     11  O3        12.2220   -3.7360   28.4290 O.3   399  NG6399     -0.2183
     12  O4        13.0210   -2.0530   30.3840 O.3   399  NG6399     -0.2176
     13  O5        15.0400   -3.7490   31.3710 O.3   399  NG6399     -0.3243
     14  O6        16.9260   -1.7880   31.7440 O.3   399  NG6399     -0.2384
     15  O7        14.3470   -8.0950   28.2460 O.2   399  NG6399     -0.2733
     16  S         17.2430   -0.9320   32.8490 S.3   399  NG6399     -0.0001
     17  O1S       16.0060   -0.2090   33.3070 O.2   399  NG6399     -0.3452
     18  O2S       18.2730    0.0870   32.4280 O.2   399  NG6399     -0.3452
     19  O3S       17.7740   -1.7640   33.9750 O.3   399  NG6399     -0.2682
@<TRIPOS>BOND
     1    15     7    2
     2    11     3    1
     3     7     8    1
     4     7     9   am
     5     3     4    1
     6     3     2    1
     7     9     2    1
     8     4     5    1
     9     4    12    1
    10     2     1    1
    11     5     6    1
    12     5    13    1
    13     1    13    1
    14     1    10    1
    15     6    14    1
    16    14    16    1
    17    18    16    2
    18    16    17    2
    19    16    19    1
