@<TRIPOS>MOLECULE
3ank_GCD_A_1.pdb
 11 11 0 0 0
SMALL
GASTEIGER

@<TRIPOS>ATOM
      1  C1        12.2510   -3.4950   27.0300 C.3   400  GCD400      0.2413
      2  C2        11.0130   -4.1470   26.4420 C.3   400  GCD400      0.2297
      3  C3        10.9470   -3.8450   24.9500 C.3   400  GCD400      0.2111
      4  C4        10.9720   -2.3330   24.8150 C.2   400  GCD400      0.0526
      5  C5        11.5920   -1.5490   25.7800 C.2   400  GCD400      0.2164
      6  C6        11.5580   -0.0430   25.6200 C.2   400  GCD400      0.4208
      7  O2        11.0850   -5.5530   26.6510 O.3   400  GCD400     -0.2160
      8  O3         9.7170   -4.3410   24.4110 O.3   400  GCD400     -0.2153
      9  O5        12.2620   -2.0690   26.8540 O.2   400  GCD400     -0.4664
     10  O6A       12.1570    0.6350   26.4740 O.co2 400  GCD400     -0.2371
     11  O6B       10.9670    0.4310   24.6290 O.co2 400  GCD400     -0.2371
@<TRIPOS>BOND
     1     8     3    1
     2    11     6   ar
     3     4     3    1
     4     4     5    2
     5     3     2    1
     6     6     5    1
     7     6    10   ar
     8     5     9    1
     9     2     7    1
    10     2     1    1
    11     9     1    1
