@<TRIPOS>MOLECULE
3anl_NDP_A_1.pdb
 48 52 0 0 0
SMALL
GASTEIGER

@<TRIPOS>ATOM
      1  PA       -13.7950   26.7490   26.3880 P.3   701  NDP701      0.2189
      2  O1A      -13.5860   25.8400   27.5220 O.3   701  NDP701     -0.4371
      3  O2A      -12.6480   27.0940   25.5120 O.2   701  NDP701     -0.5170
      4  O5B      -14.5450   28.0940   26.7960 O.3   701  NDP701     -0.3112
      5  C5B      -15.6820   28.0870   27.6480 C.3   701  NDP701      0.1813
      6  C4B      -16.1800   29.5080   27.7040 C.3   701  NDP701      0.1820
      7  O4B      -17.2780   29.5650   28.6100 O.3   701  NDP701     -0.3136
      8  C3B      -15.0910   30.4240   28.2600 C.3   701  NDP701      0.2157
      9  O3B      -15.2210   31.7170   27.7030 O.3   701  NDP701     -0.2175
     10  C2B      -15.4600   30.4660   29.7410 C.3   701  NDP701      0.2314
     11  O2B      -15.0540   31.6660   30.3280 O.3   701  NDP701     -0.2630
     12  C1B      -16.9800   30.4780   29.6530 C.3   701  NDP701      0.3158
     13  N9A      -17.6640   30.0450   30.8670 N.pl3 701  NDP701     -0.1439
     14  C8A      -17.4220   28.9320   31.6360 C.3   701  NDP701      0.3377
     15  N7A      -18.3380   28.9240   32.6300 N.2   701  NDP701     -0.2095
     16  C5A      -19.1400   30.0040   32.4830 C.2   701  NDP701      0.2526
     17  C6A      -20.2060   30.4850   33.2280 C.2   701  NDP701      0.4393
     18  N6A      -20.6590   29.8180   34.2920 N.pl3 701  NDP701      0.2180
     19  N1A      -20.8340   31.6320   32.8180 N.2   701  NDP701      0.0021
     20  C2A      -20.3910   32.3360   31.6950 C.3   701  NDP701      0.5254
     21  N3A      -19.2960   31.8620   30.9800 N.2   701  NDP701     -0.0055
     22  C4A      -18.7070   30.7190   31.3790 C.2   701  NDP701      0.3518
     23  O3       -14.8630   25.9210   25.4720 O.3   701  NDP701     -0.2703
     24  PN       -14.9280   25.9700   23.8230 P.3   701  NDP701      0.2189
     25  O1N      -13.8280   25.1390   23.2360 O.2   701  NDP701     -0.5170
     26  O2N      -15.1530   27.3240   23.2600 O.3   701  NDP701     -0.4371
     27  O5D      -16.2680   25.0510   23.7250 O.3   701  NDP701     -0.3112
     28  C5D      -17.4990   25.6620   24.2860 C.3   701  NDP701      0.1813
     29  C4D      -18.7590   24.8240   23.9170 C.3   701  NDP701      0.1799
     30  O4D      -18.8130   24.5670   22.5180 O.3   701  NDP701     -0.3327
     31  C3D      -18.6480   23.5100   24.6570 C.3   701  NDP701      0.2158
     32  O3D      -19.9280   23.1640   25.1540 O.3   701  NDP701     -0.2175
     33  C2D      -18.1320   22.5710   23.5820 C.3   701  NDP701      0.2309
     34  O2D      -18.5890   21.2810   23.8100 O.3   701  NDP701     -0.2158
     35  C1D      -18.7600   23.1610   22.3180 C.3   701  NDP701      0.2263
     36  N1N      -18.0610   22.8440   21.0590 N.pl3 701  NDP701     -0.2787
     37  C2N      -16.7240   23.1030   20.9360 C.3   701  NDP701      0.1244
     38  C3N      -16.0970   23.0770   19.6960 C.2   701  NDP701      0.0544
     39  C7N      -14.6280   23.3680   19.6200 C.2   701  NDP701      0.2818
     40  O7N      -13.9670   23.0960   18.4200 O.2   701  NDP701     -0.2670
     41  N7N      -13.9820   23.8700   20.6630 N.am  701  NDP701     -0.0839
     42  C4N      -16.8580   22.7650   18.4230 C.2   701  NDP701      0.0033
     43  C5N      -18.3220   22.5180   18.6740 C.2   701  NDP701      0.0157
     44  C6N      -18.8410   22.5510   19.9630 C.2   701  NDP701      0.0633
     45  P2B      -13.5860   31.7350   31.0270 P.3   701  NDP701      0.5328
     46  O1X      -12.5550   31.0280   30.1590 O.2   701  NDP701     -0.2224
     47  O2X      -13.3510   33.2270   31.0690 O.3   701  NDP701     -0.1145
     48  O3X      -13.6510   31.1360   32.3800 O.3   701  NDP701     -0.1145
@<TRIPOS>BOND
     1    40    39    2
     2    42    43    1
     3    42    38    2
     4    43    44    2
     5    39    38    1
     6    39    41   am
     7    38    37    1
     8    44    36    1
     9    37    36    1
    10    36    35    1
    11    35    30    1
    12    35    33    1
    13    30    29    1
    14    25    24    2
    15    26    24    1
    16    33    34    1
    17    33    31    1
    18    27    24    1
    19    27    28    1
    20    24    23    1
    21    29    28    1
    22    29    31    1
    23    31    32    1
    24    23     1    1
    25     3     1    2
    26     1     4    1
    27     1     2    1
    28     4     5    1
    29     5     6    1
    30     9     8    1
    31     6     8    1
    32     6     7    1
    33     8    10    1
    34     7    12    1
    35    12    10    1
    36    12    13    1
    37    10    11    1
    38    46    45    2
    39    11    45    1
    40    13    22    1
    41    13    14    1
    42    21    22    2
    43    21    20    1
    44    45    47    1
    45    45    48    1
    46    22    16    1
    47    14    15    1
    48    20    19    1
    49    16    15    2
    50    16    17    1
    51    19    17    2
    52    17    18    1
