@<TRIPOS>MOLECULE
3anl_SYC_A_1.pdb
 11 11 0 0 0
SMALL
GASTEIGER

@<TRIPOS>ATOM
      1  C1       -11.4100   16.0650   13.6640 C.ar  800  SYC800      0.0985
      2  N2       -12.3650   15.8510   14.5720 N.ar  800  SYC800     -0.2477
      3  C3       -12.2020   14.9480   15.5640 C.ar  800  SYC800      0.0663
      4  C4       -11.0040   14.2290   15.7210 C.ar  800  SYC800      0.0152
      5  C5       -10.0000   14.4580   14.7820 C.ar  800  SYC800      0.0028
      6  C6       -10.2190   15.3730   13.7510 C.ar  800  SYC800      0.0207
      7  C11      -13.3280   14.7400   16.5240 C.3   800  SYC800      0.1045
      8  P12      -14.2720   13.2020   16.1790 P.3   800  SYC800      0.1232
      9  O15      -15.3460   12.9940   17.2590 O.3   800  SYC800     -0.3569
     10  O16      -13.2310   11.9680   16.1980 O.3   800  SYC800     -0.3569
     11  O17      -14.7870   13.0360   14.7060 O.2   800  SYC800     -0.4597
@<TRIPOS>BOND
     1     1     6   ar
     2     1     2   ar
     3     6     5   ar
     4     2     3   ar
     5    11     8    2
     6     5     4   ar
     7     3     4   ar
     8     3     7    1
     9     8    10    1
    10     8     7    1
    11     8     9    1
