@<TRIPOS>MOLECULE
3anm_SYD_A_1.pdb
 17 18 0 0 0
SMALL
GASTEIGER

@<TRIPOS>ATOM
      1  C1         8.2790   16.9300  -10.8200 C.ar  800  SYD800      0.0000
      2  C2         9.2550   16.6750  -11.8020 C.ar  800  SYD800      0.0000
      3  C3         9.3740   15.3670  -12.3210 C.ar  800  SYD800      0.0015
      4  C4         8.5720   14.2880  -11.9000 C.ar  800  SYD800      0.0000
      5  C5         7.6100   14.5270  -10.8930 C.ar  800  SYD800      0.0000
      6  C6         7.4730   15.8420  -10.3680 C.ar  800  SYD800      0.0000
      7  C12       10.3190   15.1640  -13.3610 C.ar  800  SYD800      0.0192
      8  C13       11.5260   15.8400  -13.3580 C.ar  800  SYD800      0.0984
      9  N14       12.3730   15.7010  -14.3800 N.ar  800  SYD800     -0.2477
     10  C15       12.0810   14.8480  -15.3800 C.ar  800  SYD800      0.0663
     11  C16       10.8950   14.1300  -15.4490 C.ar  800  SYD800      0.0152
     12  C17        9.9870   14.2950  -14.4070 C.ar  800  SYD800      0.0028
     13  C21       13.0980   14.6600  -16.4580 C.3   800  SYD800      0.1045
     14  P22       14.2450   13.2970  -16.1440 P.3   800  SYD800      0.1232
     15  O25       15.2540   13.1380  -17.2860 O.2   800  SYD800     -0.4597
     16  O26       13.3820   11.9220  -16.0830 O.3   800  SYD800     -0.3569
     17  O27       14.8780   13.3420  -14.7130 O.3   800  SYD800     -0.3569
@<TRIPOS>BOND
     1    15    14    2
     2    13    14    1
     3    13    10    1
     4    14    16    1
     5    14    17    1
     6    11    10   ar
     7    11    12   ar
     8    10     9   ar
     9    12     7   ar
    10     9     8   ar
    11     7     8   ar
    12     7     3    1
    13     3     4   ar
    14     3     2   ar
    15     4     5   ar
    16     2     1   ar
    17     5     6   ar
    18     1     6   ar
