@<TRIPOS>MOLECULE
3anm_NDP_A_1.pdb
 48 52 0 0 0
SMALL
GASTEIGER

@<TRIPOS>ATOM
      1  PA        14.0380   26.7660  -26.3390 P.3   410  NDP410      0.2189
      2  O1A       13.7720   25.9300  -27.5300 O.2   410  NDP410     -0.5170
      3  O2A       12.8880   27.1260  -25.4800 O.3   410  NDP410     -0.4371
      4  O5B       14.8490   28.1020  -26.7060 O.3   410  NDP410     -0.3112
      5  C5B       15.9300   28.0890  -27.6190 C.3   410  NDP410      0.1813
      6  C4B       16.4360   29.5160  -27.7200 C.3   410  NDP410      0.1820
      7  O4B       17.4980   29.5260  -28.6620 O.3   410  NDP410     -0.3136
      8  C3B       15.3660   30.4860  -28.2620 C.3   410  NDP410      0.2157
      9  O3B       15.5640   31.7970  -27.7560 O.3   410  NDP410     -0.2175
     10  C2B       15.6630   30.4850  -29.7590 C.3   410  NDP410      0.2314
     11  O2B       15.2700   31.6800  -30.3740 O.3   410  NDP410     -0.2630
     12  C1B       17.1780   30.4480  -29.6980 C.3   410  NDP410      0.3158
     13  N9A       17.8650   30.0180  -30.9040 N.pl3 410  NDP410     -0.1439
     14  C8A       17.6450   28.9170  -31.6850 C.3   410  NDP410      0.3377
     15  N7A       18.5740   28.9330  -32.6680 N.2   410  NDP410     -0.2095
     16  C5A       19.3730   30.0040  -32.5050 C.2   410  NDP410      0.2526
     17  C6A       20.4550   30.4990  -33.2190 C.2   410  NDP410      0.4393
     18  N6A       20.8510   29.8930  -34.3280 N.pl3 410  NDP410      0.2180
     19  N1A       21.0700   31.6470  -32.7940 N.2   410  NDP410      0.0021
     20  C2A       20.6110   32.3330  -31.6850 C.3   410  NDP410      0.5254
     21  N3A       19.5210   31.8320  -30.9940 N.2   410  NDP410     -0.0055
     22  C4A       18.9260   30.7000  -31.4000 C.2   410  NDP410      0.3518
     23  O3        15.0590   25.8800  -25.4510 O.3   410  NDP410     -0.2703
     24  PN        15.2260   25.9070  -23.8350 P.3   410  NDP410      0.2189
     25  O1N       14.2430   24.9170  -23.2780 O.3   410  NDP410     -0.4371
     26  O2N       15.2900   27.2860  -23.2920 O.2   410  NDP410     -0.5170
     27  O5D       16.6640   25.1970  -23.7530 O.3   410  NDP410     -0.3112
     28  C5D       17.8750   25.8630  -24.0550 C.3   410  NDP410      0.1813
     29  C4D       19.0110   24.8550  -23.8700 C.3   410  NDP410      0.1799
     30  O4D       19.0710   24.5480  -22.4820 O.3   410  NDP410     -0.3327
     31  C3D       18.8150   23.5370  -24.6230 C.3   410  NDP410      0.2158
     32  O3D       20.0510   23.0700  -25.1540 O.3   410  NDP410     -0.2175
     33  C2D       18.2760   22.5980  -23.5390 C.3   410  NDP410      0.2309
     34  O2D       18.6200   21.2640  -23.7500 O.3   410  NDP410     -0.2158
     35  C1D       18.9410   23.1490  -22.2740 C.3   410  NDP410      0.2263
     36  N1N       18.2390   22.8640  -20.9940 N.pl3 410  NDP410     -0.2787
     37  C2N       16.8900   23.0950  -20.8820 C.3   410  NDP410      0.1244
     38  C3N       16.2160   22.9870  -19.6730 C.2   410  NDP410      0.0544
     39  C7N       14.7390   23.2490  -19.6250 C.2   410  NDP410      0.2818
     40  O7N       14.0940   22.9720  -18.4170 O.2   410  NDP410     -0.2670
     41  N7N       14.0700   23.7450  -20.6730 N.am  410  NDP410     -0.0839
     42  C4N       16.9450   22.6040  -18.3980 C.2   410  NDP410      0.0033
     43  C5N       18.4160   22.3850  -18.6310 C.2   410  NDP410      0.0157
     44  C6N       18.9930   22.5150  -19.8930 C.2   410  NDP410      0.0633
     45  P2B       13.8160   31.8840  -31.0570 P.3   410  NDP410      0.5328
     46  O1X       12.7690   31.1660  -30.2260 O.3   410  NDP410     -0.1145
     47  O2X       13.6410   33.3860  -30.9920 O.3   410  NDP410     -0.1145
     48  O3X       13.8090   31.3300  -32.4460 O.2   410  NDP410     -0.2224
@<TRIPOS>BOND
     1    18    17    1
     2    17    19    2
     3    17    16    1
     4    19    20    1
     5    15    16    2
     6    15    14    1
     7    16    22    1
     8    48    45    2
     9    20    21    1
    10    14    13    1
    11    22    21    2
    12    22    13    1
    13    45    47    1
    14    45    11    1
    15    45    46    1
    16    13    12    1
    17    11    10    1
    18    10    12    1
    19    10     8    1
    20    12     7    1
    21     7     6    1
    22     8     9    1
    23     8     6    1
    24     6     5    1
    25     5     4    1
    26     2     1    2
    27     4     1    1
    28     1     3    1
    29     1    23    1
    30    23    24    1
    31    32    31    1
    32    31    29    1
    33    31    33    1
    34    28    29    1
    35    28    27    1
    36    29    30    1
    37    24    27    1
    38    24    26    2
    39    24    25    1
    40    34    33    1
    41    33    35    1
    42    30    35    1
    43    35    36    1
    44    36    37    1
    45    36    44    1
    46    37    38    1
    47    41    39   am
    48    44    43    2
    49    38    39    1
    50    38    42    2
    51    39    40    2
    52    43    42    1
