@<TRIPOS>MOLECULE
3ann_NDP_A_1.pdb
 48 52 0 0 0
SMALL
GASTEIGER

@<TRIPOS>ATOM
      1  PA       -13.9440  -27.0420  -26.3010 P.3   701  NDP701      0.2189
      2  O1A      -13.7370  -26.2490  -27.5100 O.2   701  NDP701     -0.5170
      3  O2A      -12.8260  -27.3960  -25.3680 O.3   701  NDP701     -0.4371
      4  O5B      -14.7750  -28.3660  -26.6420 O.3   701  NDP701     -0.3112
      5  C5B      -15.8890  -28.3340  -27.5180 C.3   701  NDP701      0.1813
      6  C4B      -16.3860  -29.7630  -27.5770 C.3   701  NDP701      0.1820
      7  O4B      -17.4430  -29.7660  -28.5230 O.3   701  NDP701     -0.3136
      8  C3B      -15.3030  -30.6920  -28.1440 C.3   701  NDP701      0.2157
      9  O3B      -15.4550  -32.0160  -27.6330 O.3   701  NDP701     -0.2175
     10  C2B      -15.6270  -30.6960  -29.6290 C.3   701  NDP701      0.2314
     11  O2B      -15.2130  -31.8880  -30.2380 O.3   701  NDP701     -0.2630
     12  C1B      -17.1520  -30.7030  -29.5520 C.3   701  NDP701      0.3158
     13  N9A      -17.8390  -30.2660  -30.7630 N.pl3 701  NDP701     -0.1439
     14  C8A      -17.5980  -29.1500  -31.5490 C.3   701  NDP701      0.3377
     15  N7A      -18.5260  -29.1470  -32.5390 N.2   701  NDP701     -0.2095
     16  C5A      -19.3290  -30.2290  -32.3950 C.2   701  NDP701      0.2526
     17  C6A      -20.4190  -30.7270  -33.1160 C.2   701  NDP701      0.4393
     18  N6A      -20.7820  -30.1880  -34.2830 N.pl3 701  NDP701      0.2180
     19  N1A      -21.0300  -31.8800  -32.6880 N.2   701  NDP701      0.0021
     20  C2A      -20.6010  -32.5770  -31.5770 C.3   701  NDP701      0.5254
     21  N3A      -19.5110  -32.0860  -30.8760 N.2   701  NDP701     -0.0055
     22  C4A      -18.8970  -30.9380  -31.2750 C.2   701  NDP701      0.3518
     23  O3       -14.9940  -26.1540  -25.4440 O.3   701  NDP701     -0.2703
     24  PN       -15.1390  -26.2320  -23.8080 P.3   701  NDP701      0.2189
     25  O1N      -14.0980  -25.2980  -23.2530 O.3   701  NDP701     -0.4371
     26  O2N      -15.2990  -27.6080  -23.2690 O.2   701  NDP701     -0.5170
     27  O5D      -16.5430  -25.4720  -23.6810 O.3   701  NDP701     -0.3112
     28  C5D      -17.7640  -26.1470  -23.9890 C.3   701  NDP701      0.1813
     29  C4D      -18.9300  -25.1690  -23.8240 C.3   701  NDP701      0.1799
     30  O4D      -19.0270  -24.8710  -22.4460 O.3   701  NDP701     -0.3327
     31  C3D      -18.7410  -23.8440  -24.5620 C.3   701  NDP701      0.2158
     32  O3D      -19.9810  -23.3910  -25.0960 O.3   701  NDP701     -0.2175
     33  C2D      -18.2100  -22.9100  -23.4720 C.3   701  NDP701      0.2309
     34  O2D      -18.5870  -21.5860  -23.6650 O.3   701  NDP701     -0.2158
     35  C1D      -18.9000  -23.4670  -22.2290 C.3   701  NDP701      0.2263
     36  N1N      -18.2030  -23.1730  -20.9540 N.pl3 701  NDP701     -0.2787
     37  C2N      -16.8510  -23.3890  -20.8640 C.3   701  NDP701      0.1244
     38  C3N      -16.1800  -23.3080  -19.6570 C.2   701  NDP701      0.0544
     39  C7N      -14.7010  -23.5530  -19.6130 C.2   701  NDP701      0.2818
     40  O7N      -14.0550  -23.2770  -18.4070 O.2   701  NDP701     -0.2670
     41  N7N      -14.0400  -24.0480  -20.6640 N.am  701  NDP701     -0.0839
     42  C4N      -16.9270  -22.9910  -18.3710 C.2   701  NDP701      0.0033
     43  C5N      -18.4000  -22.8040  -18.5850 C.2   701  NDP701      0.0157
     44  C6N      -18.9640  -22.8870  -19.8450 C.2   701  NDP701      0.0633
     45  P2B      -13.7870  -32.0410  -30.9830 P.3   701  NDP701      0.5328
     46  O1X      -12.7830  -31.3080  -30.1330 O.3   701  NDP701     -0.1145
     47  O2X      -13.5480  -33.5380  -30.9480 O.3   701  NDP701     -0.1145
     48  O3X      -13.8320  -31.4940  -32.3780 O.2   701  NDP701     -0.2224
@<TRIPOS>BOND
     1    18    17    1
     2    17    19    2
     3    17    16    1
     4    19    20    1
     5    15    16    2
     6    15    14    1
     7    16    22    1
     8    48    45    2
     9    20    21    1
    10    14    13    1
    11    22    21    2
    12    22    13    1
    13    45    47    1
    14    45    11    1
    15    45    46    1
    16    13    12    1
    17    11    10    1
    18    10    12    1
    19    10     8    1
    20    12     7    1
    21     7     6    1
    22     8     9    1
    23     8     6    1
    24     6     5    1
    25     5     4    1
    26     2     1    2
    27     4     1    1
    28     1    23    1
    29     1     3    1
    30    23    24    1
    31    32    31    1
    32    31    29    1
    33    31    33    1
    34    28    29    1
    35    28    27    1
    36    29    30    1
    37    24    27    1
    38    24    26    2
    39    24    25    1
    40    34    33    1
    41    33    35    1
    42    30    35    1
    43    35    36    1
    44    36    37    1
    45    36    44    1
    46    37    38    1
    47    41    39   am
    48    44    43    2
    49    38    39    1
    50    38    42    2
    51    39    40    2
    52    43    42    1
