@<TRIPOS>MOLECULE
3ann_SYE_A_1.pdb
 15 16 0 0 0
SMALL
GASTEIGER

@<TRIPOS>ATOM
      1  C1       -11.1780  -18.0570  -11.8960 C.2   800  SYE800     -0.0188
      2  C2       -12.0800  -17.6250  -12.8730 C.2   800  SYE800      0.0278
      3  C3       -11.7790  -16.5370  -13.7080 C.2   800  SYE800      0.1304
      4  C4       -10.5410  -15.8680  -13.5610 C.2   800  SYE800      0.0257
      5  C5        -9.6270  -16.3150  -12.6070 C.2   800  SYE800     -0.0189
      6  C6        -9.9290  -17.4100  -11.7690 C.3   800  SYE800      0.0522
      7  N11      -12.6830  -16.1220  -14.6420 N.2   800  SYE800     -0.4058
      8  C12      -12.4080  -15.0620  -15.4420 C.2   800  SYE800      0.1163
      9  C13      -11.1870  -14.3710  -15.3520 C.2   800  SYE800      0.0281
     10  C14      -10.2400  -14.7740  -14.3880 C.2   800  SYE800      0.0045
     11  C17      -13.4260  -14.6480  -16.4750 C.3   800  SYE800      0.1176
     12  P18      -14.2820  -13.1440  -15.9950 P.3   800  SYE800      0.1243
     13  O21      -14.7100  -13.2200  -14.5740 O.3   800  SYE800     -0.3568
     14  O22      -15.4580  -12.9840  -17.1100 O.2   800  SYE800     -0.4597
     15  O23      -13.2180  -11.9600  -16.2560 O.3   800  SYE800     -0.3568
@<TRIPOS>BOND
     1    14    12    2
     2    11    12    1
     3    11     8    1
     4    15    12    1
     5    12    13    1
     6     8     9    1
     7     8     7    2
     8     9    10    2
     9     7     3    2
    10    10     4    1
    11     3     4    1
    12     3     2    1
    13     4     5    2
    14     2     1    2
    15     5     6    1
    16     1     6    1
