@<TRIPOS>MOLECULE
3anp_DAO_D_1.pdb
 14 13 0 0 0
SMALL
GASTEIGER

@<TRIPOS>ATOM
      1  O1        33.6400   85.9410   17.7230 O.co2 1003  DAO1003    -0.2457
      2  O2        35.8380   86.2860   17.8330 O.co2 1003  DAO1003    -0.2457
      3  C1        34.7370   85.9560   18.3240 C.2   1003  DAO1003     0.3649
      4  C2        34.7290   85.5280   19.7930 C.3   1003  DAO1003     0.1141
      5  C3        34.4060   86.7090   20.7100 C.3   1003  DAO1003     0.0118
      6  C4        34.4540   86.2890   22.1800 C.3   1003  DAO1003     0.0006
      7  C5        34.1460   87.4690   23.1040 C.3   1003  DAO1003     0.0000
      8  C6        34.1660   87.0410   24.5730 C.3   1003  DAO1003     0.0000
      9  C7        33.6860   88.1830   25.4710 C.3   1003  DAO1003     0.0000
     10  C8        33.4890   87.7200   26.9160 C.3   1003  DAO1003     0.0000
     11  C9        32.6960   88.7650   27.7050 C.3   1003  DAO1003     0.0000
     12  C10       32.2800   88.2400   29.0810 C.3   1003  DAO1003     0.0000
     13  C11       31.2550   89.1690   29.7350 C.3   1003  DAO1003     0.0000
     14  C12       30.7920   88.6250   31.0900 C.3   1003  DAO1003     0.0000
@<TRIPOS>BOND
     1     1     3   ar
     2     2     3   ar
     3     3     4    1
     4     4     5    1
     5     5     6    1
     6     6     7    1
     7     7     8    1
     8     8     9    1
     9     9    10    1
    10    10    11    1
    11    11    12    1
    12    12    13    1
    13    13    14    1
