@<TRIPOS>MOLECULE
3anq_EHB_A_1.pdb
 16 17 0 0 0
SMALL
GASTEIGER

@<TRIPOS>ATOM
      1  N          5.7470   27.3360   12.0130 N.pl3   1  EHB1       -0.2814
      2  O          6.5620   24.1970   14.7460 O.2     1  EHB1       -0.2913
      3  S          7.5380   25.9660   12.9180 S.3     1  EHB1       -0.0707
      4  C1         8.2280   29.0220   10.0220 C.ar    1  EHB1        0.1970
      5  C2         6.9930   28.7220   10.5240 C.ar    1  EHB1        0.0574
      6  C3         6.8310   27.7120   11.4640 C.ar    1  EHB1        0.0612
      7  C4         7.9220   26.9940   11.9120 C.ar    1  EHB1        0.0444
      8  C5         9.1670   27.2980   11.4060 C.ar    1  EHB1        0.0110
      9  C6         9.3210   28.3070   10.4630 C.ar    1  EHB1        0.0426
     10  C7         6.0070   26.3110   12.8820 C.2     1  EHB1        0.0849
     11  C8         5.0920   25.6410   13.6630 C.2     1  EHB1        0.0590
     12  C9         5.3890   24.6200   14.5550 C.2     1  EHB1        0.1753
     13  C10        4.2330   24.0200   15.3310 C.3     1  EHB1        0.0773
     14  C11        4.4640   28.0720   11.6100 C.3     1  EHB1        0.0961
     15  C12        3.1830   27.7330   12.2810 C.3     1  EHB1        0.0236
     16  O13        8.3630   30.0350    9.0840 O.3     1  EHB1       -0.2865
@<TRIPOS>BOND
     1    16     4    1
     2     4     9   ar
     3     4     5   ar
     4     9     8   ar
     5     5     6   ar
     6     8     7   ar
     7     6     7   ar
     8     6     1    1
     9    14     1    1
    10    14    15    1
    11     7     3    1
    12     1    10    1
    13    10     3    1
    14    10    11    2
    15    11    12    1
    16    12     2    2
    17    12    13    1
