@<TRIPOS>MOLECULE
3anr_HRM_A_1.pdb
 16 18 0 0 0
SMALL
GASTEIGER

@<TRIPOS>ATOM
      1  CAB        4.5020   25.2040   14.2410 C.3     1  HRM1        0.0548
      2  CAL        5.9850   25.2420   13.8740 C.ar    1  HRM1        0.0888
      3  NAH        6.8340   24.3240   14.4600 N.ar    1  HRM1       -0.2456
      4  CAC        8.1810   24.2600   14.1990 C.ar    1  HRM1        0.0986
      5  CAE        8.7420   25.1680   13.2880 C.ar    1  HRM1        0.0233
      6  CAO        7.8810   26.1270   12.6760 C.ar    1  HRM1        0.0348
      7  CAP        6.5010   26.1610   12.9720 C.ar    1  HRM1        0.1449
      8  NAI        5.9660   27.1510   12.2530 N.2     1  HRM1       -0.4006
      9  CAM        6.9000   27.7250   11.5450 C.ar    1  HRM1        0.1345
     10  CAG        6.7930   28.7750   10.6760 C.ar    1  HRM1        0.0689
     11  CAN        8.1250   27.1250   11.7640 C.ar    1  HRM1        0.0323
     12  CAF        9.3420   27.5510   11.1010 C.ar    1  HRM1        0.0057
     13  CAD        9.2400   28.6480   10.1800 C.ar    1  HRM1        0.0371
     14  CAK        7.9480   29.2400    9.9930 C.ar    1  HRM1        0.1413
     15  OAJ        7.8320   30.3070    9.1000 O.3     1  HRM1       -0.4713
     16  CAA        6.5460   31.0510    8.9910 C.3     1  HRM1        0.2525
@<TRIPOS>BOND
     1    16    15    1
     2    15    14    1
     3    14    13   ar
     4    14    10   ar
     5    13    12   ar
     6    10     9   ar
     7    12    11   ar
     8     9    11   ar
     9     9     8    2
    10    11     6    2
    11     8     7    2
    12     6     7   ar
    13     6     5   ar
    14     7     2   ar
    15     5     4   ar
    16     2     1    1
    17     2     3   ar
    18     4     3   ar
