@<TRIPOS>MOLECULE
3ans_S38_A_1.pdb
 20 22 0 0 0
SMALL
GASTEIGER

@<TRIPOS>ATOM
      1  C1        22.1520   26.6200  116.2450 C.ar  601  S38601      0.0104
      2  C2        22.1920   27.4510  115.1530 C.ar  601  S38601      0.0685
      3  C3        23.2420   27.4270  114.2600 C.ar  601  S38601      0.0104
      4  C4        24.2840   26.5500  114.4630 C.ar  601  S38601      0.0053
      5  C5        24.2310   25.7190  115.5590 C.ar  601  S38601      0.0551
      6  C6        23.1850   25.7410  116.4530 C.ar  601  S38601      0.0053
      7  C7        25.2970   24.7720  115.8550 C.2   601  S38601      0.2647
      8  N8        25.8460   24.0730  114.8150 N.am  601  S38601     -0.2031
      9  C9        26.5270   22.8670  115.1370 C.3   601  S38601      0.1000
     10  C10       28.0240   22.8490  115.1950 C.3   601  S38601      0.0440
     11  C11       27.3030   22.0600  114.1480 C.3   601  S38601      0.0281
     12  C12       28.7900   22.1510  116.2450 C.ar  601  S38601     -0.0208
     13  C13       28.1980   21.6590  117.3890 C.ar  601  S38601     -0.0042
     14  C14       28.9310   21.0150  118.3610 C.ar  601  S38601     -0.0003
     15  C15       30.2860   20.8470  118.2050 C.ar  601  S38601     -0.0000
     16  C16       30.8930   21.3350  117.0710 C.ar  601  S38601     -0.0003
     17  C17       30.1490   21.9770  116.1070 C.ar  601  S38601     -0.0042
     18  O18       25.6200   24.6670  117.0250 O.2   601  S38601     -0.2684
     19  C19       21.1120   28.3460  114.9670 C.1   601  S38601      0.1004
     20  N20       20.2440   29.1030  114.8260 N.1   601  S38601     -0.1908
@<TRIPOS>BOND
     1    11     9    1
     2    11    10    1
     3     3     4   ar
     4     3     2   ar
     5     4     5   ar
     6     8     9    1
     7     8     7   am
     8    20    19    3
     9    19     2    1
    10     9    10    1
    11     2     1   ar
    12    10    12    1
    13     5     7    1
    14     5     6   ar
    15     7    18    2
    16    17    12   ar
    17    17    16   ar
    18    12    13   ar
    19     1     6   ar
    20    16    15   ar
    21    13    14   ar
    22    15    14   ar
