@<TRIPOS>MOLECULE
3ant_S82_A_1.pdb
 26 29 0 0 0
SMALL
GASTEIGER

@<TRIPOS>ATOM
      1  N1        24.2230   25.1070  116.2560 N.am  601  S82601     -0.2628
      2  C2        25.4360   24.5360  116.5590 C.2   601  S82601      0.3232
      3  N3        26.0590   23.8900  115.5220 N.am  601  S82601     -0.1899
      4  C4        26.8300   22.7310  115.8000 C.3   601  S82601      0.1013
      5  C5        28.3280   22.7740  115.8050 C.3   601  S82601      0.0441
      6  C6        27.6020   22.0100  114.7430 C.3   601  S82601      0.0281
      7  C7        29.1500   22.0800  116.8130 C.ar  601  S82601     -0.0208
      8  C8        28.6150   21.4890  117.9390 C.ar  601  S82601     -0.0042
      9  C9        29.4000   20.8490  118.8740 C.ar  601  S82601     -0.0003
     10  C10       30.7630   20.7910  118.6970 C.ar  601  S82601     -0.0000
     11  C11       31.3180   21.3790  117.5820 C.ar  601  S82601     -0.0003
     12  C12       30.5160   22.0100  116.6570 C.ar  601  S82601     -0.0042
     13  O13       25.9190   24.5870  117.6800 O.2   601  S82601     -0.2508
     14  C14       23.4080   25.5590  117.3480 C.3   601  S82601      0.0955
     15  C15       23.5170   27.0600  117.4660 C.3   601  S82601      0.0321
     16  C16       23.0590   27.6900  116.1690 C.3   601  S82601      0.0960
     17  C17       23.8150   27.1600  114.9660 C.3   601  S82601      0.0321
     18  C18       23.9220   25.6490  114.9540 C.3   601  S82601      0.0955
     19  C19       21.5950   27.6060  116.0080 C.2   601  S82601      0.2929
     20  N20       20.6590   27.6240  116.9280 N.2   601  S82601     -0.3170
     21  C21       19.5230   27.5190  116.1700 C.1   601  S82601      0.1024
     22  N22       19.7290   27.4420  114.8490 N.2   601  S82601     -0.0118
     23  O23       21.1150   27.5020  114.7400 O.2   601  S82601     -0.3159
     24  C24       18.1790   27.4960  116.7840 C.3   601  S82601      0.1005
     25  C25       17.7000   26.0870  117.0460 C.3   601  S82601      0.0171
     26  C26       17.1570   28.2870  115.9980 C.3   601  S82601      0.0171
@<TRIPOS>BOND
     1    23    22    1
     2    23    19    1
     3     6     4    1
     4     6     5    1
     5    22    21    2
     6    18    17    1
     7    18     1    1
     8    17    16    1
     9     3     4    1
    10     3     2   am
    11     4     5    1
    12     5     7    1
    13    26    24    1
    14    19    16    1
    15    19    20    2
    16    16    15    1
    17    21    24    1
    18    21    20    2
    19     1     2   am
    20     1    14    1
    21     2    13    2
    22    12     7   ar
    23    12    11   ar
    24    24    25    1
    25     7     8   ar
    26    14    15    1
    27    11    10   ar
    28     8     9   ar
    29    10     9   ar
