@<TRIPOS>MOLECULE
3anu_PLP_A_1.pdb
 15 15 0 0 0
SMALL
GASTEIGER

@<TRIPOS>ATOM
      1  N1        -5.5450   71.7970   18.4510 N.ar  401  PLP401     -0.2452
      2  C2        -6.1360   70.5700   18.3040 C.ar  401  PLP401      0.0978
      3  C2A       -7.6320   70.4170   18.3000 C.3   401  PLP401      0.0555
      4  C3        -5.3300   69.4500   18.1800 C.ar  401  PLP401      0.2049
      5  O3        -5.9410   68.2350   18.0610 O.3   401  PLP401     -0.2857
      6  C4        -3.9400   69.5810   18.1770 C.ar  401  PLP401      0.0182
      7  C4A       -3.0440   68.3950   18.0370 C.3   401  PLP401      0.0342
      8  C5        -3.3410   70.8240   18.3220 C.ar  401  PLP401      0.0261
      9  C6        -4.1670   71.9290   18.4570 C.ar  401  PLP401      0.0965
     10  C5A       -1.8260   70.9420   18.3020 C.3   401  PLP401      0.1815
     11  O4P       -1.4080   70.7190   16.9580 O.3   401  PLP401     -0.2653
     12  P          0.0300   70.1040   16.5230 P.3   401  PLP401      0.5329
     13  O1P        1.1100   70.7950   17.3000 O.3   401  PLP401     -0.1145
     14  O2P        0.2490   70.3950   15.0590 O.2   401  PLP401     -0.2224
     15  O3P        0.0650   68.6380   16.7760 O.3   401  PLP401     -0.1145
@<TRIPOS>BOND
     1    14    12    2
     2    12    15    1
     3    12    11    1
     4    12    13    1
     5    11    10    1
     6     7     6    1
     7     5     4    1
     8     6     4   ar
     9     6     8   ar
    10     4     2   ar
    11     3     2    1
    12    10     8    1
    13     2     1   ar
    14     8     9   ar
    15     1     9   ar
