@<TRIPOS>MOLECULE
3anv_PLP_A_1.pdb
 15 15 0 0 0
SMALL
GASTEIGER

@<TRIPOS>ATOM
      1  N1        -5.5890   71.7350   18.8220 N.ar  401  PLP401     -0.2452
      2  C2        -6.2580   70.6180   18.3910 C.ar  401  PLP401      0.0978
      3  C2A       -7.7510   70.5250   18.4730 C.3   401  PLP401      0.0555
      4  C3        -5.5170   69.5690   17.8670 C.ar  401  PLP401      0.2049
      5  O3        -6.1890   68.4660   17.4340 O.3   401  PLP401     -0.2857
      6  C4        -4.1220   69.6470   17.7790 C.ar  401  PLP401      0.0182
      7  C4A       -3.3360   68.5120   17.2060 C.3   401  PLP401      0.0342
      8  C5        -3.4450   70.7770   18.2210 C.ar  401  PLP401      0.0261
      9  C6        -4.2100   71.8080   18.7450 C.ar  401  PLP401      0.0965
     10  C5A       -1.9190   70.8910   18.1520 C.3   401  PLP401      0.1815
     11  O4P       -1.3980   70.6460   16.8450 O.3   401  PLP401     -0.2653
     12  P          0.0910   70.0930   16.5080 P.3   401  PLP401      0.5329
     13  O1P        0.4340   70.4330   15.0990 O.2   401  PLP401     -0.2224
     14  O2P        0.1570   68.6240   16.7170 O.3   401  PLP401     -0.1145
     15  O3P        1.0840   70.7480   17.4310 O.3   401  PLP401     -0.1145
@<TRIPOS>BOND
     1    13    12    2
     2    12    14    1
     3    12    11    1
     4    12    15    1
     5    11    10    1
     6     7     6    1
     7     5     4    1
     8     6     4   ar
     9     6     8   ar
    10     4     2   ar
    11    10     8    1
    12     8     9   ar
    13     2     3    1
    14     2     1   ar
    15     9     1   ar
