@<TRIPOS>MOLECULE
3anx_MTA_A_1.pdb
 20 22 0 0 0
SMALL
GASTEIGER

@<TRIPOS>ATOM
      1  CS        38.4280   66.5230  125.1880 C.3   315  MTA315      0.0693
      2  S5'       37.9990   66.3180  123.4280 S.3   315  MTA315     -0.1367
      3  C5'       38.3650   67.5600  123.0100 C.3   315  MTA315      0.0899
      4  C4'       38.9900   68.9890  123.0820 C.3   315  MTA315      0.1630
      5  O4'       38.1670   70.0990  122.6350 O.3   315  MTA315     -0.3153
      6  C2'       38.4910   70.5060  124.9110 C.3   315  MTA315      0.2569
      7  O2'       39.2980   71.4470  125.6150 O.3   315  MTA315     -0.2130
      8  C3'       39.3950   69.3740  124.4910 C.3   315  MTA315      0.2168
      9  O3'       40.6860   69.9370  124.3440 O.3   315  MTA315     -0.2175
     10  C1'       38.0290   71.1570  123.6110 C.3   315  MTA315      0.3185
     11  N9        36.7070   71.9680  123.6810 N.pl3 315  MTA315     -0.1439
     12  C8        35.6710   71.8200  124.5490 C.3   315  MTA315      0.3377
     13  N7        34.6780   72.7380  124.2980 N.2   315  MTA315     -0.2095
     14  C5        35.0250   73.5170  123.2760 C.2   315  MTA315      0.2526
     15  C6        34.4450   74.6700  122.5210 C.2   315  MTA315      0.4393
     16  N6        33.2290   75.2100  122.8310 N.pl3 315  MTA315      0.2180
     17  N1        35.1500   75.2160  121.4890 N.2   315  MTA315      0.0021
     18  C2        36.3490   74.7260  121.1990 C.3   315  MTA315      0.5254
     19  N3        36.9150   73.6940  121.8460 N.2   315  MTA315     -0.0055
     20  C4        36.3390   73.0250  122.8750 C.2   315  MTA315      0.3518
@<TRIPOS>BOND
     1    18    17    1
     2    18    19    1
     3    17    15    2
     4    19    20    2
     5    15    16    1
     6    15    14    1
     7     5     4    1
     8     5    10    1
     9    20    14    1
    10    20    11    1
    11     3     4    1
    12     3     2    1
    13     4     8    1
    14    14    13    2
    15     2     1    1
    16    10    11    1
    17    10     6    1
    18    11    12    1
    19    13    12    1
    20     9     8    1
    21     8     6    1
    22     6     7    1
