@<TRIPOS>MOLECULE
3ao1_BZX_A_1.pdb
 10 11 0 0 0
SMALL
GASTEIGER

@<TRIPOS>ATOM
      1  C1        19.6760    8.1270   10.5730 C.ar  213  BZX213      0.0822
      2  C2        20.8500    7.7520   11.2100 C.ar  213  BZX213      0.1990
      3  C3        22.1250    8.1560   10.7810 C.ar  213  BZX213      0.0454
      4  C4        22.2940    8.9750    9.6620 C.ar  213  BZX213      0.0435
      5  C5        21.1340    9.3620    9.0160 C.ar  213  BZX213      0.1766
      6  C6        19.8210    8.9430    9.4710 C.ar  213  BZX213      0.1796
      7  O7        18.8870    9.4690    8.6220 O.3   213  BZX213     -0.4345
      8  C8        19.5820    9.9360    7.4590 C.3   213  BZX213      0.4294
      9  O9        20.9380   10.1230    7.9060 O.3   213  BZX213     -0.4346
     10  O10       20.7400    6.9580   12.2930 O.3   213  BZX213     -0.2865
@<TRIPOS>BOND
     1     8     9    1
     2     8     7    1
     3     9     5    1
     4     7     6    1
     5     5     6   ar
     6     5     4   ar
     7     6     1   ar
     8     4     3   ar
     9     1     2   ar
    10     3     2   ar
    11     2    10    1
