@<TRIPOS>MOLECULE
3ao2_AVX_A_1.pdb
 17 19 0 0 0
SMALL
GASTEIGER

@<TRIPOS>ATOM
      1  C1         8.5180  -22.2800   -5.6960 C.ar    1  AVX1        0.0418
      2  C2         9.6330  -22.2010   -6.5780 C.ar    1  AVX1        0.0231
      3  C3        10.6110  -21.2110   -6.4820 C.ar    1  AVX1        0.0115
      4  C4        10.5430  -20.2270   -5.5330 C.ar    1  AVX1        0.0717
      5  C5         9.4210  -20.2350   -4.6000 C.ar    1  AVX1        0.1825
      6  C6         8.4270  -21.2810   -4.7080 C.ar    1  AVX1        0.1770
      7  O7         7.5400  -21.0060   -3.7100 O.3     1  AVX1       -0.4346
      8  C8         7.9950  -19.9210   -2.8750 C.3     1  AVX1        0.4294
      9  O9         9.1330  -19.3870   -3.5670 O.3     1  AVX1       -0.4341
     10  C10        9.9500  -23.1890   -7.6470 C.ar    1  AVX1        0.1039
     11  N11       11.2490  -23.6360   -7.7740 N.ar    1  AVX1       -0.1680
     12  N12       11.2570  -24.5530   -8.8270 N.ar    1  AVX1       -0.2328
     13  C13       10.0070  -24.6320   -9.2800 C.ar    1  AVX1        0.1684
     14  C14        9.1160  -23.8120   -8.5900 C.ar    1  AVX1        0.0581
     15 BR15       11.8100  -18.8850   -5.3540 Br      1  AVX1       -0.0457
     16  C16       12.5700  -25.1820   -9.1680 C.3     1  AVX1        0.1553
     17  N17        9.6610  -25.4450  -10.3170 N.pl3   1  AVX1       -0.1075
@<TRIPOS>BOND
     1    17    13    1
     2    13    12   ar
     3    13    14   ar
     4    16    12    1
     5    12    11   ar
     6    14    10   ar
     7    11    10   ar
     8    10     2    1
     9     2     3   ar
    10     2     1   ar
    11     3     4   ar
    12     1     6   ar
    13     4    15    1
    14     4     5   ar
    15     6     5   ar
    16     6     7    1
    17     5     9    1
    18     7     8    1
    19     9     8    1
