@<TRIPOS>MOLECULE
3ao3_BMC_A_1.pdb
 18 20 0 0 0
SMALL
GASTEIGER

@<TRIPOS>ATOM
      1  C1        -1.3540   12.5510   -5.9100 C.ar    1  BMC1        0.0417
      2  C2        -0.6300   11.5350   -6.5540 C.ar    1  BMC1        0.0226
      3  C3        -0.6520   10.1890   -6.1350 C.ar    1  BMC1        0.0049
      4  C4        -1.3920    9.7730   -5.0370 C.ar    1  BMC1        0.0402
      5  C5        -2.1100   10.7560   -4.3820 C.ar    1  BMC1        0.1764
      6  C6        -2.0880   12.1380   -4.8030 C.ar    1  BMC1        0.1765
      7  O7        -2.8860   12.8340   -3.9350 O.3     1  BMC1       -0.4346
      8  C8        -3.4330   11.9550   -2.9310 C.3     1  BMC1        0.4294
      9  O9        -2.9130   10.6770   -3.2920 O.3     1  BMC1       -0.4346
     10  C10        0.1780   11.9020   -7.7480 C.ar    1  BMC1        0.1027
     11  C11       -0.2820   11.8510   -9.0660 C.ar    1  BMC1        0.0463
     12  C12        0.7490   12.2760   -9.8890 C.ar    1  BMC1        0.1590
     13  N13        1.7620   12.5710   -9.0750 N.ar    1  BMC1       -0.2424
     14  N14        1.4490   12.3660   -7.7370 N.ar    1  BMC1       -0.1690
     15  C15        0.7350   12.3990  -11.3730 C.2     1  BMC1        0.4048
     16  O16        0.7070   11.3630  -12.0790 O.co2   1  BMC1       -0.2389
     17  O17        0.7320   13.5610  -11.8580 O.co2   1  BMC1       -0.2389
     18  C18        3.1230   13.0770   -9.3280 C.3     1  BMC1        0.1540
@<TRIPOS>BOND
     1    16    15   ar
     2    17    15   ar
     3    15    12    1
     4    12    13   ar
     5    12    11   ar
     6    18    13    1
     7    13    14   ar
     8    11    10   ar
     9    10    14   ar
    10    10     2    1
    11     2     3   ar
    12     2     1   ar
    13     3     4   ar
    14     1     6   ar
    15     4     5   ar
    16     6     5   ar
    17     6     7    1
    18     5     9    1
    19     7     8    1
    20     9     8    1
