@<TRIPOS>MOLECULE
3ao4_833_A_1.pdb
 16 18 0 0 0
SMALL
GASTEIGER

@<TRIPOS>ATOM
      1  C1        -0.6520   11.6500   -6.5400 C.ar    1  8331        0.0417
      2  C2        -0.8490   10.4700   -5.7750 C.ar    1  8331        0.0227
      3  C3        -1.5910   10.5010   -4.5500 C.ar    1  8331        0.0049
      4  C4        -2.1620   11.6710   -4.0350 C.ar    1  8331        0.0402
      5  C5        -1.9850   12.8300   -4.7640 C.ar    1  8331        0.1764
      6  C6        -1.2370   12.8160   -6.0400 C.ar    1  8331        0.1765
      7  O7        -1.2350   14.1090   -6.5130 O.3     1  8331       -0.4346
      8  C8        -2.0680   14.9240   -5.6440 C.3     1  8331        0.4294
      9  O9        -2.3960   14.1190   -4.5040 O.3     1  8331       -0.4346
     10  C10       -0.2840    9.1620   -6.2260 C.ar    1  8331        0.1039
     11  C11       -0.0680    8.0430   -5.4000 C.ar    1  8331        0.0581
     12  C12        0.4600    7.0540   -6.2300 C.ar    1  8331        0.1684
     13  N13        0.5620    7.4950   -7.4820 N.ar    1  8331       -0.2328
     14  N14        0.1080    8.8360   -7.5070 N.ar    1  8331       -0.1680
     15  N15        0.8210    5.7850   -5.8370 N.pl3   1  8331       -0.1075
     16  C16        1.0560    6.9050   -8.7640 C.3     1  8331        0.1553
@<TRIPOS>BOND
     1    16    13    1
     2    14    13   ar
     3    14    10   ar
     4    13    12   ar
     5     1     6   ar
     6     1     2   ar
     7     7     6    1
     8     7     8    1
     9    12    15    1
    10    12    11   ar
    11    10     2    1
    12    10    11   ar
    13     6     5   ar
    14     2     3   ar
    15     8     9    1
    16     5     9    1
    17     5     4   ar
    18     3     4   ar
