@<TRIPOS>MOLECULE
3ao5_BBY_A_1.pdb
 17 19 0 0 0
SMALL
GASTEIGER

@<TRIPOS>ATOM
      1  C1        14.9450  -10.0780   -5.7960 C.ar  213  BBY213      0.0417
      2  C2        14.3810   -9.2090   -6.7500 C.ar  213  BBY213      0.0211
      3  C3        13.0470   -8.7730   -6.6830 C.ar  213  BBY213      0.0114
      4  C4        12.1860   -9.1890   -5.6720 C.ar  213  BBY213      0.0717
      5  C5        12.7530  -10.0970   -4.6580 C.ar  213  BBY213      0.1825
      6  C6        14.1370  -10.5180   -4.7580 C.ar  213  BBY213      0.1770
      7  O7        14.3840  -11.3570   -3.7090 O.3   213  BBY213     -0.4346
      8  C8        13.1300  -11.6490   -3.0480 C.3   213  BBY213      0.4294
      9  O9        12.1950  -10.6810   -3.5620 O.3   213  BBY213     -0.4341
     10  C10       15.2360   -8.7130   -7.8650 C.ar  213  BBY213      0.0810
     11  N11       15.1040   -7.5430   -8.5250 N.ar  213  BBY213     -0.2475
     12  N12       16.0820   -7.3810   -9.5150 N.ar  213  BBY213     -0.1508
     13  C13       16.7910   -8.5140   -9.3860 C.ar  213  BBY213      0.1906
     14  C14       16.3390   -9.3730   -8.4020 C.ar  213  BBY213      0.0581
     15 BR15       10.3970   -8.6090   -5.5840 Br    213  BBY213     -0.0457
     16  C16       14.1460   -6.4130   -8.4300 C.3   213  BBY213      0.1538
     17  N17       17.8660   -8.7930  -10.1640 N.pl3 213  BBY213     -0.1053
@<TRIPOS>BOND
     1    17    13    1
     2    12    13   ar
     3    12    11   ar
     4    13    14   ar
     5    11    16    1
     6    11    10   ar
     7    14    10   ar
     8    10     2    1
     9     2     3   ar
    10     2     1   ar
    11     3     4   ar
    12     1     6   ar
    13     4    15    1
    14     4     5   ar
    15     6     5   ar
    16     6     7    1
    17     5     9    1
    18     7     8    1
    19     9     8    1
