@<TRIPOS>MOLECULE
3aod_MIY_A_1.pdb
 33 36 0 0 0
SMALL
GASTEIGER

@<TRIPOS>ATOM
      1  O8       -44.3650   21.3530  -55.5290 O.2   2001  MIY2001    -0.2711
      2  C21      -44.9460   22.2540  -54.9350 C.2   2001  MIY2001     0.2700
      3  N2       -45.7050   23.1480  -55.5790 N.am  2001  MIY2001    -0.0874
      4  C2       -44.8280   22.3870  -53.4650 C.3   2001  MIY2001     0.1712
      5  C1       -44.3440   23.6510  -52.8780 C.2   2001  MIY2001     0.1913
      6  O1       -44.0780   24.6130  -53.5910 O.2   2001  MIY2001    -0.2928
      7  C3       -45.1630   21.3530  -52.6600 C.3   2001  MIY2001     0.1823
      8  O2       -45.3020   20.1400  -53.2040 O.3   2001  MIY2001    -0.2207
      9  C4       -45.4150   21.5040  -51.1580 C.3   2001  MIY2001     0.0919
     10  N1       -44.6940   20.4790  -50.3140 N.3   2001  MIY2001    -0.2692
     11  C20      -44.4340   20.9240  -48.9280 C.3   2001  MIY2001     0.0897
     12  C19      -43.4260   19.9680  -50.8840 C.3   2001  MIY2001     0.0897
     13  C5       -45.2680   22.9580  -50.6640 C.3   2001  MIY2001     0.0545
     14  C18      -44.1790   23.7620  -51.3770 C.3   2001  MIY2001     0.2066
     15  O7       -42.8990   23.2340  -51.0110 O.3   2001  MIY2001    -0.2154
     16  C17      -44.2360   25.2290  -50.9800 C.3   2001  MIY2001     0.1892
     17  O6       -43.2890   26.0220  -51.4760 O.3   2001  MIY2001    -0.2199
     18  C16      -45.1820   25.7390  -50.1650 C.3   2001  MIY2001     0.0685
     19  C7       -46.4820   25.0170  -49.9060 C.3   2001  MIY2001     0.0099
     20  C6       -46.5860   23.7380  -50.7400 C.3   2001  MIY2001     0.0049
     21  C15      -44.9600   27.0440  -49.4280 C.3   2001  MIY2001     0.1795
     22  O5       -44.0060   27.8930  -50.0830 O.3   2001  MIY2001    -0.2181
     23  C14      -46.2140   27.7980  -49.1000 C.ar  2001  MIY2001     0.0439
     24  C9       -47.4870   27.2950  -49.4190 C.ar  2001  MIY2001    -0.0074
     25  C8       -47.6600   25.9630  -50.1480 C.3   2001  MIY2001     0.0276
     26  C13      -46.0990   29.0220  -48.4300 C.ar  2001  MIY2001     0.1939
     27  O4       -44.8870   29.5420  -48.0910 O.3   2001  MIY2001    -0.2868
     28  C12      -47.2250   29.7520  -48.0850 C.ar  2001  MIY2001     0.0430
     29  C11      -48.4800   29.2640  -48.4090 C.ar  2001  MIY2001     0.0175
     30  C10      -48.6200   28.0440  -49.0750 C.ar  2001  MIY2001     0.0439
     31  N7       -49.9230   27.5870  -49.3860 N.pl3 2001  MIY2001    -0.3043
     32  CN7      -50.3750   28.1030  -50.6910 C.3   2001  MIY2001     0.1122
     33  C71      -50.8900   28.0210  -48.3630 C.3   2001  MIY2001     0.1122
@<TRIPOS>BOND
     1     3     2   am
     2     1     2    2
     3     2     4    1
     4     6     5    2
     5     4     5    1
     6     4     7    1
     7     8     7    1
     8     5    14    1
     9     7     9    1
    10    17    16    1
    11    14    15    1
    12    14    16    1
    13    14    13    1
    14     9    13    1
    15     9    10    1
    16    16    18    1
    17    12    10    1
    18    20    13    1
    19    20    19    1
    20    32    31    1
    21    10    11    1
    22    18    19    1
    23    18    21    1
    24    25    19    1
    25    25    24    1
    26    22    21    1
    27    21    23    1
    28    24    23   ar
    29    24    30   ar
    30    31    30    1
    31    31    33    1
    32    23    26   ar
    33    30    29   ar
    34    26    27    1
    35    26    28   ar
    36    29    28   ar
