@<TRIPOS>MOLECULE
3aof_BMA_B_1.pdb
 12 12 0 0 0
SMALL
GASTEIGER

@<TRIPOS>ATOM
      1  C1         8.5760  -11.8750    0.1450 C.3   401  BMA401      0.3024
      2  C2         9.0470  -12.8610   -0.8480 C.3   401  BMA401      0.2434
      3  C3         8.7620  -12.5180   -2.2390 C.3   401  BMA401      0.2199
      4  C4         7.3240  -12.1440   -2.4180 C.3   401  BMA401      0.2144
      5  C5         7.1000  -10.8880   -1.6150 C.3   401  BMA401      0.1836
      6  C6         5.7240  -10.3660   -1.7440 C.3   401  BMA401      0.2142
      7  O1         8.3000  -12.5440    1.2840 O.3   401  BMA401     -0.1869
      8  O2         8.4420  -14.1210   -0.5410 O.3   401  BMA401     -0.2148
      9  O3         9.1800  -13.6340   -3.0170 O.3   401  BMA401     -0.2174
     10  O4         6.9480  -11.9290   -3.8070 O.3   401  BMA401     -0.2176
     11  O5         7.3530  -11.0660   -0.2260 O.3   401  BMA401     -0.3236
     12  O6         4.7110  -11.1420   -1.1070 O.3   401  BMA401     -0.2176
@<TRIPOS>BOND
     1    10     4    1
     2     9     3    1
     3     4     3    1
     4     4     5    1
     5     3     2    1
     6     6     5    1
     7     6    12    1
     8     5    11    1
     9     2     8    1
    10     2     1    1
    11    11     1    1
    12     1     7    1
