@<TRIPOS>MOLECULE
3aog_GLU_A_1.pdb
 10 9 0 0 0
SMALL
GASTEIGER

@<TRIPOS>ATOM
      1  N        -10.5680   23.9930   10.2620 N.3   500  GLU500     -0.1208
      2  CA       -10.5200   22.5690   10.6730 C.3   500  GLU500      0.1949
      3  C        -11.5120   22.3360   11.8000 C.2   500  GLU500      0.3819
      4  O        -12.0000   21.2150   12.0410 O.co2 500  GLU500     -0.2441
      5  CB        -9.0800   22.2690   11.0630 C.3   500  GLU500      0.0424
      6  CG        -8.8130   21.0150   11.7950 C.3   500  GLU500      0.1161
      7  CD        -7.4050   21.0060   12.3480 C.2   500  GLU500      0.3649
      8  OE1       -7.2390   20.6900   13.5400 O.co2 500  GLU500     -0.2457
      9  OE2       -6.4680   21.3420   11.5980 O.co2 500  GLU500     -0.2457
     10  OXT      -11.9030   23.2970   12.4700 O.co2 500  GLU500     -0.2441
@<TRIPOS>BOND
     1     1     2    1
     2     2     5    1
     3     2     3    1
     4     5     6    1
     5     9     7   ar
     6     6     7    1
     7     3     4   ar
     8     3    10   ar
     9     7     8   ar
