@<TRIPOS>MOLECULE
3aos_JH2_A_1.pdb
 20 20 0 0 0
SMALL
GASTEIGER

@<TRIPOS>ATOM
      1  C1        16.2760    0.8590    9.8180 C.2   301  JH2301      0.3409
      2  O1        16.6640    0.3900   11.1460 O.3   301  JH2301     -0.4413
      3  C2        17.2630    0.7870    8.7150 C.2   301  JH2301      0.0734
      4  O2        15.1530    1.3250    9.6400 O.2   301  JH2301     -0.2449
      5  C3        16.9640    0.9750    7.4130 C.2   301  JH2301     -0.0372
      6  O3        13.9870   -5.0490    5.3580 O.3   301  JH2301     -0.3562
      7  C4        18.0780    0.8850    6.3840 C.3   301  JH2301      0.0269
      8  C5        18.7510   -0.4930    6.3290 C.3   301  JH2301      0.0297
      9  C6        17.7500   -1.5900    6.0460 C.2   301  JH2301     -0.0343
     10  C7        17.4900   -2.5680    6.9430 C.2   301  JH2301     -0.0481
     11  C8        16.4710   -3.6500    6.6680 C.3   301  JH2301      0.0243
     12  C9        16.0270   -3.6970    5.2100 C.3   301  JH2301      0.0363
     13  C10       15.3600   -5.0480    4.9340 C.3   301  JH2301      0.1400
     14  C11       14.2090   -4.9560    3.9470 C.3   301  JH2301      0.1176
     15  C12       13.8900   -3.5950    3.3330 C.3   301  JH2301      0.0296
     16  C13       12.4090   -3.4130    3.1100 C.3   301  JH2301      0.0026
     17  C14       15.5510    1.2870    6.9500 C.3   301  JH2301      0.0266
     18  C15       18.1800   -2.6110    8.2770 C.3   301  JH2301      0.0260
     19  C16       14.0600   -6.2270    3.1110 C.3   301  JH2301      0.0321
     20  C17       15.6730    0.2850   12.1660 C.3   301  JH2301      0.2560
@<TRIPOS>BOND
     1    16    15    1
     2    19    14    1
     3    15    14    1
     4    14    13    1
     5    14     6    1
     6    13    12    1
     7    13     6    1
     8    12    11    1
     9     9     8    1
    10     9    10    2
    11     8     7    1
    12     7     5    1
    13    11    10    1
    14    10    18    1
    15    17     5    1
    16     5     3    2
    17     3     1    1
    18     4     1    2
    19     1     2    1
    20     2    20    1
