@<TRIPOS>MOLECULE
3aov_PLP_A_1.pdb
 15 15 0 0 0
SMALL
GASTEIGER

@<TRIPOS>ATOM
      1  N1         6.3570   -6.7680   47.6540 N.2   429  PLP429     -0.2764
      2  C2         6.1380   -7.9910   48.2240 C.2   429  PLP429      0.0619
      3  C2A        7.0280   -8.4170   49.3450 C.3   429  PLP429      0.0495
      4  C3         5.0980   -8.8130   47.7830 C.3   429  PLP429      0.1872
      5  O3         4.9150  -10.0220   48.3580 O.3   429  PLP429     -0.2170
      6  C4         4.2540   -8.4100   46.7580 C.3   429  PLP429      0.0403
      7  C4A        2.8000   -8.8410   46.7730 C.3   429  PLP429      0.0032
      8  C5         4.4990   -7.1820   46.1890 C.3   429  PLP429      0.0574
      9  C6         5.5390   -6.3760   46.6300 C.3   429  PLP429      0.1274
     10  C5A        3.3650   -6.5440   45.4400 C.3   429  PLP429      0.1558
     11  O4P        3.8820   -6.1090   44.2370 O.3   429  PLP429     -0.2702
     12  P          2.9730   -5.3030   43.2260 P.3   429  PLP429      0.5326
     13  O1P        1.8170   -6.1470   42.8150 O.3   429  PLP429     -0.1145
     14  O2P        3.8370   -4.9620   42.0800 O.2   429  PLP429     -0.2224
     15  O3P        2.4890   -4.0720   43.8910 O.3   429  PLP429     -0.1145
@<TRIPOS>BOND
     1    14    12    2
     2    13    12    1
     3    12    15    1
     4    12    11    1
     5    11    10    1
     6    10     8    1
     7     8     9    1
     8     8     6    1
     9     9     1    1
    10     6     7    1
    11     6     4    1
    12     1     2    2
    13     4     2    1
    14     4     5    1
    15     2     3    1
