@<TRIPOS>MOLECULE
3aow_PLP_A_1.pdb
 15 15 0 0 0
SMALL
GASTEIGER

@<TRIPOS>ATOM
      1  N1         6.2870    7.0130   20.5210 N.2   429  PLP429     -0.2505
      2  C2         6.1450    8.1870   19.9220 C.2   429  PLP429      0.0675
      3  C2A        7.1340    8.5970   18.8420 C.3   429  PLP429      0.0499
      4  C3         4.9830    8.9670   20.2640 C.3   429  PLP429      0.1913
      5  O3         4.8460   10.1560   19.6290 O.3   429  PLP429     -0.2167
      6  C4         4.0600    8.5000   21.2090 C.3   429  PLP429      0.0581
      7  C4A        2.6670    9.0780   21.2420 C.3   429  PLP429      0.0075
      8  C5         4.2610    7.2410   21.8070 C.2   429  PLP429      0.0073
      9  C6         5.4350    6.5460   21.5020 C.2   429  PLP429      0.0921
     10  C5A        3.3010    6.7330   22.8490 C.3   429  PLP429      0.1776
     11  O4P        3.9480    6.0840   23.8900 O.3   429  PLP429     -0.2656
     12  P          3.1160    5.3390   24.9900 P.3   429  PLP429      0.5329
     13  O1P        1.9450    6.2790   25.3910 O.3   429  PLP429     -0.1145
     14  O2P        4.0890    5.0610   26.0930 O.3   429  PLP429     -0.1145
     15  O3P        2.5540    4.1170   24.3470 O.2   429  PLP429     -0.2224
@<TRIPOS>BOND
     1     3     2    1
     2     5     4    1
     3     2     4    1
     4     2     1    2
     5     4     6    1
     6     1     9    1
     7     6     7    1
     8     6     8    1
     9     9     8    2
    10     8    10    1
    11    10    11    1
    12    11    12    1
    13    15    12    2
    14    12    13    1
    15    12    14    1
