@<TRIPOS>MOLECULE
3aow_AKG_A_1.pdb
 10 9 0 0 0
SMALL
GASTEIGER

@<TRIPOS>ATOM
      1  C1         6.1310   12.1480   25.9130 C.2   430  AKG430      0.4219
      2  O1         6.9610   13.0200   26.3220 O.co2 430  AKG430     -0.2373
      3  O2         6.5310   11.0510   25.4450 O.co2 430  AKG430     -0.2373
      4  C2         4.6860   12.3960   26.0930 C.2   430  AKG430      0.2526
      5  O5         3.7290   12.0790   25.3300 O.2   430  AKG430     -0.2843
      6  C3         4.2770   12.9960   27.3780 C.3   430  AKG430      0.0881
      7  C4         2.9100   12.4000   27.6360 C.3   430  AKG430      0.1224
      8  C5         2.5920   12.9340   28.9970 C.2   430  AKG430      0.3653
      9  O3         2.2590   14.1630   29.0890 O.co2 430  AKG430     -0.2456
     10  O4         2.7320   12.1350   30.0000 O.co2 430  AKG430     -0.2456
@<TRIPOS>BOND
     1     5     4    2
     2     3     1   ar
     3     1     4    1
     4     1     2   ar
     5     4     6    1
     6     6     7    1
     7     7     8    1
     8     8     9   ar
     9     8    10   ar
