@<TRIPOS>MOLECULE
3aox_EMH_A_1.pdb
 36 41 0 0 0
SMALL
GASTEIGER

@<TRIPOS>ATOM
      1  C4       -22.4010   14.1550  -10.5160 C.ar  901  EMH901      0.0034
      2  C5       -20.1640   15.1350  -10.7330 C.ar  901  EMH901      0.0710
      3  C6       -21.5450   15.1350  -11.0290 C.ar  901  EMH901      0.0104
      4  C7       -22.4310   12.1100   -9.0180 C.2   901  EMH901      0.0670
      5  C8       -21.4340   11.4490   -8.3300 C.2   901  EMH901      0.1150
      6  C10      -24.6420    8.1130   -6.6440 C.ar  901  EMH901      0.0435
      7  C13      -25.3930    9.9110   -8.0880 C.ar  901  EMH901     -0.0002
      8  C15      -24.0840   10.3960   -8.1500 C.ar  901  EMH901      0.0352
      9  C17      -21.6250   10.2130   -7.4880 C.3   901  EMH901      0.0656
     10  C21      -21.2180   10.5350   -6.0410 C.3   901  EMH901      0.0114
     11  C22      -20.6900    9.1620   -8.0760 C.3   901  EMH901      0.0114
     12  C24      -28.1260    9.4070   -7.0980 C.3   901  EMH901      0.0051
     13  C26      -25.1870    4.2990   -4.7470 C.3   901  EMH901      0.0611
     14  C28      -25.9750    4.7210   -5.9880 C.3   901  EMH901      0.0374
     15  N19      -18.6010   16.8220  -11.6880 N.1   901  EMH901     -0.1908
     16  C18      -19.3540   16.0480  -11.2240 C.1   901  EMH901      0.1005
     17  C3       -19.6410   14.1530   -9.8910 C.ar  901  EMH901      0.0423
     18  C1       -20.4810   13.1820   -9.3580 C.ar  901  EMH901      0.1318
     19  C2       -21.8460   13.1890   -9.6630 C.ar  901  EMH901      0.0349
     20  N9       -20.2580   12.1110   -8.5280 N.2   901  EMH901     -0.4058
     21  C14      -23.0250    9.7500   -7.4660 C.ar  901  EMH901     -0.0122
     22  C16      -23.8330   11.6270   -8.9630 C.2   901  EMH901      0.1975
     23  O20      -24.7640   12.1950   -9.5580 O.2   901  EMH901     -0.2865
     24  C12      -23.3280    8.5880   -6.7070 C.ar  901  EMH901      0.0104
     25  C11      -25.6720    8.7690   -7.3210 C.ar  901  EMH901     -0.0088
     26  C23      -27.1110    8.2840   -7.2630 C.3   901  EMH901      0.0276
     27  N25      -24.9540    6.9370   -5.8820 N.pl3 901  EMH901     -0.3077
     28  C29      -24.0260    6.5610   -4.8050 C.3   901  EMH901      0.0922
     29  C27      -24.7950    5.5450   -3.9400 C.3   901  EMH901      0.0374
     30  C30      -25.1670    5.7650   -6.7690 C.3   901  EMH901      0.0922
     31  N31      -25.9240    3.3790   -3.8210 N.3   901  EMH901     -0.2696
     32  C32      -27.0110    2.5900   -4.4370 C.3   901  EMH901      0.1046
     33  C34      -27.6660    1.7130   -3.3690 C.3   901  EMH901      0.1595
     34  O36      -26.6850    0.8430   -2.7970 O.3   901  EMH901     -0.3508
     35  C35      -25.6310    1.5590   -2.1540 C.3   901  EMH901      0.1595
     36  C33      -24.9470    2.4710   -3.1770 C.3   901  EMH901      0.1046
@<TRIPOS>BOND
     1    15    16    3
     2    16     2    1
     3     3     2   ar
     4     3     1   ar
     5     2    17   ar
     6     1    19   ar
     7    17    18   ar
     8    19    18   ar
     9    19     4    2
    10    23    22    2
    11    18    20    2
    12     4    22    1
    13     4     5    1
    14    22     8    1
    15    20     5    2
    16     5     9    1
    17     8     7   ar
    18     8    21   ar
    19     7    25   ar
    20    11     9    1
    21     9    21    1
    22     9    10    1
    23    21    24   ar
    24    25    26    1
    25    25     6   ar
    26    26    12    1
    27    30    14    1
    28    30    27    1
    29    24     6   ar
    30     6    27    1
    31    14    13    1
    32    27    28    1
    33    28    29    1
    34    13    29    1
    35    13    31    1
    36    32    31    1
    37    32    33    1
    38    31    36    1
    39    33    34    1
    40    36    35    1
    41    34    35    1
