@<TRIPOS>MOLECULE
3ap1_A3P_A_1.pdb
 27 29 0 0 0
SMALL
GASTEIGER

@<TRIPOS>ATOM
      1  P1       -47.1910  -13.6520  -12.0510 P.3     1  A3P1        0.5327
      2  O1P      -47.4270  -13.0690  -10.6740 O.3     1  A3P1       -0.1145
      3  O2P      -48.4690  -14.2240  -12.6400 O.3     1  A3P1       -0.1145
      4  O3P      -46.5010  -12.7680  -13.0320 O.2     1  A3P1       -0.2224
      5  P2       -43.0950  -17.3350   -7.2780 P.3     1  A3P1        0.5327
      6  O4P      -43.5150  -16.1280   -6.4870 O.3     1  A3P1       -0.1145
      7  O5P      -41.6290  -17.5190   -7.3410 O.2     1  A3P1       -0.2224
      8  O6P      -43.9180  -18.5730   -6.9390 O.3     1  A3P1       -0.1145
      9  O5'      -43.5000  -16.9650   -8.7970 O.3     1  A3P1       -0.2675
     10  C5'      -44.8400  -16.5070   -9.0420 C.3     1  A3P1        0.1859
     11  C4'      -45.0930  -16.5570  -10.5280 C.3     1  A3P1        0.1796
     12  O4'      -45.1410  -17.9400  -10.9050 O.3     1  A3P1       -0.3136
     13  C3'      -46.4360  -15.9550  -10.9300 C.3     1  A3P1        0.1928
     14  O3'      -46.2310  -14.9390  -11.9000 O.3     1  A3P1       -0.2673
     15  C2'      -47.1640  -17.1260  -11.5580 C.3     1  A3P1        0.2543
     16  O2'      -48.1030  -16.7230  -12.5920 O.3     1  A3P1       -0.2131
     17  C1'      -46.0480  -18.0960  -11.9700 C.3     1  A3P1        0.3185
     18  N9       -46.7840  -19.3700  -12.0410 N.pl3   1  A3P1       -0.1439
     19  C8       -47.3950  -20.0030  -11.0160 C.3     1  A3P1        0.3377
     20  N7       -48.1030  -21.0680  -11.4510 N.2     1  A3P1       -0.2095
     21  C5       -47.9340  -21.1080  -12.7830 C.2     1  A3P1        0.2526
     22  C6       -48.4040  -21.9870  -13.8570 C.2     1  A3P1        0.4393
     23  N6       -49.2100  -23.0340  -13.5350 N.pl3   1  A3P1        0.2180
     24  N1       -48.0190  -21.6870  -15.1220 N.2     1  A3P1        0.0021
     25  C2       -47.2310  -20.6230  -15.4440 C.3     1  A3P1        0.5254
     26  N3       -46.7690  -19.7760  -14.4980 N.2     1  A3P1       -0.0055
     27  C4       -47.0880  -19.9750  -13.1850 C.2     1  A3P1        0.3518
@<TRIPOS>BOND
     1    25    24    1
     2    25    26    1
     3    24    22    2
     4    26    27    2
     5    22    23    1
     6    22    21    1
     7    27    21    1
     8    27    18    1
     9     4     1    2
    10    21    20    2
    11     3     1    1
    12    16    15    1
    13     1    14    1
    14     1     2    1
    15    18    17    1
    16    18    19    1
    17    17    15    1
    18    17    12    1
    19    14    13    1
    20    15    13    1
    21    20    19    1
    22    13    11    1
    23    12    11    1
    24    11    10    1
    25    10     9    1
    26     9     5    1
    27     7     5    2
    28     5     8    1
    29     5     6    1
