@<TRIPOS>MOLECULE
3ap2_A3P_A_1.pdb
 27 29 0 0 0
SMALL
GASTEIGER

@<TRIPOS>ATOM
      1  P1       -47.1740  -13.7410  -12.2470 P.3     1  A3P1        0.5327
      2  O1P      -47.4010  -13.1790  -10.8920 O.3     1  A3P1       -0.1145
      3  O2P      -48.4940  -14.2820  -12.7250 O.3     1  A3P1       -0.1145
      4  O3P      -46.4660  -12.8510  -13.2210 O.2     1  A3P1       -0.2224
      5  P2       -43.1070  -17.3590   -7.2720 P.3     1  A3P1        0.5327
      6  O4P      -43.6350  -16.0730   -6.6980 O.3     1  A3P1       -0.1145
      7  O5P      -41.6120  -17.5270   -7.2910 O.2     1  A3P1       -0.2224
      8  O6P      -43.9480  -18.4830   -6.7530 O.3     1  A3P1       -0.1145
      9  O5'      -43.4480  -17.1380   -8.8280 O.3     1  A3P1       -0.2675
     10  C5'      -44.7740  -16.6440   -9.1080 C.3     1  A3P1        0.1859
     11  C4'      -44.9710  -16.6880  -10.6090 C.3     1  A3P1        0.1796
     12  O4'      -45.0080  -18.0740  -11.0000 O.3     1  A3P1       -0.3136
     13  C3'      -46.2550  -15.9890  -11.0520 C.3     1  A3P1        0.1928
     14  O3'      -46.0850  -14.9690  -12.0510 O.3     1  A3P1       -0.2673
     15  C2'      -47.0270  -17.1620  -11.5970 C.3     1  A3P1        0.2543
     16  O2'      -47.9540  -16.7960  -12.6190 O.3     1  A3P1       -0.2131
     17  C1'      -45.9710  -18.2020  -12.0260 C.3     1  A3P1        0.3185
     18  N9       -46.7500  -19.4670  -12.1000 N.pl3   1  A3P1       -0.1439
     19  C8       -47.3660  -20.0890  -11.0760 C.3     1  A3P1        0.3377
     20  N7       -48.0700  -21.1480  -11.5150 N.2     1  A3P1       -0.2095
     21  C5       -47.9150  -21.2040  -12.8510 C.2     1  A3P1        0.2526
     22  C6       -48.3930  -22.0850  -13.9070 C.2     1  A3P1        0.4393
     23  N6       -49.1990  -23.1270  -13.5710 N.pl3   1  A3P1        0.2180
     24  N1       -48.0120  -21.8230  -15.1810 N.2     1  A3P1        0.0021
     25  C2       -47.2170  -20.7630  -15.4990 C.3     1  A3P1        0.5254
     26  N3       -46.7430  -19.8980  -14.5800 N.2     1  A3P1       -0.0055
     27  C4       -47.0580  -20.0860  -13.2540 C.2     1  A3P1        0.3518
@<TRIPOS>BOND
     1    25    24    1
     2    25    26    1
     3    24    22    2
     4    26    27    2
     5    22    23    1
     6    22    21    1
     7    27    21    1
     8    27    18    1
     9     4     1    2
    10    21    20    2
    11     3     1    1
    12    16    15    1
    13     1    14    1
    14     1     2    1
    15    18    17    1
    16    18    19    1
    17    14    13    1
    18    17    15    1
    19    17    12    1
    20    15    13    1
    21    20    19    1
    22    13    11    1
    23    12    11    1
    24    11    10    1
    25    10     9    1
    26     9     5    1
    27     7     5    2
    28     5     8    1
    29     5     6    1
