@<TRIPOS>MOLECULE
3ap3_A3P_A_1.pdb
 27 29 0 0 0
SMALL
GASTEIGER

@<TRIPOS>ATOM
      1  P1       -10.9310   -7.2120   13.5710 P.3     1  A3P1        0.5327
      2  O1P      -10.9760   -6.5260   12.2180 O.2     1  A3P1       -0.2224
      3  O2P      -10.0280   -6.5880   14.6330 O.3     1  A3P1       -0.1145
      4  O3P      -12.2840   -7.5450   14.1820 O.3     1  A3P1       -0.1145
      5  P2        -7.9070  -11.7000    8.7660 P.3     1  A3P1        0.5327
      6  O4P       -8.2820  -10.5560    7.8190 O.2     1  A3P1       -0.2224
      7  O5P       -8.5430  -13.0010    8.3270 O.3     1  A3P1       -0.1145
      8  O6P       -6.4950  -11.8000    9.3410 O.3     1  A3P1       -0.1145
      9  O5'       -8.5740  -11.3620   10.1760 O.3     1  A3P1       -0.2675
     10  C5'       -8.8360  -10.0160   10.5140 C.3     1  A3P1        0.1859
     11  C4'       -8.5990   -9.9180   12.0010 C.3     1  A3P1        0.1796
     12  O4'       -7.2070  -10.0640   12.2930 O.3     1  A3P1       -0.3136
     13  C3'       -8.9650   -8.5500   12.5480 C.3     1  A3P1        0.1928
     14  O3'      -10.2380   -8.6150   13.1700 O.3     1  A3P1       -0.2673
     15  C2'       -7.8540   -8.2410   13.5410 C.3     1  A3P1        0.2543
     16  O2'       -8.3190   -7.8820   14.8340 O.3     1  A3P1       -0.2131
     17  C1'       -7.1940   -9.5840   13.6350 C.3     1  A3P1        0.3185
     18  N9        -5.8260   -9.4740   14.1620 N.pl3   1  A3P1       -0.1439
     19  C8        -4.7120   -9.2000   13.4480 C.3     1  A3P1        0.3377
     20  N7        -3.6070   -9.2000   14.2450 N.2     1  A3P1       -0.2095
     21  C5        -4.0310   -9.4780   15.4780 C.2     1  A3P1        0.2526
     22  C6        -3.3830   -9.6150   16.7780 C.2     1  A3P1        0.4393
     23  N6        -2.0340   -9.4480   16.8520 N.pl3   1  A3P1        0.2180
     24  N1        -4.1890   -9.9150   17.8480 N.2     1  A3P1        0.0021
     25  C2        -5.5360  -10.0770   17.7540 C.3     1  A3P1        0.5254
     26  N3        -6.1800   -9.9560   16.5800 N.2     1  A3P1       -0.0055
     27  C4        -5.4910   -9.6680   15.4400 C.2     1  A3P1        0.3518
@<TRIPOS>BOND
     1     6     5    2
     2     7     5    1
     3     5     8    1
     4     5     9    1
     5     9    10    1
     6    10    11    1
     7    11    12    1
     8    11    13    1
     9     2     1    2
    10    12    17    1
    11    13    14    1
    12    13    15    1
    13    14     1    1
    14    19    18    1
    15    19    20    1
    16    15    17    1
    17    15    16    1
    18     1     4    1
    19     1     3    1
    20    17    18    1
    21    18    27    1
    22    20    21    2
    23    27    21    1
    24    27    26    2
    25    21    22    1
    26    26    25    1
    27    22    23    1
    28    22    24    2
    29    25    24    1
