@<TRIPOS>MOLECULE
3ap4_LBT_A_1.pdb
 23 24 0 0 0
SMALL
GASTEIGER

@<TRIPOS>ATOM
      1  C1        23.4030   29.6820   23.4140 C.3   155  LBT155      0.2695
      2  C2        22.9480   30.9370   24.2170 C.3   155  LBT155      0.2406
      3  C3        21.4280   31.1640   23.9640 C.3   155  LBT155      0.2198
      4  C4        21.1200   31.1730   22.4370 C.3   155  LBT155      0.2144
      5  C5        21.7310   29.9110   21.7820 C.3   155  LBT155      0.1835
      6  C6        21.4970   29.9190   20.2540 C.3   155  LBT155      0.2142
      7  O1        24.8190   29.6450   23.4570 O.3   155  LBT155     -0.3257
      8  O2        23.0960   30.7080   25.5930 O.3   155  LBT155     -0.2149
      9  O3        20.9460   32.3990   24.4760 O.3   155  LBT155     -0.2174
     10  O4        21.6250   32.3030   21.7680 O.3   155  LBT155     -0.2176
     11  O5        23.1340   29.8220   22.0300 O.3   155  LBT155     -0.3256
     12  O6        21.9810   28.7820   19.6070 O.3   155  LBT155     -0.2176
     13  C1'       27.6800   26.6120   22.5180 C.3   155  LBT155      0.3023
     14  C2'       27.4070   27.7630   21.4890 C.3   155  LBT155      0.2433
     15  C3'       26.7350   28.9820   22.1720 C.3   155  LBT155      0.2168
     16  C4'       25.4830   28.4860   22.9170 C.3   155  LBT155      0.1804
     17  C5'       25.9790   27.5430   24.0490 C.3   155  LBT155      0.1804
     18  C6'       24.8020   26.9260   24.8490 C.3   155  LBT155      0.2141
     19  O1'       28.9030   26.6730   23.1700 O.3   155  LBT155     -0.1869
     20  O2'       28.5880   28.2400   20.8750 O.3   155  LBT155     -0.2148
     21  O3'       26.3040   29.8730   21.1780 O.3   155  LBT155     -0.2175
     22  O5'       26.6920   26.4210   23.5190 O.3   155  LBT155     -0.3237
     23  O6'       23.8770   26.2660   24.0270 O.3   155  LBT155     -0.2176
@<TRIPOS>BOND
     1    12     6    1
     2     6     5    1
     3    20    14    1
     4    21    15    1
     5    14    15    1
     6    14    13    1
     7    10     4    1
     8     5    11    1
     9     5     4    1
    10    11     1    1
    11    15    16    1
    12     4     3    1
    13    13    19    1
    14    13    22    1
    15    16     7    1
    16    16    17    1
    17     1     7    1
    18     1     2    1
    19    22    17    1
    20     3     2    1
    21     3     9    1
    22    23    18    1
    23    17    18    1
    24     2     8    1
