@<TRIPOS>MOLECULE
3ap6_LAT_A_1.pdb
 23 24 0 0 0
SMALL
GASTEIGER

@<TRIPOS>ATOM
      1  C1        23.5220   29.9700   23.4480 C.3   155  LAT155      0.2695
      2  C2        22.9730   31.0990   24.2990 C.3   155  LAT155      0.2406
      3  C3        21.5140   31.3930   24.0180 C.3   155  LAT155      0.2198
      4  C4        21.2540   31.4590   22.5190 C.3   155  LAT155      0.2144
      5  C5        21.8070   30.2030   21.8810 C.3   155  LAT155      0.1835
      6  C6        21.5060   30.1280   20.3900 C.3   155  LAT155      0.2142
      7  O1        24.9320   29.9000   23.6290 O.3   155  LAT155     -0.3257
      8  O2        23.0200   30.7930   25.6910 O.3   155  LAT155     -0.2149
      9  O3        21.1870   32.6310   24.6240 O.3   155  LAT155     -0.2174
     10  O4        21.8840   32.6070   21.9530 O.3   155  LAT155     -0.2176
     11  O5        23.2260   30.1670   22.0520 O.3   155  LAT155     -0.3256
     12  O6        21.9410   28.8570   19.9160 O.3   155  LAT155     -0.2176
     13  C1'       27.9920   27.2550   22.9890 C.3   155  LAT155      0.3023
     14  C2'       27.6620   28.1160   21.7750 C.3   155  LAT155      0.2433
     15  C3'       26.7740   29.2720   22.2190 C.3   155  LAT155      0.2168
     16  C4'       25.5860   28.7790   23.0420 C.3   155  LAT155      0.1804
     17  C5'       26.0320   27.8150   24.1440 C.3   155  LAT155      0.1804
     18  C6'       24.8570   27.2420   24.9280 C.3   155  LAT155      0.2141
     19  O1'       28.8340   26.1640   22.6200 O.3   155  LAT155     -0.1869
     20  O2'       28.8600   28.6210   21.1790 O.3   155  LAT155     -0.2148
     21  O3'       26.2980   29.9900   21.0820 O.3   155  LAT155     -0.2175
     22  O5'       26.7650   26.7610   23.5230 O.3   155  LAT155     -0.3237
     23  O6'       23.9030   26.6630   24.0290 O.3   155  LAT155     -0.2176
@<TRIPOS>BOND
     1    12     6    1
     2     6     5    1
     3    21    15    1
     4    20    14    1
     5    14    15    1
     6    14    13    1
     7     5    11    1
     8     5     4    1
     9    10     4    1
    10    11     1    1
    11    15    16    1
    12     4     3    1
    13    19    13    1
    14    13    22    1
    15    16     7    1
    16    16    17    1
    17     1     7    1
    18     1     2    1
    19    22    17    1
    20     3     2    1
    21     3     9    1
    22    23    18    1
    23    17    18    1
    24     2     8    1
