@<TRIPOS>MOLECULE
3ap7_LAT_A_1.pdb
 23 24 0 0 0
SMALL
GASTEIGER

@<TRIPOS>ATOM
      1  C1        18.4710   25.1360   42.7310 C.3   155  LAT155      0.2695
      2  C2        18.7550   23.7830   42.1130 C.3   155  LAT155      0.2406
      3  C3        20.0340   23.8210   41.2860 C.3   155  LAT155      0.2198
      4  C4        20.0280   25.0080   40.3260 C.3   155  LAT155      0.2144
      5  C5        19.6720   26.2950   41.0700 C.3   155  LAT155      0.1835
      6  C6        19.6180   27.5110   40.1590 C.3   155  LAT155      0.2142
      7  O1        17.1940   25.0610   43.3670 O.3   155  LAT155     -0.3257
      8  O2        18.8530   22.7980   43.1500 O.3   155  LAT155     -0.2149
      9  O3        20.1500   22.6110   40.5180 O.3   155  LAT155     -0.2174
     10  O4        19.0890   24.7530   39.2690 O.3   155  LAT155     -0.2176
     11  O5        18.4170   26.1260   41.7010 O.3   155  LAT155     -0.3256
     12  O6        19.3350   28.6600   40.9670 O.3   155  LAT155     -0.2176
     13  C1'       15.1270   27.4550   46.0830 C.3   155  LAT155      0.3023
     14  C2'       14.8590   27.7210   44.6000 C.3   155  LAT155      0.2433
     15  C3'       15.3710   26.5670   43.7390 C.3   155  LAT155      0.2168
     16  C4'       16.8130   26.2280   44.0980 C.3   155  LAT155      0.1804
     17  C5'       16.9500   25.9990   45.6030 C.3   155  LAT155      0.1804
     18  C6'       18.3820   25.7180   46.0460 C.3   155  LAT155      0.2141
     19  O1'       14.7860   28.6040   46.8750 O.3   155  LAT155     -0.1869
     20  O2'       13.4570   27.8560   44.3810 O.3   155  LAT155     -0.2148
     21  O3'       15.2760   26.9020   42.3450 O.3   155  LAT155     -0.2175
     22  O5'       16.5100   27.1790   46.2790 O.3   155  LAT155     -0.3237
     23  O6'       19.2210   26.8340   45.7170 O.3   155  LAT155     -0.2176
@<TRIPOS>BOND
     1    10     4    1
     2     6    12    1
     3     6     5    1
     4     4     5    1
     5     4     3    1
     6     9     3    1
     7     5    11    1
     8     3     2    1
     9    11     1    1
    10     2     1    1
    11     2     8    1
    12    21    15    1
    13     1     7    1
    14     7    16    1
    15    15    16    1
    16    15    14    1
    17    16    17    1
    18    20    14    1
    19    14    13    1
    20    17    18    1
    21    17    22    1
    22    23    18    1
    23    13    22    1
    24    13    19    1
