@<TRIPOS>MOLECULE
3ap7_SIA_A_1.pdb
 20 20 0 0 0
SMALL
GASTEIGER

@<TRIPOS>ATOM
      1  C1        22.5450   22.3780   40.6550 C.2   156  SIA156      0.3914
      2  C2        21.1970   21.7190   40.8830 C.3   156  SIA156      0.2203
      3  C3        21.0170   20.4690   40.0160 C.3   156  SIA156      0.0760
      4  C4        21.8330   19.2770   40.5140 C.3   156  SIA156      0.1773
      5  C5        21.6140   19.0260   42.0040 C.3   156  SIA156      0.1552
      6  C6        21.8800   20.3370   42.7490 C.3   156  SIA156      0.1710
      7  C7        21.6860   20.2490   44.2580 C.3   156  SIA156      0.2134
      8  C8        21.8470   21.6100   44.9320 C.3   156  SIA156      0.2173
      9  C9        22.0650   21.4410   46.4310 C.3   156  SIA156      0.2175
     10  C10       22.0140   16.8390   43.0040 C.2   156  SIA156      0.2420
     11  C11       22.9410   15.7350   43.4200 C.3   156  SIA156      0.0964
     12  N5        22.5100   17.9570   42.4550 N.am  156  SIA156     -0.2020
     13  O1A       23.0420   22.3960   39.4990 O.co2 156  SIA156     -0.2430
     14  O1B       23.1400   22.8890   41.6400 O.co2 156  SIA156     -0.2430
     15  O4        21.4600   18.1110   39.7570 O.3   156  SIA156     -0.2211
     16  O6        21.0070   21.3690   42.2620 O.3   156  SIA156     -0.3429
     17  O7        20.3690   19.7660   44.5390 O.3   156  SIA156     -0.2176
     18  O8        22.9490   22.3350   44.3630 O.3   156  SIA156     -0.2175
     19  O9        21.8340   22.6920   47.0970 O.3   156  SIA156     -0.2175
     20  O10       20.8110   16.7140   43.1660 O.2   156  SIA156     -0.2733
@<TRIPOS>BOND
     1    13     1   ar
     2    15     4    1
     3     3     4    1
     4     3     2    1
     5     4     5    1
     6     1     2    1
     7     1    14   ar
     8     2    16    1
     9     5    12    1
    10     5     6    1
    11    16     6    1
    12    12    10   am
    13     6     7    1
    14    10    20    2
    15    10    11    1
    16     7    17    1
    17     7     8    1
    18    18     8    1
    19     8     9    1
    20     9    19    1
