@<TRIPOS>MOLECULE
3ap9_GAL_A_1.pdb
 11 11 0 0 0
SMALL
GASTEIGER

@<TRIPOS>ATOM
      1  C1        25.6410   19.6630   38.4830 C.3   155  GAL155      0.1777
      2  C2        27.1300   19.6250   38.8240 C.3   155  GAL155      0.2141
      3  C3        27.9300   18.8680   37.7660 C.3   155  GAL155      0.2173
      4  C4        27.2820   17.5100   37.5190 C.3   155  GAL155      0.2142
      5  C5        25.8000   17.6720   37.2140 C.3   155  GAL155      0.1810
      6  C6        25.1610   16.3130   36.9890 C.3   155  GAL155      0.2141
      7  O2        27.6330   20.9490   38.9900 O.3   155  GAL155     -0.2176
      8  O3        29.2900   18.7140   38.1860 O.3   155  GAL155     -0.2175
      9  O4        27.4330   16.6900   38.6850 O.3   155  GAL155     -0.2176
     10  O5        25.1310   18.3460   38.2810 O.3   155  GAL155     -0.3481
     11  O6        23.8140   16.5020   36.5770 O.3   155  GAL155     -0.2176
@<TRIPOS>BOND
     1    11     6    1
     2     6     5    1
     3     5     4    1
     4     5    10    1
     5     4     3    1
     6     4     9    1
     7     3     8    1
     8     3     2    1
     9    10     1    1
    10     1     2    1
    11     2     7    1
