@<TRIPOS>MOLECULE
3ap9_BGC_A_1.pdb
 12 12 0 0 0
SMALL
GASTEIGER

@<TRIPOS>ATOM
      1  C2        14.5860   27.4080   44.4880 C.3   159  BGC159      0.2434
      2  C3        15.1910   26.3270   43.5990 C.3   159  BGC159      0.2199
      3  C4        16.6410   26.0610   43.9840 C.3   159  BGC159      0.2144
      4  C5        16.7720   25.8010   45.4890 C.3   159  BGC159      0.1836
      5  C6        18.2120   25.5900   45.9530 C.3   159  BGC159      0.2142
      6  C1        14.8180   27.0520   45.9540 C.3   159  BGC159      0.3024
      7  O1        14.2810   28.0790   46.7960 O.3   159  BGC159     -0.1869
      8  O2        13.1870   27.4900   44.2150 O.3   159  BGC159     -0.2148
      9  O3        15.0970   26.7090   42.2210 O.3   159  BGC159     -0.2174
     10  O4        17.0780   24.9150   43.2500 O.3   159  BGC159     -0.2176
     11  O5        16.2190   26.9160   46.1920 O.3   159  BGC159     -0.3236
     12  O6        19.0470   26.7000   45.6000 O.3   159  BGC159     -0.2176
@<TRIPOS>BOND
     1     9     2    1
     2    10     3    1
     3     2     3    1
     4     2     1    1
     5     3     4    1
     6     8     1    1
     7     1     6    1
     8     4     5    1
     9     4    11    1
    10    12     5    1
    11     6    11    1
    12     6     7    1
