@<TRIPOS>MOLECULE
3apc_MMD_A_1.pdb
 26 29 0 0 0
SMALL
GASTEIGER

@<TRIPOS>ATOM
      1  C1       118.7450   14.2410   29.9690 C.3     1  MMD1        0.1352
      2  C2       119.2220   13.8600   28.5660 C.3     1  MMD1        0.1644
      3  O3       118.8620   12.4860   28.3400 O.3     1  MMD1       -0.3501
      4  C4       117.4280   12.4140   28.1630 C.3     1  MMD1        0.1644
      5  C5       116.7130   12.7510   29.4710 C.3     1  MMD1        0.1352
      6  N6       117.3130   13.9240   30.1370 N.pl3   1  MMD1       -0.2290
      7  C7       116.5080   14.7410   30.9220 C.1     1  MMD1        0.2041
      8  N8       115.2500   14.3600   31.1880 N.2     1  MMD1       -0.3282
      9  N9       116.9970   15.8940   31.4000 N.2     1  MMD1       -0.3112
     10  C10      116.2330   16.6910   32.1630 C.2     1  MMD1        0.2177
     11  N11      116.4970   17.8730   32.7180 N.pl3   1  MMD1       -0.1624
     12  S12      117.8480   18.7400   32.3850 S.O2    1  MMD1        0.0610
     13  C13      117.6400   19.3780   30.7430 C.3     1  MMD1        0.1999
     14  O14      119.0920   17.9130   32.4470 O.2     1  MMD1       -0.1541
     15  O15      117.9630   19.8670   33.3580 O.2     1  MMD1       -0.1541
     16  C16      115.3720   18.4030   33.4980 C.3     1  MMD1        0.1444
     17  C17      114.2620   17.3730   33.3040 C.2     1  MMD1        0.0037
     18  C18      114.9210   16.3130   32.4390 C.2     1  MMD1        0.0741
     19  C19      114.4220   15.1070   31.9450 C.2     1  MMD1        0.1479
     20  C20      113.1200   14.6260   32.1800 C.2     1  MMD1        0.0535
     21  C21      112.6060   13.5970   31.3850 C.2     1  MMD1        0.1111
     22  N22      111.3880   13.1180   31.5870 N.2     1  MMD1       -0.1780
     23  C23      110.6180   13.6190   32.5690 C.1     1  MMD1        0.1286
     24  N24      109.3910   13.1390   32.7630 N.pl3   1  MMD1       -0.0461
     25  N27      111.0850   14.6080   33.3550 N.2     1  MMD1       -0.2003
     26  C28      112.3020   15.1170   33.1930 C.3     1  MMD1        0.1681
@<TRIPOS>BOND
     1     4     3    1
     2     4     5    1
     3     3     2    1
     4     2     1    1
     5     5     6    1
     6     1     6    1
     7     6     7    1
     8    13    12    1
     9     7     8    2
    10     7     9    2
    11     8    19    2
    12    21    22    1
    13    21    20    2
    14     9    10    2
    15    22    23    2
    16    19    20    1
    17    19    18    1
    18    10    18    1
    19    10    11    1
    20    20    26    1
    21    12    14    2
    22    12    11    1
    23    12    15    2
    24    18    17    2
    25    23    24    1
    26    23    25    2
    27    11    16    1
    28    26    25    1
    29    17    16    1
