@<TRIPOS>MOLECULE
3apd_MMY_A_1.pdb
 28 32 0 0 0
SMALL
GASTEIGER

@<TRIPOS>ATOM
      1  C1        47.6540   17.9480   31.7430 C.ar    1  MMY1        0.0181
      2  C2        48.8060   18.6980   31.5510 C.ar    1  MMY1        0.0220
      3  C3        48.7020   20.0630   31.3100 C.ar    1  MMY1        0.0990
      4  N4        47.5140   20.6490   31.2670 N.ar    1  MMY1       -0.2410
      5  C5        46.3930   19.9640   31.4410 C.ar    1  MMY1        0.1137
      6  C6        46.4180   18.5890   31.6880 C.ar    1  MMY1        0.0731
      7  N7        45.2680   17.9170   31.8680 N.pl3   1  MMY1       -0.2562
      8  C8        44.0470   18.5600   32.4030 C.3     1  MMY1        0.1245
      9  C9        43.0160   17.4480   32.4770 C.2     1  MMY1        0.0021
     10  C10       43.7470   16.2810   31.8430 C.2     1  MMY1        0.0729
     11  C11       45.0570   16.6410   31.5230 C.2     1  MMY1        0.2032
     12  N12       45.8600   15.7240   30.9510 N.2     1  MMY1       -0.3124
     13  C13       45.4080   14.4860   30.6820 C.1     1  MMY1        0.2041
     14  N14       46.2400   13.5370   30.0770 N.pl3   1  MMY1       -0.2290
     15  C15       45.6510   12.3240   29.4760 C.3     1  MMY1        0.1352
     16  C16       46.3290   11.9750   28.1530 C.3     1  MMY1        0.1644
     17  O17       47.7640   12.0190   28.3020 O.3     1  MMY1       -0.3501
     18  C18       48.1750   13.3770   28.5880 C.3     1  MMY1        0.1644
     19  C19       47.6980   13.7330   30.0000 C.3     1  MMY1        0.1352
     20  N20       44.1470   14.1400   30.9800 N.2     1  MMY1       -0.3282
     21  C21       43.2940   14.9940   31.5750 C.2     1  MMY1        0.1479
     22  C22       41.9840   14.5760   31.8570 C.2     1  MMY1        0.0535
     23  C23       41.4590   13.4760   31.1830 C.2     1  MMY1        0.1111
     24  N24       40.2280   13.0750   31.4230 N.2     1  MMY1       -0.1780
     25  C25       39.4570   13.7230   32.3160 C.1     1  MMY1        0.1286
     26  N26       38.2090   13.3120   32.5330 N.pl3   1  MMY1       -0.0461
     27  N29       39.9340   14.7940   32.9780 N.2     1  MMY1       -0.2003
     28  C30       41.1690   15.2290   32.7800 C.3     1  MMY1        0.1681
@<TRIPOS>BOND
     1    16    17    1
     2    16    15    1
     3    17    18    1
     4    18    19    1
     5    15    14    1
     6    19    14    1
     7    14    13    1
     8    13    12    2
     9    13    20    2
    10    12    11    2
    11    20    21    2
    12    23    24    1
    13    23    22    2
    14     4     3   ar
    15     4     5   ar
    16     3     2   ar
    17    24    25    2
    18     5     6   ar
    19    11    10    1
    20    11     7    1
    21     2     1   ar
    22    21    10    1
    23    21    22    1
    24     6     1   ar
    25     6     7    1
    26    10     9    2
    27    22    28    1
    28     7     8    1
    29    25    26    1
    30    25    27    2
    31     8     9    1
    32    28    27    1
