@<TRIPOS>MOLECULE
3apf_BMW_A_1.pdb
 31 36 0 0 0
SMALL
GASTEIGER

@<TRIPOS>ATOM
      1  C1        46.1840   17.4010   32.1770 C.3   1103  BMW1103     0.0877
      2  C2        47.0590   18.4770   32.0050 C.2   1103  BMW1103     0.0751
      3  N3        48.3540   18.5450   31.7040 N.2   1103  BMW1103    -0.2471
      4  C5        48.7190   19.8280   31.6720 C.3   1103  BMW1103     0.2502
      5  N6        47.6560   20.5860   31.9530 N.2   1103  BMW1103    -0.2471
      6  C7        46.6200   19.7840   32.1680 C.2   1103  BMW1103     0.0738
      7  C8        45.2940   20.0310   32.4970 C.3   1103  BMW1103     0.0736
      8  C9        44.4120   18.9610   32.6540 C.2   1103  BMW1103    -0.0089
      9  C10       44.8500   17.6400   32.5020 C.2   1103  BMW1103     0.0334
     10  N11       43.9740   16.6500   32.6500 N.pl3 1103  BMW1103    -0.2612
     11  C12       42.7390   16.8280   33.4350 C.3   1103  BMW1103     0.1241
     12  C13       41.8560   15.6410   33.0670 C.2   1103  BMW1103     0.0021
     13  C14       42.8070   14.7900   32.2340 C.2   1103  BMW1103     0.0731
     14  C15       44.0210   15.4560   32.0370 C.2   1103  BMW1103     0.2029
     15  N16       44.9680   14.8310   31.3090 N.2   1103  BMW1103    -0.3124
     16  C17       44.7470   13.6060   30.7920 C.1   1103  BMW1103     0.2041
     17  N18       45.7020   12.9250   30.0500 N.pl3 1103  BMW1103    -0.2290
     18  C19       45.3460   11.6640   29.4100 C.3   1103  BMW1103     0.1352
     19  C20       46.2790   11.3580   28.2330 C.3   1103  BMW1103     0.1644
     20  O21       47.6240   11.7470   28.4100 O.3   1103  BMW1103    -0.3501
     21  C22       47.6120   13.1430   28.5110 C.3   1103  BMW1103     0.1644
     22  C23       47.0860   13.3960   29.9290 C.3   1103  BMW1103     0.1352
     23  N24       43.5880   12.9770   30.9830 N.2   1103  BMW1103    -0.3280
     24  C25       42.6000   13.5230   31.6970 C.2   1103  BMW1103     0.1485
     25  C26       41.3940   12.8220   31.8290 C.ar  1103  BMW1103     0.0339
     26  C27       40.9510   12.0580   30.7460 C.ar  1103  BMW1103     0.0446
     27  C28       40.6080   12.8770   32.9800 C.ar  1103  BMW1103     0.0028
     28  C29       39.4090   12.1660   33.0410 C.ar  1103  BMW1103     0.0034
     29  C30       38.9850   11.3980   31.9610 C.ar  1103  BMW1103     0.0420
     30  C31       39.7620   11.3350   30.8010 C.ar  1103  BMW1103     0.1958
     31  O32       39.3630   10.5980   29.7110 O.3   1103  BMW1103    -0.2866
@<TRIPOS>BOND
     1    19    20    1
     2    19    18    1
     3    20    21    1
     4    21    22    1
     5    18    17    1
     6    31    30    1
     7    22    17    1
     8    17    16    1
     9    26    30   ar
    10    26    25   ar
    11    16    23    2
    12    16    15    2
    13    30    29   ar
    14    23    24    2
    15    15    14    2
    16     4     3    1
    17     4     5    1
    18    24    25    1
    19    24    13    1
    20     3     2    2
    21    25    27   ar
    22     5     6    2
    23    29    28   ar
    24     2     6    1
    25     2     1    1
    26    14    13    1
    27    14    10    1
    28     6     7    1
    29     1     9    1
    30    13    12    2
    31     7     8    1
    32     9    10    1
    33     9     8    2
    34    10    11    1
    35    27    28   ar
    36    12    11    1
