@<TRIPOS>MOLECULE
3apv_TP0_A_1.pdb
 21 23 0 0 0
SMALL
GASTEIGER

@<TRIPOS>ATOM
      1  N1        16.3450    0.8800   18.3930 N.3   190  TP0190     -0.2700
      2  C3        12.8010    2.4220   17.6470 C.2   190  TP0190     -0.0048
      3  C4        13.0790    3.6520   19.7510 C.ar  190  TP0190     -0.0218
      4  C5        10.9320    1.4160   19.0680 C.ar  190  TP0190     -0.0218
      5  C6        13.0120    3.7140   18.3720 C.ar  190  TP0190     -0.0043
      6  C7        11.4540    1.7620   17.8120 C.ar  190  TP0190     -0.0043
      7  C8        13.7490    1.8100   16.8940 C.2   190  TP0190     -0.0247
      8  C10       13.2620    4.8270   20.4940 C.ar  190  TP0190     -0.0043
      9  C11        9.6880    0.7930   19.1340 C.ar  190  TP0190     -0.0043
     10  C12       13.0750    4.9320   17.6920 C.ar  190  TP0190     -0.0003
     11  C13       10.7430    1.4580   16.6610 C.ar  190  TP0190     -0.0003
     12  C14       16.2380    1.3040   16.9670 C.3   190  TP0190      0.0769
     13  C15       13.3400    6.0450   19.8090 C.ar  190  TP0190     -0.0003
     14  C16        8.9890    0.5010   17.9920 C.ar  190  TP0190     -0.0003
     15  C17       13.2610    6.1070   18.4220 C.ar  190  TP0190     -0.0000
     16  C18        9.5020    0.8390   16.7490 C.ar  190  TP0190     -0.0000
     17  C19       17.5900    0.0900   18.5760 C.3   190  TP0190      0.0897
     18  C20       16.3210    1.9200   19.4400 C.3   190  TP0190      0.0897
     19  C21       12.9720    2.2980   20.4370 C.3   190  TP0190      0.0310
     20  C22       11.5600    1.6860   20.4170 C.3   190  TP0190      0.0310
     21  C29       15.1460    2.3480   16.6680 C.3   190  TP0190      0.0433
@<TRIPOS>BOND
     1    11    16   ar
     2    11     6   ar
     3    21     7    1
     4    21    12    1
     5    16    14   ar
     6     7     2    2
     7    12     1    1
     8     2     6    1
     9     2     5    1
    10    10     5   ar
    11    10    15   ar
    12     6     4   ar
    13    14     9   ar
    14     5     3   ar
    15     1    17    1
    16     1    18    1
    17    15    13   ar
    18     4     9   ar
    19     4    20    1
    20     3    19    1
    21     3     8   ar
    22    13     8   ar
    23    20    19    1
