@<TRIPOS>MOLECULE
3apw_DP0_A_1.pdb
 25 26 0 0 0
SMALL
GASTEIGER

@<TRIPOS>ATOM
      1  C1        13.7940    1.7720   17.8720 C.3   190  DP0190      0.1272
      2  O1        14.0140    0.8890   15.6710 O.2   190  DP0190     -0.2709
      3  C2        14.6470    0.8450   18.7720 C.3   190  DP0190      0.0358
      4  N2        15.4390   -1.4390   19.2440 N.3   190  DP0190     -0.2752
      5  C3        14.5330   -0.6520   18.3780 C.3   190  DP0190      0.0732
      6  N3        11.7930    0.8590   19.0460 N.ar  190  DP0190     -0.2474
      7  C4        14.7580   -2.2970   20.2380 C.3   190  DP0190      0.0575
      8  N4        15.4160    2.5360   16.2340 N.am  190  DP0190     -0.0872
      9  C5        16.4690   -2.1780   18.4700 C.3   190  DP0190      0.0575
     10  C6        13.8400    3.2430   18.3140 C.ar  190  DP0190     -0.0092
     11  C7        12.3230    1.3510   17.8960 C.ar  190  DP0190      0.0705
     12  C8        14.4120    1.6920   16.4930 C.2   190  DP0190      0.2689
     13  C9        15.8150   -2.7660   21.2310 C.3   190  DP0190      0.0173
     14  C10       13.7000   -1.5460   21.0600 C.3   190  DP0190      0.0173
     15  C11       17.5180   -1.1590   18.0050 C.3   190  DP0190      0.0173
     16  C12       15.9150   -3.0090   17.2990 C.3   190  DP0190      0.0173
     17  C13       14.8730    3.7250   19.1240 C.ar  190  DP0190     -0.0035
     18  C14       12.8590    4.1500   17.9030 C.ar  190  DP0190     -0.0035
     19  C15       11.4890    1.4600   16.7730 C.ar  190  DP0190      0.0155
     20  C16       14.9210    5.0690   19.5200 C.ar  190  DP0190     -0.0003
     21  C17       12.8980    5.4950   18.3030 C.ar  190  DP0190     -0.0003
     22  C18       10.1460    1.0800   16.8470 C.ar  190  DP0190      0.0028
     23  C19       13.9300    5.9490   19.1050 C.ar  190  DP0190     -0.0000
     24  C20       10.5060    0.4670   19.1380 C.ar  190  DP0190      0.0985
     25  C21        9.6490    0.5880   18.0520 C.ar  190  DP0190      0.0207
@<TRIPOS>BOND
     1     2    12    2
     2     8    12   am
     3    12     1    1
     4    19    22   ar
     5    19    11   ar
     6    22    25   ar
     7    16     9    1
     8     1    11    1
     9     1    10    1
    10     1     3    1
    11    11     6   ar
    12    18    21   ar
    13    18    10   ar
    14    15     9    1
    15    25    24   ar
    16    21    23   ar
    17    10    17   ar
    18     5     3    1
    19     5     4    1
    20     9     4    1
    21     6    24   ar
    22    23    20   ar
    23    17    20   ar
    24     4     7    1
    25     7    14    1
    26     7    13    1
