@<TRIPOS>MOLECULE
3apx_Z80_A_1.pdb
 21 23 0 0 0
SMALL
GASTEIGER

@<TRIPOS>ATOM
      1  C1        -3.8910   -8.3580   15.3150 C.ar  190  Z80190      0.0576
      2  N1        -5.1470   -9.0230   15.3440 N.pl3 190  Z80190     -0.2860
      3  S1        -2.5550  -10.6190   14.6510 S.3   190  Z80190     -0.0844
      4  C2        -2.6760   -8.9680   15.0070 C.ar  190  Z80190      0.0431
      5  N2        -8.7830   -6.8590   15.9870 N.3   190  Z80190     -0.2703
      6  C3        -4.1530  -11.0820   14.3160 C.ar  190  Z80190      0.0431
      7  C4        -5.2440  -10.2890   14.6880 C.ar  190  Z80190      0.0585
      8  C5        -2.7290   -6.2280   15.5760 C.ar  190  Z80190      0.0013
      9  C6        -1.5220   -6.8580   15.2830 C.ar  190  Z80190      0.0006
     10  C7        -1.5010   -8.2190   15.0000 C.ar  190  Z80190      0.0077
     11  C8        -4.3660  -12.2990   13.6610 C.ar  190  Z80190      0.0086
     12  C9        -5.6570  -12.7390   13.3590 C.ar  190  Z80190      0.0120
     13  C10       -6.7440  -11.9500   13.7200 C.ar  190  Z80190      0.0589
     14  C11       -6.5270  -10.7420   14.3700 C.ar  190  Z80190      0.0267
     15  C12       -5.7210   -9.0460   16.7070 C.3   190  Z80190      0.0970
     16  C13       -7.1990   -8.6300   16.6400 C.3   190  Z80190      0.0391
     17  C14       -7.4320   -7.1220   16.5190 C.3   190  Z80190      0.0739
     18  C15       -9.6340   -6.2320   17.0100 C.3   190  Z80190      0.0897
     19  C16       -8.6940   -5.9540   14.8280 C.3   190  Z80190      0.0897
     20 CL1        -8.4350  -12.4490   13.3690 Cl    190  Z80190     -0.0822
     21  C17       -3.9010   -6.9810   15.5890 C.ar  190  Z80190      0.0153
@<TRIPOS>BOND
     1    12    11   ar
     2    12    13   ar
     3    20    13    1
     4    11     6   ar
     5    13    14   ar
     6     6     3    1
     7     6     7   ar
     8    14     7   ar
     9     3     4    1
    10     7     2    1
    11    19     5    1
    12    10     4   ar
    13    10     9   ar
    14     4     1   ar
    15     9     8   ar
    16     1     2    1
    17     1    21   ar
    18     2    15    1
    19     8    21   ar
    20     5    17    1
    21     5    18    1
    22    17    16    1
    23    16    15    1
