@<TRIPOS>MOLECULE
3aq0_FPP_A_1.pdb
 24 23 0 0 0
SMALL
GASTEIGER

@<TRIPOS>ATOM
      1  C1       -43.0840   27.1430    0.7910 C.3   1002  FPP1002     0.1747
      2  O1       -42.0660   26.6630   -0.0950 O.3   1002  FPP1002    -0.3089
      3  C2       -43.3140   26.2790    1.8670 C.2   1002  FPP1002    -0.0024
      4  C3       -43.2180   26.6030    3.2210 C.2   1002  FPP1002    -0.0454
      5  C4       -42.8220   28.0240    3.6130 C.3   1002  FPP1002     0.0261
      6  C5       -43.5570   25.6010    4.3310 C.3   1002  FPP1002     0.0264
      7  C6       -42.6030   24.4090    4.3970 C.3   1002  FPP1002     0.0297
      8  C7       -42.7940   23.6140    5.5300 C.2   1002  FPP1002    -0.0342
      9  C8       -42.0140   22.5330    5.9450 C.2   1002  FPP1002    -0.0478
     10  C10      -40.7870   22.0570    5.1480 C.3   1002  FPP1002     0.0260
     11  C9       -42.4010   21.7830    7.2280 C.3   1002  FPP1002     0.0263
     12  C11      -41.2580   21.8230    8.2610 C.3   1002  FPP1002     0.0297
     13  C12      -41.5330   22.7080    9.2960 C.2   1002  FPP1002    -0.0342
     14  C13      -40.6450   23.3470   10.1650 C.2   1002  FPP1002    -0.0478
     15  C14      -41.1960   24.3110   11.2290 C.3   1002  FPP1002     0.0260
     16  C15      -39.1370   23.1120   10.0960 C.3   1002  FPP1002     0.0260
     17  PA       -42.3490   26.4330   -1.7010 P.3   1002  FPP1002     0.2233
     18  O1A      -43.9310   26.1660   -1.8310 O.3   1002  FPP1002    -0.4370
     19  O2A      -41.4980   25.3590   -2.2800 O.2   1002  FPP1002    -0.5169
     20  O3A      -42.0900   27.8180   -2.3970 O.3   1002  FPP1002    -0.2261
     21  PB       -40.7000   28.5660   -2.1510 P.3   1002  FPP1002     0.5373
     22  O1B      -40.3430   29.5370   -3.2140 O.2   1002  FPP1002    -0.2221
     23  O2B      -40.9520   29.2660   -0.7250 O.3   1002  FPP1002    -0.1143
     24  O3B      -39.6410   27.3640   -1.9960 O.3   1002  FPP1002    -0.1143
@<TRIPOS>BOND
     1    22    21    2
     2    20    21    1
     3    20    17    1
     4    19    17    2
     5    21    24    1
     6    21    23    1
     7    18    17    1
     8    17     2    1
     9     2     1    1
    10     1     3    1
    11     3     4    2
    12     4     5    1
    13     4     6    1
    14     6     7    1
    15     7     8    1
    16    10     9    1
    17     8     9    2
    18     9    11    1
    19    11    12    1
    20    12    13    1
    21    13    14    2
    22    16    14    1
    23    14    15    1
