@<TRIPOS>MOLECULE
3aq0_ISY_A_1.pdb
 14 13 0 0 0
SMALL
GASTEIGER

@<TRIPOS>ATOM
      1  P1       -39.0990   35.5070    1.6470 P.3   1003  ISY1003     0.5394
      2  O2       -40.5190   35.7220    0.9340 O.3   1003  ISY1003    -0.1955
      3  P3       -41.6000   34.5770    0.7090 P.3   1003  ISY1003     0.4273
      4  O4       -38.3270   36.7380    1.0100 O.2   1003  ISY1003    -0.2220
      5  O5       -39.1720   35.5960    3.1220 O.3   1003  ISY1003    -0.1143
      6  O6       -38.3380   34.2230    1.0240 O.3   1003  ISY1003    -0.1143
      7  O7       -41.0360   33.2240    0.8550 O.3   1003  ISY1003    -0.1309
      8  O8       -42.3710   34.9370   -0.5040 O.2   1003  ISY1003    -0.2431
      9  S9       -42.5920   34.8720    2.0500 S.3   1003  ISY1003    -0.0237
     10  C10      -44.0140   35.8180    1.3350 C.3   1003  ISY1003     0.0942
     11  C11      -45.2210   35.2140    1.7250 C.2   1003  ISY1003    -0.0224
     12  C12      -46.3630   35.7850    2.2930 C.2   1003  ISY1003    -0.0470
     13  C13      -46.5360   37.2920    2.5510 C.3   1003  ISY1003     0.0261
     14  C14      -47.5120   34.8740    2.6450 C.3   1003  ISY1003     0.0261
@<TRIPOS>BOND
     1     8     3    2
     2     3     7    1
     3     3     2    1
     4     3     9    1
     5     2     1    1
     6     4     1    2
     7     6     1    1
     8    10    11    1
     9    10     9    1
    10     1     5    1
    11    11    12    2
    12    12    13    1
    13    12    14    1
