@<TRIPOS>MOLECULE
3aq4_GDP_A_1.pdb
 28 30 0 0 0
SMALL
GASTEIGER

@<TRIPOS>ATOM
      1  PB        27.2070    8.5420   17.9010 P.3   183  GDP183      0.5373
      2  O1B       27.1910    8.5340   16.4100 O.2   183  GDP183     -0.2221
      3  O2B       25.8810    8.1960   18.5890 O.3   183  GDP183     -0.1143
      4  O3B       27.6460    9.9440   18.3290 O.3   183  GDP183     -0.1143
      5  O3A       28.2840    7.5480   18.5250 O.3   183  GDP183     -0.2261
      6  PA        29.4980    6.8310   17.7330 P.3   183  GDP183      0.2231
      7  O1A       29.0090    5.7430   16.8330 O.2   183  GDP183     -0.5169
      8  O2A       30.3490    7.8580   16.9930 O.3   183  GDP183     -0.4370
      9  O5'       30.3110    6.1610   18.9230 O.3   183  GDP183     -0.3111
     10  C5'       30.8490    6.9260   20.0100 C.3   183  GDP183      0.1813
     11  C4'       31.9600    6.1760   20.7320 C.3   183  GDP183      0.1799
     12  O4'       31.4020    5.0830   21.4670 O.3   183  GDP183     -0.3326
     13  C3'       33.0240    5.6090   19.7850 C.3   183  GDP183      0.2158
     14  O3'       34.2730    5.8140   20.4710 O.3   183  GDP183     -0.2175
     15  C2'       32.6380    4.1450   19.6240 C.3   183  GDP183      0.2310
     16  O2'       33.6930    3.1930   19.3630 O.3   183  GDP183     -0.2158
     17  C1'       32.0200    3.8830   20.9900 C.3   183  GDP183      0.2293
     18  N9        31.0580    2.7790   21.0400 N.pl3 183  GDP183     -0.2354
     19  C8        29.9950    2.5510   20.2210 C.3   183  GDP183      0.2246
     20  N7        29.3520    1.4380   20.6190 N.2   183  GDP183     -0.2322
     21  C5        30.0120    0.9360   21.6900 C.2   183  GDP183      0.2182
     22  C6        29.8620   -0.2300   22.5710 C.1   183  GDP183      0.2372
     23  O6        28.8850   -1.0080   22.4040 O.2   183  GDP183     -0.2069
     24  N1        30.7650   -0.3950   23.5660 N.2   183  GDP183     -0.2485
     25  C2        31.7890    0.4780   23.7600 C.1   183  GDP183      0.2531
     26  N2        32.6820    0.3120   24.7650 N.pl3 183  GDP183     -0.0226
     27  N3        31.9800    1.5580   22.9750 N.2   183  GDP183     -0.3074
     28  C4        31.1300    1.8280   21.9490 C.2   183  GDP183      0.2300
@<TRIPOS>BOND
     1     2     1    2
     2     7     6    2
     3     8     6    1
     4     6     5    1
     5     6     9    1
     6     1     4    1
     7     1     5    1
     8     1     3    1
     9     9    10    1
    10    16    15    1
    11    15    13    1
    12    15    17    1
    13    13    14    1
    14    13    11    1
    15    10    11    1
    16    19    20    1
    17    19    18    1
    18    20    21    2
    19    11    12    1
    20    17    18    1
    21    17    12    1
    22    18    28    1
    23    21    28    1
    24    21    22    1
    25    28    27    2
    26    23    22    2
    27    22    24    2
    28    27    25    2
    29    24    25    2
    30    25    26    1
