@<TRIPOS>MOLECULE
3aq5_HEM_A_1.pdb
 43 50 0 0 0
SMALL
GASTEIGER

@<TRIPOS>ATOM
      1  CHA       26.8750   22.0980   13.4620 C.2   144  HEM144      0.0000
      2  CHB       22.2250   21.2820   12.3700 C.2   144  HEM144      0.0000
      3  CHC       21.6950   25.9130   11.0800 C.2   144  HEM144      0.0000
      4  CHD       25.8090   26.8290   13.4750 C.2   144  HEM144      0.0000
      5  C1A       25.6780   21.4700   13.3090 C.ar  144  HEM144      0.0000
      6  C2A       25.3590   20.0170   13.5330 C.ar  144  HEM144      0.0000
      7  C3A       24.0550   19.8470   13.2660 C.ar  144  HEM144      0.0000
      8  C4A       23.4960   21.1190   12.8080 C.ar  144  HEM144      0.0000
      9  CMA       23.2060   18.5450   13.3520 C.3   144  HEM144      0.0000
     10  CAA       26.3670   19.0520   14.2070 C.3   144  HEM144      0.0000
     11  CBA       26.7520   17.9830   13.2520 C.3   144  HEM144      0.0000
     12  CGA       27.5690   17.0430   14.2200 C.2   144  HEM144      0.0000
     13  O1A       28.7770   17.0270   13.8680 O.co2 144  HEM144      0.0000
     14  O2A       27.1500   16.5060   15.3070 O.co2 144  HEM144      0.0000
     15  C1B       21.7090   22.4350   11.8210 C.2   144  HEM144      0.0000
     16  C2B       20.4250   22.5410   11.1550 C.2   144  HEM144      0.0000
     17  C3B       20.3390   23.7970   10.7370 C.2   144  HEM144      0.0000
     18  C4B       21.4900   24.5380   11.2030 C.2   144  HEM144      0.0000
     19  CMB       19.3300   21.4890   10.9300 C.3   144  HEM144      0.0000
     20  CAB       19.1190   24.3770    9.9710 C.3   144  HEM144      0.0000
     21  CBB       19.4750   25.0380    8.9080 C.3   144  HEM144      0.0000
     22  C1C       22.7030   26.5880   11.7360 C.ar  144  HEM144      0.0000
     23  C2C       22.8340   28.0350   11.8600 C.ar  144  HEM144      0.0000
     24  C3C       23.9830   28.2610   12.5490 C.ar  144  HEM144      0.0000
     25  C4C       24.6180   26.9840   12.8430 C.ar  144  HEM144      0.0000
     26  CMC       21.7110   29.0450   11.3200 C.3   144  HEM144      0.0000
     27  CAC       24.6330   29.5910   13.0110 C.2   144  HEM144      0.0000
     28  CBC       24.1410   30.7310   12.4700 C.2   144  HEM144      0.0000
     29  C1D       26.4790   25.6600   13.6510 C.2   144  HEM144      0.0000
     30  C2D       27.7530   25.5590   14.3050 C.2   144  HEM144      0.0000
     31  C3D       28.1130   24.1280   14.2750 C.2   144  HEM144      0.0000
     32  C4D       26.9860   23.4620   13.6570 C.2   144  HEM144      0.0000
     33  CMD       28.6430   26.6660   14.9330 C.3   144  HEM144      0.0000
     34  CAD       29.3620   23.5390   14.9070 C.3   144  HEM144      0.0000
     35  CBD       30.4180   23.3750   13.8740 C.3   144  HEM144      0.0000
     36  CGD       31.6230   22.7480   14.5830 C.2   144  HEM144      0.0000
     37  O1D       32.7800   22.9850   14.2080 O.co2 144  HEM144      0.0000
     38  O2D       31.4200   21.8370   15.4740 O.co2 144  HEM144      0.0000
     39  NA        24.5070   21.9890   12.8530 N.ar  144  HEM144      0.0000
     40  NB        22.3840   23.6730   11.8620 N.2   144  HEM144      0.0000
     41  NC        23.7930   26.0540   12.2790 N.ar  144  HEM144      0.0000
     42  ND        26.0010   24.4020   13.3000 N.2   144  HEM144      0.0000
     43 FE         24.1740   24.0280   12.5280 Fe    144  HEM144      0.0000
@<TRIPOS>BOND
     1    21    20    1
     2    20    17    1
     3    17    16    2
     4    17    18    1
     5    19    16    1
     6     3    18    2
     7     3    22    1
     8    16    15    1
     9    18    40    1
    10    26    23    1
    11    22    23   ar
    12    22    41   ar
    13    15    40    2
    14    15     2    1
    15    23    24   ar
    16    40    43    1
    17    41    43    1
    18    41    25   ar
    19     2     8    2
    20    28    27    2
    21    43    39    1
    22    43    42    1
    23    24    25   ar
    24    24    27    1
    25     8    39   ar
    26     8     7   ar
    27    25     4    1
    28    39     5   ar
    29    11    10    1
    30    11    12    1
    31     7     9    1
    32     7     6   ar
    33    42    29    1
    34    42    32    2
    35     5     1    2
    36     5     6   ar
    37     1    32    1
    38     4    29    2
    39     6    10    1
    40    29    30    1
    41    32    31    1
    42    13    12   ar
    43    35    36    1
    44    35    34    1
    45    37    36   ar
    46    12    14   ar
    47    31    30    2
    48    31    34    1
    49    30    33    1
    50    36    38   ar
