@<TRIPOS>MOLECULE
3aq6_HEM_A_1.pdb
 43 50 0 0 0
SMALL
GASTEIGER

@<TRIPOS>ATOM
      1  CHA       26.7280   22.2890   13.5490 C.2   144  HEM144      0.0000
      2  CHB       22.0760   21.4200   12.4360 C.2   144  HEM144      0.0000
      3  CHC       21.5380   25.9810   11.0880 C.2   144  HEM144      0.0000
      4  CHD       25.5460   27.0020   13.4200 C.2   144  HEM144      0.0000
      5  C1A       25.5040   21.6880   13.3430 C.ar  144  HEM144      0.0000
      6  C2A       25.2290   20.2740   13.5380 C.ar  144  HEM144      0.0000
      7  C3A       23.9730   20.0730   13.2440 C.ar  144  HEM144      0.0000
      8  C4A       23.4010   21.3240   12.8290 C.ar  144  HEM144      0.0000
      9  CMA       23.1770   18.7150   13.3260 C.3   144  HEM144      0.0000
     10  CAA       26.1790   19.2070   14.1650 C.3   144  HEM144      0.0000
     11  CBA       26.8830   18.3830   13.1340 C.3   144  HEM144      0.0000
     12  CGA       27.5760   17.2700   13.9280 C.2   144  HEM144      0.0000
     13  O1A       28.4060   16.6650   13.1500 O.co2 144  HEM144      0.0000
     14  O2A       27.2620   16.9690   15.1920 O.co2 144  HEM144      0.0000
     15  C1B       21.5990   22.5860   11.9040 C.2   144  HEM144      0.0000
     16  C2B       20.3240   22.6690   11.2130 C.2   144  HEM144      0.0000
     17  C3B       20.1970   23.8970   10.7770 C.2   144  HEM144      0.0000
     18  C4B       21.3910   24.6170   11.2200 C.2   144  HEM144      0.0000
     19  CMB       19.2950   21.5500   10.9150 C.3   144  HEM144      0.0000
     20  CAB       18.9600   24.3670    9.9090 C.2   144  HEM144      0.0000
     21  CBB       19.2440   25.2180    8.9490 C.2   144  HEM144      0.0000
     22  C1C       22.5260   26.6570   11.7260 C.ar  144  HEM144      0.0000
     23  C2C       22.5900   28.1120   11.8790 C.ar  144  HEM144      0.0000
     24  C3C       23.7180   28.3790   12.5010 C.ar  144  HEM144      0.0000
     25  C4C       24.3580   27.1400   12.7740 C.ar  144  HEM144      0.0000
     26  CMC       21.4770   29.0950   11.3400 C.3   144  HEM144      0.0000
     27  CAC       24.2360   29.7860   12.9750 C.2   144  HEM144      0.0000
     28  CBC       24.0960   30.7970   12.0770 C.2   144  HEM144      0.0000
     29  C1D       26.1510   25.8090   13.6350 C.2   144  HEM144      0.0000
     30  C2D       27.4430   25.7810   14.2420 C.2   144  HEM144      0.0000
     31  C3D       27.8090   24.3400   14.2360 C.2   144  HEM144      0.0000
     32  C4D       26.6900   23.6710   13.6890 C.2   144  HEM144      0.0000
     33  CMD       28.3540   26.8940   14.8680 C.3   144  HEM144      0.0000
     34  CAD       29.0970   23.6970   14.8110 C.3   144  HEM144      0.0000
     35  CBD       30.2470   23.5040   13.8190 C.3   144  HEM144      0.0000
     36  CGD       31.4310   22.8650   14.5500 C.2   144  HEM144      0.0000
     37  O1D       32.6260   23.1120   14.1880 O.co2 144  HEM144      0.0000
     38  O2D       31.1760   21.9800   15.4430 O.co2 144  HEM144      0.0000
     39  NA        24.3630   22.2960   12.8830 N.ar  144  HEM144      0.0000
     40  NB        22.2670   23.8310   11.9530 N.2   144  HEM144      0.0000
     41  NC        23.5900   26.0980   12.3170 N.ar  144  HEM144      0.0000
     42  ND        25.6900   24.5390   13.2680 N.2   144  HEM144      0.0000
     43 FE         23.9550   24.1950   12.5780 Fe    144  HEM144      0.0000
@<TRIPOS>BOND
     1    21    20    2
     2    20    17    1
     3    17    16    2
     4    17    18    1
     5    19    16    1
     6     3    18    2
     7     3    22    1
     8    16    15    1
     9    18    40    1
    10    26    23    1
    11    22    23   ar
    12    22    41   ar
    13    23    24   ar
    14    15    40    2
    15    15     2    1
    16    40    43    1
    17    28    27    2
    18    41    43    1
    19    41    25   ar
    20     2     8    2
    21    24    25   ar
    22    24    27    1
    23    43    39    1
    24    43    42    1
    25    25     4    1
    26     8    39   ar
    27     8     7   ar
    28    39     5   ar
    29    11    12    1
    30    11    10    1
    31    13    12   ar
    32     7     9    1
    33     7     6   ar
    34    42    29    1
    35    42    32    2
    36     5     6   ar
    37     5     1    2
    38     4    29    2
    39     6    10    1
    40     1    32    1
    41    29    30    1
    42    32    31    1
    43    35    36    1
    44    35    34    1
    45    12    14   ar
    46    37    36   ar
    47    31    30    2
    48    31    34    1
    49    30    33    1
    50    36    38   ar
