@<TRIPOS>MOLECULE
3aq7_HEM_A_1.pdb
 43 50 0 0 0
SMALL
GASTEIGER

@<TRIPOS>ATOM
      1  CHA       26.7330   22.0700   13.4240 C.2   144  HEM144      0.0000
      2  CHB       22.0000   21.2970   12.3790 C.2   144  HEM144      0.0000
      3  CHC       21.3700   25.8950   11.0910 C.2   144  HEM144      0.0000
      4  CHD       25.5290   26.8030   13.4650 C.2   144  HEM144      0.0000
      5  C1A       25.5450   21.4930   13.2210 C.ar  144  HEM144      0.0000
      6  C2A       25.2340   20.0230   13.3610 C.ar  144  HEM144      0.0000
      7  C3A       23.9340   19.8480   13.1330 C.ar  144  HEM144      0.0000
      8  C4A       23.3030   21.1210   12.7340 C.ar  144  HEM144      0.0000
      9  CMA       23.1750   18.4420   13.1500 C.3   144  HEM144      0.0000
     10  CAA       26.3590   19.1120   13.9260 C.3   144  HEM144      0.0000
     11  CBA       26.7060   17.6960   13.5200 C.3   144  HEM144      0.0000
     12  CGA       27.3930   17.2230   14.8510 C.2   144  HEM144      0.0000
     13  O1A       28.5390   17.6880   15.1300 O.co2 144  HEM144      0.0000
     14  O2A       26.7890   16.4710   15.6540 O.co2 144  HEM144      0.0000
     15  C1B       21.5120   22.4870   11.8750 C.2   144  HEM144      0.0000
     16  C2B       20.2520   22.5180   11.1920 C.2   144  HEM144      0.0000
     17  C3B       20.0860   23.7790   10.7560 C.2   144  HEM144      0.0000
     18  C4B       21.2700   24.4940   11.2120 C.2   144  HEM144      0.0000
     19  CMB       19.2020   21.3930   10.9280 C.3   144  HEM144      0.0000
     20  CAB       18.8620   24.2940    9.9450 C.3   144  HEM144      0.0000
     21  CBB       19.2300   25.0530    8.9250 C.3   144  HEM144      0.0000
     22  C1C       22.3540   26.5600   11.7740 C.ar  144  HEM144      0.0000
     23  C2C       22.5410   28.0300   11.9600 C.ar  144  HEM144      0.0000
     24  C3C       23.7140   28.2380   12.5870 C.ar  144  HEM144      0.0000
     25  C4C       24.3460   26.9400   12.8570 C.ar  144  HEM144      0.0000
     26  CMC       21.4320   29.0030   11.3960 C.3   144  HEM144      0.0000
     27  CAC       24.3970   29.5790   13.0890 C.3   144  HEM144      0.0000
     28  CBC       23.6010   30.5780   13.0020 C.3   144  HEM144      0.0000
     29  C1D       26.1910   25.6200   13.6100 C.2   144  HEM144      0.0000
     30  C2D       27.5060   25.5850   14.2230 C.2   144  HEM144      0.0000
     31  C3D       27.8690   24.1240   14.2180 C.2   144  HEM144      0.0000
     32  C4D       26.7440   23.4970   13.6040 C.2   144  HEM144      0.0000
     33  CMD       28.4030   26.6670   14.8680 C.3   144  HEM144      0.0000
     34  CAD       29.1490   23.5170   14.7940 C.3   144  HEM144      0.0000
     35  CBD       30.3000   23.3500   13.8480 C.3   144  HEM144      0.0000
     36  CGD       31.4910   22.7560   14.6210 C.2   144  HEM144      0.0000
     37  O1D       32.6330   23.0240   14.2610 O.co2 144  HEM144      0.0000
     38  O2D       31.2280   21.8340   15.4940 O.co2 144  HEM144      0.0000
     39  NA        24.3570   21.9670   12.8530 N.ar  144  HEM144      0.0000
     40  NB        22.2470   23.7290   11.9250 N.2   144  HEM144      0.0000
     41  NC        23.4360   26.0720   12.3250 N.ar  144  HEM144      0.0000
     42  ND        25.6490   24.3450   13.2090 N.2   144  HEM144      0.0000
     43 FE         23.9400   24.0180   12.5490 Fe    144  HEM144      0.0000
@<TRIPOS>BOND
     1    21    20    1
     2    20    17    1
     3    17    16    2
     4    17    18    1
     5    19    16    1
     6     3    18    2
     7     3    22    1
     8    16    15    1
     9    18    40    1
    10    26    23    1
    11    22    23   ar
    12    22    41   ar
    13    15    40    2
    14    15     2    1
    15    40    43    1
    16    23    24   ar
    17    41    43    1
    18    41    25   ar
    19     2     8    2
    20    43    39    1
    21    43    42    1
    22    24    25   ar
    23    24    27    1
    24     8    39   ar
    25     8     7   ar
    26    39     5   ar
    27    25     4    1
    28    28    27    1
    29     7     9    1
    30     7     6   ar
    31    42    32    2
    32    42    29    1
    33     5     6   ar
    34     5     1    2
    35     6    10    1
    36     1    32    1
    37     4    29    2
    38    11    10    1
    39    11    12    1
    40    32    31    1
    41    29    30    1
    42    35    36    1
    43    35    34    1
    44    31    30    2
    45    31    34    1
    46    30    33    1
    47    37    36   ar
    48    36    38   ar
    49    12    13   ar
    50    12    14   ar
