@<TRIPOS>MOLECULE
3aq8_HEM_A_1.pdb
 43 50 0 0 0
SMALL
GASTEIGER

@<TRIPOS>ATOM
      1  CHA       26.5930   22.1980   13.5070 C.2   144  HEM144      0.0000
      2  CHB       21.9120   21.3430   12.2830 C.2   144  HEM144      0.0000
      3  CHC       21.4250   25.9680   10.9060 C.2   144  HEM144      0.0000
      4  CHD       25.4330   26.9240   13.3760 C.2   144  HEM144      0.0000
      5  C1A       25.3920   21.5810   13.3170 C.ar  144  HEM144      0.0000
      6  C2A       25.0950   20.1520   13.5580 C.ar  144  HEM144      0.0000
      7  C3A       23.7930   19.9560   13.2370 C.ar  144  HEM144      0.0000
      8  C4A       23.2170   21.2110   12.7340 C.ar  144  HEM144      0.0000
      9  CMA       22.9330   18.6690   13.3110 C.3   144  HEM144      0.0000
     10  CAA       26.0870   19.1670   14.2670 C.3   144  HEM144      0.0000
     11  CBA       26.5900   17.9890   13.4810 C.3   144  HEM144      0.0000
     12  CGA       27.1120   17.2520   14.7740 C.2   144  HEM144      0.0000
     13  O1A       28.2190   17.7180   15.2490 O.co2 144  HEM144      0.0000
     14  O2A       26.3600   16.4320   15.4380 O.co2 144  HEM144      0.0000
     15  C1B       21.4100   22.5070   11.7390 C.2   144  HEM144      0.0000
     16  C2B       20.1290   22.5810   11.0140 C.2   144  HEM144      0.0000
     17  C3B       20.0010   23.8700   10.5860 C.2   144  HEM144      0.0000
     18  C4B       21.2150   24.5950   11.0550 C.2   144  HEM144      0.0000
     19  CMB       19.0840   21.4660   10.7980 C.3   144  HEM144      0.0000
     20  CAB       18.8010   24.4560    9.7790 C.3   144  HEM144      0.0000
     21  CBB       19.1750   25.1600    8.7280 C.3   144  HEM144      0.0000
     22  C1C       22.3620   26.6880   11.5980 C.ar  144  HEM144      0.0000
     23  C2C       22.4410   28.1720   11.7740 C.ar  144  HEM144      0.0000
     24  C3C       23.5910   28.4060   12.4790 C.ar  144  HEM144      0.0000
     25  C4C       24.2150   27.1190   12.7670 C.ar  144  HEM144      0.0000
     26  CMC       21.3410   29.1310   11.2630 C.3   144  HEM144      0.0000
     27  CAC       24.1810   29.7010   13.0590 C.2   144  HEM144      0.0000
     28  CBC       23.7980   30.8030   12.4760 C.2   144  HEM144      0.0000
     29  C1D       26.0980   25.7640   13.6030 C.2   144  HEM144      0.0000
     30  C2D       27.3950   25.7200   14.2720 C.2   144  HEM144      0.0000
     31  C3D       27.7460   24.2500   14.2880 C.2   144  HEM144      0.0000
     32  C4D       26.6420   23.5750   13.6640 C.2   144  HEM144      0.0000
     33  CMD       28.2480   26.8410   14.9080 C.3   144  HEM144      0.0000
     34  CAD       29.0180   23.6620   14.9400 C.3   144  HEM144      0.0000
     35  CBD       30.0990   23.4400   13.9280 C.3   144  HEM144      0.0000
     36  CGD       31.2900   22.8460   14.6910 C.2   144  HEM144      0.0000
     37  O1D       32.4570   23.2170   14.4210 O.co2 144  HEM144      0.0000
     38  O2D       31.0170   21.8720   15.5200 O.co2 144  HEM144      0.0000
     39  NA        24.2370   22.1020   12.7950 N.ar  144  HEM144      0.0000
     40  NB        22.0890   23.7430   11.7100 N.2   144  HEM144      0.0000
     41  NC        23.4500   26.2130   12.1600 N.ar  144  HEM144      0.0000
     42  ND        25.6790   24.4880   13.2430 N.2   144  HEM144      0.0000
     43 FE         23.8480   24.1330   12.4500 Fe    144  HEM144      0.0000
@<TRIPOS>BOND
     1    21    20    1
     2    20    17    1
     3    17    16    2
     4    17    18    1
     5    19    16    1
     6     3    18    2
     7     3    22    1
     8    16    15    1
     9    18    40    1
    10    26    23    1
    11    22    23   ar
    12    22    41   ar
    13    40    15    2
    14    40    43    1
    15    15     2    1
    16    23    24   ar
    17    41    43    1
    18    41    25   ar
    19     2     8    2
    20    43    39    1
    21    43    42    1
    22    28    27    2
    23    24    25   ar
    24    24    27    1
    25     8    39   ar
    26     8     7   ar
    27    25     4    1
    28    39     5   ar
    29     7     9    1
    30     7     6   ar
    31    42    29    1
    32    42    32    2
    33     5     1    2
    34     5     6   ar
    35     4    29    2
    36    11    10    1
    37    11    12    1
    38     1    32    1
    39     6    10    1
    40    29    30    1
    41    32    31    1
    42    35    36    1
    43    35    34    1
    44    30    31    2
    45    30    33    1
    46    31    34    1
    47    37    36   ar
    48    36    38   ar
    49    12    13   ar
    50    12    14   ar
