@<TRIPOS>MOLECULE
3aq9_HEM_A_1.pdb
 43 50 0 0 0
SMALL
GASTEIGER

@<TRIPOS>ATOM
      1  CHA       26.9120   21.9210   13.3840 C.2   144  HEM144      0.0000
      2  CHB       22.1680   21.1450   12.3760 C.2   144  HEM144      0.0000
      3  CHC       21.6770   25.7850   11.1650 C.2   144  HEM144      0.0000
      4  CHD       25.8580   26.6790   13.5690 C.2   144  HEM144      0.0000
      5  C1A       25.6750   21.3240   13.2100 C.ar  144  HEM144      0.0000
      6  C2A       25.3800   19.8900   13.3570 C.ar  144  HEM144      0.0000
      7  C3A       24.0980   19.7090   13.1220 C.ar  144  HEM144      0.0000
      8  C4A       23.4980   20.9700   12.7490 C.ar  144  HEM144      0.0000
      9  CMA       23.2350   18.4360   13.1620 C.3   144  HEM144      0.0000
     10  CAA       26.4360   18.8450   13.8980 C.3   144  HEM144      0.0000
     11  CBA       26.8720   17.5360   13.2050 C.3   144  HEM144      0.0000
     12  CGA       27.5700   16.8460   14.5300 C.2   144  HEM144      0.0000
     13  O1A       28.7320   17.2620   14.8850 O.co2 144  HEM144      0.0000
     14  O2A       26.8830   16.2510   15.4470 O.co2 144  HEM144      0.0000
     15  C1B       21.6780   22.3830   11.8720 C.2   144  HEM144      0.0000
     16  C2B       20.3730   22.4560   11.2360 C.2   144  HEM144      0.0000
     17  C3B       20.2830   23.7260   10.8090 C.2   144  HEM144      0.0000
     18  C4B       21.4800   24.3830   11.2660 C.2   144  HEM144      0.0000
     19  CMB       19.3470   21.3440   11.0240 C.3   144  HEM144      0.0000
     20  CAB       19.1010   24.2980   10.0150 C.3   144  HEM144      0.0000
     21  CBB       19.4930   25.0310    8.9840 C.3   144  HEM144      0.0000
     22  C1C       22.7490   26.4450   11.7900 C.ar  144  HEM144      0.0000
     23  C2C       22.8550   27.8760   11.9390 C.ar  144  HEM144      0.0000
     24  C3C       23.9990   28.0730   12.6240 C.ar  144  HEM144      0.0000
     25  C4C       24.6220   26.8170   12.9180 C.ar  144  HEM144      0.0000
     26  CMC       21.7700   28.9080   11.4210 C.3   144  HEM144      0.0000
     27  CAC       24.6280   29.4190   13.1450 C.2   144  HEM144      0.0000
     28  CBC       24.2190   30.5930   12.6670 C.2   144  HEM144      0.0000
     29  C1D       26.5030   25.4420   13.6950 C.2   144  HEM144      0.0000
     30  C2D       27.7930   25.3300   14.3230 C.2   144  HEM144      0.0000
     31  C3D       28.0990   23.9190   14.2390 C.2   144  HEM144      0.0000
     32  C4D       26.9770   23.3310   13.5830 C.2   144  HEM144      0.0000
     33  CMD       28.7170   26.3960   14.9300 C.3   144  HEM144      0.0000
     34  CAD       29.3350   23.2450   14.7710 C.3   144  HEM144      0.0000
     35  CBD       30.4710   23.2250   13.8400 C.3   144  HEM144      0.0000
     36  CGD       31.6950   22.6330   14.5760 C.2   144  HEM144      0.0000
     37  O1D       32.8170   22.8220   14.1150 O.co2 144  HEM144      0.0000
     38  O2D       31.4820   21.7160   15.4790 O.co2 144  HEM144      0.0000
     39  NA        24.4800   21.9150   12.8280 N.ar  144  HEM144      0.0000
     40  NB        22.4660   23.5490   11.9160 N.2   144  HEM144      0.0000
     41  NC        23.8180   25.8260   12.3680 N.ar  144  HEM144      0.0000
     42  ND        25.9310   24.2120   13.2740 N.2   144  HEM144      0.0000
     43 FE         24.1810   23.8590   12.5650 Fe    144  HEM144      0.0000
@<TRIPOS>BOND
     1    21    20    1
     2    20    17    1
     3    17    16    2
     4    17    18    1
     5    19    16    1
     6     3    18    2
     7     3    22    1
     8    16    15    1
     9    18    40    1
    10    26    23    1
    11    22    23   ar
    12    22    41   ar
    13    15    40    2
    14    15     2    1
    15    40    43    1
    16    23    24   ar
    17    41    43    1
    18    41    25   ar
    19     2     8    2
    20    43    39    1
    21    43    42    1
    22    24    25   ar
    23    24    27    1
    24    28    27    2
    25     8    39   ar
    26     8     7   ar
    27    39     5   ar
    28    25     4    1
    29     7     9    1
    30     7     6   ar
    31    11    10    1
    32    11    12    1
    33     5     6   ar
    34     5     1    2
    35    42    32    2
    36    42    29    1
    37     6    10    1
    38     1    32    1
    39     4    29    2
    40    32    31    1
    41    29    30    1
    42    35    36    1
    43    35    34    1
    44    37    36   ar
    45    31    30    2
    46    31    34    1
    47    30    33    1
    48    12    13   ar
    49    12    14   ar
    50    36    38   ar
