@<TRIPOS>MOLECULE
3aqa_BYH_A_1.pdb
 23 26 0 0 0
SMALL
GASTEIGER

@<TRIPOS>ATOM
      1  CAA       11.2490   -8.4980   36.0140 C.3   201  BYH201      0.1324
      2  SAB        9.5090   -6.4700   34.3110 S.2   201  BYH201     -0.0126
      3  CAC       15.5250   -4.0930   32.8810 C.ar  201  BYH201      0.0028
      4  CAD       14.7150   -4.3790   34.0270 C.ar  201  BYH201      0.0028
      5  CAE       12.3160  -12.0270   33.2810 C.ar  201  BYH201      0.0016
      6  CAF       11.7890  -11.8860   31.9640 C.ar  201  BYH201      0.0016
      7  CAG       15.0270   -4.2890   31.5520 C.ar  201  BYH201      0.0357
      8  CAH       13.3980   -4.8760   33.8680 C.ar  201  BYH201      0.0357
      9  CAI       12.0890  -11.0350   34.2630 C.ar  201  BYH201      0.0187
     10  CAJ       11.0190  -10.7450   31.6060 C.ar  201  BYH201      0.0187
     11  CAK        9.1770   -6.6050   30.9020 C.3   201  BYH201      0.0989
     12  CAL        9.3830   -8.1120   31.2330 C.3   201  BYH201      0.1207
     13  NAM       12.9560   -5.0730   30.3290 N.2   201  BYH201     -0.3323
     14  NAN       11.7390   -5.5300   32.1180 N.2   201  BYH201     -0.3323
     15  SAO       10.4850   -6.0480   29.7380 S.3   201  BYH201     -0.0161
     16  CAP       11.7820   -5.5240   30.7860 C.1   201  BYH201      0.1684
     17  CAQ       10.1860   -7.9870   33.7540 C.ar  201  BYH201      0.1629
     18  CAR       13.6990   -4.7850   31.4040 C.ar  201  BYH201      0.1746
     19  CAS       12.8960   -5.0820   32.5530 C.ar  201  BYH201      0.1746
     20  CAT       11.3030   -9.8670   33.8990 C.ar  201  BYH201      0.0774
     21  CAU       10.7680   -9.7250   32.5650 C.ar  201  BYH201      0.0774
     22  NAV       10.9200   -8.7890   34.5660 N.ar  201  BYH201     -0.3052
     23  NAW       10.0870   -8.5660   32.5100 N.ar  201  BYH201     -0.3063
@<TRIPOS>BOND
     1    15    16    1
     2    15    11    1
     3    13    16    2
     4    13    18    2
     5    16    14    2
     6    11    12    1
     7    12    23    1
     8    18     7   ar
     9    18    19   ar
    10     7     3   ar
    11    10     6   ar
    12    10    21   ar
    13     6     5   ar
    14    14    19    2
    15    23    21   ar
    16    23    17   ar
    17    19     8   ar
    18    21    20   ar
    19     3     4   ar
    20     5     9   ar
    21    17     2    2
    22    17    22   ar
    23     8     4   ar
    24    20     9   ar
    25    20    22   ar
    26    22     1    1
