@<TRIPOS>MOLECULE
3aqc_2DE_B_1.pdb
 23 22 0 0 0
SMALL
GASTEIGER

@<TRIPOS>ATOM
      1  C1       133.9600   83.8590   62.0870 C.3   329  2DE329      0.1750
      2  O1       133.1660   82.7790   61.5950 O.3   329  2DE329     -0.3089
      3  C2       135.4050   83.4300   62.1520 C.2   329  2DE329      0.0015
      4  C3       135.7780   82.5200   63.0460 C.2   329  2DE329     -0.0279
      5  C5       137.2190   82.0780   63.1260 C.3   329  2DE329      0.0304
      6  C6       137.3870   80.7310   62.4320 C.3   329  2DE329      0.0300
      7  C7       138.1660   79.8030   63.3330 C.2   329  2DE329     -0.0342
      8  C8       138.9190   78.8100   62.8410 C.2   329  2DE329     -0.0478
      9  C9       139.6750   77.9110   63.7890 C.3   329  2DE329      0.0263
     10  PA       131.9520   83.0690   60.5790 P.3   329  2DE329      0.2233
     11  PB       132.1340   84.9740   58.5020 P.3   329  2DE329      0.5373
     12  C10      139.0160   78.5880   61.3610 C.3   329  2DE329      0.0260
     13  C11      141.1130   77.7500   63.3150 C.3   329  2DE329      0.0297
     14  C12      141.9880   78.7760   63.9940 C.2   329  2DE329     -0.0342
     15  C13      143.2370   78.9890   63.5560 C.2   329  2DE329     -0.0478
     16  C14      143.7610   78.2090   62.3870 C.3   329  2DE329      0.0260
     17  C15      144.1080   80.0070   64.2300 C.3   329  2DE329      0.0260
     18  O1A      130.6880   83.2080   61.3920 O.3   329  2DE329     -0.4370
     19  O1B      130.6420   84.8790   58.2790 O.3   329  2DE329     -0.1143
     20  O2A      132.0250   82.0680   59.4500 O.2   329  2DE329     -0.5169
     21  O2B      132.6750   86.3880   58.4780 O.3   329  2DE329     -0.1143
     22  O3A      132.3470   84.5310   60.0370 O.3   329  2DE329     -0.2261
     23  O3B      132.9470   83.9720   57.7120 O.2   329  2DE329     -0.2221
@<TRIPOS>BOND
     1    23    11    2
     2    19    11    1
     3    21    11    1
     4    11    22    1
     5    20    10    2
     6    22    10    1
     7    10    18    1
     8    10     2    1
     9    12     8    1
    10     2     1    1
    11     1     3    1
    12     3     4    2
    13    16    15    1
    14     6     5    1
    15     6     7    1
    16     8     7    2
    17     8     9    1
    18     4     5    1
    19    13     9    1
    20    13    14    1
    21    15    14    2
    22    15    17    1
