@<TRIPOS>MOLECULE
3aqn_ATP_A_1.pdb
 31 33 0 0 0
SMALL
GASTEIGER

@<TRIPOS>ATOM
      1  PG       -45.4860  -13.8760  -23.0460 P.3   501  ATP501      0.5373
      2  O1G      -44.2350  -14.3400  -23.7670 O.2   501  ATP501     -0.2221
      3  O2G      -45.6760  -12.3710  -23.0550 O.3   501  ATP501     -0.1143
      4  O3G      -45.6890  -14.5110  -21.6770 O.3   501  ATP501     -0.1143
      5  PB       -47.4420  -15.8780  -23.9390 P.3   501  ATP501      0.2277
      6  O1B      -46.9340  -16.6940  -25.1220 O.2   501  ATP501     -0.5168
      7  O2B      -47.3680  -16.4530  -22.5290 O.3   501  ATP501     -0.4368
      8  O3B      -46.7150  -14.4140  -23.9740 O.3   501  ATP501     -0.2258
      9  PA       -50.3510  -16.2390  -24.0380 P.3   501  ATP501      0.2189
     10  O1A      -50.5780  -16.4890  -22.5550 O.3   501  ATP501     -0.4371
     11  O2A      -51.4250  -15.5370  -24.8530 O.2   501  ATP501     -0.5170
     12  O3A      -48.9740  -15.3890  -24.2260 O.3   501  ATP501     -0.2700
     13  O5'      -50.0600  -17.6380  -24.7910 O.3   501  ATP501     -0.3112
     14  C5'      -49.4940  -17.5980  -26.0980 C.3   501  ATP501      0.1813
     15  C4'      -49.7260  -18.8900  -26.8710 C.3   501  ATP501      0.1821
     16  O4'      -51.0810  -18.9660  -27.3600 O.3   501  ATP501     -0.3135
     17  C3'      -48.8040  -18.8900  -28.0760 C.3   501  ATP501      0.2184
     18  O3'      -47.9870  -20.0720  -28.0830 O.3   501  ATP501     -0.2174
     19  C2'      -49.7270  -18.8270  -29.2830 C.3   501  ATP501      0.2570
     20  O2'      -49.2520  -19.7400  -30.2650 O.3   501  ATP501     -0.2130
     21  C1'      -51.1210  -19.1980  -28.7770 C.3   501  ATP501      0.3186
     22  N9       -52.1930  -18.3720  -29.4220 N.pl3 501  ATP501     -0.1439
     23  C8       -52.9270  -17.4230  -28.7980 C.3   501  ATP501      0.3377
     24  N7       -53.8250  -16.8340  -29.6330 N.2   501  ATP501     -0.2095
     25  C5       -53.6820  -17.4130  -30.8490 C.2   501  ATP501      0.2526
     26  C6       -54.3160  -17.2620  -32.1980 C.2   501  ATP501      0.4393
     27  N6       -55.3090  -16.3580  -32.4250 N.pl3 501  ATP501      0.2180
     28  N1       -53.8710  -18.0610  -33.2010 N.2   501  ATP501      0.0021
     29  C2       -52.8890  -18.9660  -32.9990 C.3   501  ATP501      0.5254
     30  N3       -52.2750  -19.1530  -31.8090 N.2   501  ATP501     -0.0055
     31  C4       -52.6110  -18.4260  -30.7040 C.2   501  ATP501      0.3518
@<TRIPOS>BOND
     1    28    29    1
     2    28    26    2
     3    29    30    1
     4    27    26    1
     5    26    25    1
     6    30    31    2
     7    25    31    1
     8    25    24    2
     9    31    22    1
    10    20    19    1
    11    24    23    1
    12    22    23    1
    13    22    21    1
    14    19    21    1
    15    19    17    1
    16    21    16    1
    17    18    17    1
    18    17    15    1
    19    16    15    1
    20    15    14    1
    21    14    13    1
    22     6     5    2
    23    11     9    2
    24    13     9    1
    25    12     9    1
    26    12     5    1
    27     9    10    1
    28     8     5    1
    29     8     1    1
    30     5     7    1
    31     2     1    2
    32     3     1    1
    33     1     4    1
