@<TRIPOS>MOLECULE
3aqv_TAK_A_1.pdb
 30 34 0 0 0
SMALL
GASTEIGER

@<TRIPOS>ATOM
      1  C1        -9.1760   39.4670    3.8650 C.3     1  TAK1        0.0722
      2  C2        -8.6120   39.0200    2.5110 C.3     1  TAK1        0.0174
      3  C3        -8.3680   37.4970    2.5040 C.3     1  TAK1        0.0029
      4  C4        -8.8620   36.8750    3.8370 C.3     1  TAK1        0.0174
      5  C5       -10.3010   37.3280    4.1650 C.3     1  TAK1        0.0722
      6  N1       -10.4770   38.8150    4.1480 N.3     1  TAK1       -0.2696
      7  C6       -11.1850   39.2540    5.3880 C.3     1  TAK1        0.1200
      8  C7       -10.8410   40.7060    5.8880 C.3     1  TAK1        0.2226
      9  O1        -9.7350   40.6560    6.8950 O.3     1  TAK1       -0.4740
     10  C8        -9.2530   41.8740    7.3430 C.ar    1  TAK1        0.1386
     11  C9       -10.0230   43.0510    7.2790 C.ar    1  TAK1        0.0369
     12  C10       -9.4570   44.2510    7.7470 C.ar    1  TAK1        0.0030
     13  C11       -7.9720   41.9020    7.8890 C.ar    1  TAK1        0.0369
     14  C12       -7.4190   43.0910    8.3430 C.ar    1  TAK1        0.0030
     15  C13       -8.1820   44.2760    8.3180 C.ar    1  TAK1        0.0039
     16  C14       -7.5950   45.4780    8.7520 C.2     1  TAK1        0.0732
     17  C15       -8.1650   46.7480    8.5280 C.3     1  TAK1        0.2600
     18  C16       -6.3680   45.4500    9.3400 C.2     1  TAK1        0.2355
     19  N2        -5.7660   46.5550    9.7510 N.2     1  TAK1       -0.0344
     20  C17       -6.2970   47.7750    9.5750 C.2     1  TAK1        0.3475
     21  N3        -7.5330   47.8910    8.9840 N.pl3   1  TAK1       -0.0803
     22  N4        -7.8350   49.1160    8.9070 N.pl3   1  TAK1       -0.0549
     23  C18       -6.8550   49.8940    9.4230 C.2     1  TAK1        0.1363
     24  C19       -5.8830   49.0770    9.8880 C.2     1  TAK1        0.1044
     25  C20       -4.6520   49.5010   10.4840 C.ar    1  TAK1        0.0117
     26  C21       -4.4380   50.8580   10.7220 C.ar    1  TAK1        0.0210
     27  C22       -3.2470   51.3800   11.2440 C.ar    1  TAK1        0.0989
     28  N5        -2.2840   50.5340   11.5530 N.ar    1  TAK1       -0.2423
     29  C23       -2.4150   49.2300   11.3490 C.ar    1  TAK1        0.0989
     30  C24       -3.5780   48.6590   10.8020 C.ar    1  TAK1        0.0210
@<TRIPOS>BOND
     1     3     2    1
     2     3     4    1
     3     2     1    1
     4     4     5    1
     5     1     6    1
     6     6     5    1
     7     6     7    1
     8     7     8    1
     9     8     9    1
    10     9    10    1
    11    11    10   ar
    12    11    12   ar
    13    10    13   ar
    14    12    15   ar
    15    13    14   ar
    16    15    14   ar
    17    15    16    1
    18    17    16    1
    19    17    21    1
    20    16    18    2
    21    22    21    1
    22    22    23    1
    23    21    20    1
    24    18    19    1
    25    23    24    2
    26    20    19    2
    27    20    24    1
    28    24    25    1
    29    25    26   ar
    30    25    30   ar
    31    26    27   ar
    32    30    29   ar
    33    27    28   ar
    34    29    28   ar
