@<TRIPOS>MOLECULE
3aqx_BGC_A_1.pdb
 11 11 0 0 0
SMALL
GASTEIGER

@<TRIPOS>ATOM
      1  C2        -0.4210    2.7970    7.1160 C.3   703  BGC703      0.2141
      2  C3         0.5820    3.8530    6.6650 C.3   703  BGC703      0.2173
      3  C4         0.0670    5.2680    6.9190 C.3   703  BGC703      0.2142
      4  C5        -0.3700    5.4170    8.3760 C.3   703  BGC703      0.1810
      5  C6        -0.9600    6.7940    8.6870 C.3   703  BGC703      0.2141
      6  C1        -1.0510    3.0970    8.4810 C.3   703  BGC703      0.1777
      7  O2         0.2790    1.5750    7.1570 O.3   703  BGC703     -0.2176
      8  O3         0.7840    3.6530    5.2840 O.3   703  BGC703     -0.2175
      9  O4         1.0790    6.2020    6.6120 O.3   703  BGC703     -0.2176
     10  O5        -1.3820    4.4660    8.6340 O.3   703  BGC703     -0.3481
     11  O6        -1.0420    6.9810   10.1000 O.3   703  BGC703     -0.2176
@<TRIPOS>BOND
     1     8     2    1
     2     9     3    1
     3     2     3    1
     4     2     1    1
     5     3     4    1
     6     1     7    1
     7     1     6    1
     8     4    10    1
     9     4     5    1
    10     6    10    1
    11     5    11    1
