@<TRIPOS>MOLECULE
3aqz_BGC_A_1.pdb
 11 11 0 0 0
SMALL
GASTEIGER

@<TRIPOS>ATOM
      1  C2        -5.3380  -17.1190    2.8340 C.3   703  BGC703      0.2141
      2  C3        -5.8050  -15.9340    3.6560 C.3   703  BGC703      0.2173
      3  C4        -5.6410  -16.2140    5.1500 C.3   703  BGC703      0.2142
      4  C5        -4.1950  -16.6370    5.4260 C.3   703  BGC703      0.1810
      5  C6        -3.9070  -16.9720    6.9000 C.3   703  BGC703      0.2141
      6  C1        -3.9560  -17.6340    3.2600 C.3   703  BGC703      0.1777
      7  O2        -5.3350  -16.7050    1.4810 O.3   703  BGC703     -0.2176
      8  O3        -7.1650  -15.7750    3.3070 O.3   703  BGC703     -0.2175
      9  O4        -6.0370  -15.0640    5.8940 O.3   703  BGC703     -0.2176
     10  O5        -3.8930  -17.7990    4.6590 O.3   703  BGC703     -0.3481
     11  O6        -2.5080  -17.1720    7.1150 O.3   703  BGC703     -0.2176
@<TRIPOS>BOND
     1     7     1    1
     2     1     6    1
     3     1     2    1
     4     6    10    1
     5     8     2    1
     6     2     3    1
     7    10     4    1
     8     3     4    1
     9     3     9    1
    10     4     5    1
    11     5    11    1
