@<TRIPOS>MOLECULE
3ar2_ACP_A_1.pdb
 31 33 0 0 0
SMALL
GASTEIGER

@<TRIPOS>ATOM
      1  PG        72.3400   30.9660   56.1280 P.3   1002  ACP1002     0.1295
      2  O1G       72.5140   32.5920   56.1370 O.3   1002  ACP1002    -0.3567
      3  O2G       70.8390   30.6990   56.2410 O.3   1002  ACP1002    -0.3567
      4  O3G       72.9870   30.4150   54.7980 O.2   1002  ACP1002    -0.4595
      5  PB        72.8900   30.2110   59.0440 P.3   1002  ACP1002     0.3815
      6  O1B       73.0510   31.5310   59.8610 O.3   1002  ACP1002    -0.1391
      7  O2B       74.0240   29.3460   59.5220 O.2   1002  ACP1002    -0.2547
      8  C3B       73.0400   30.1810   57.4120 C.3   1002  ACP1002     0.1768
      9  PA        70.9340   28.2140   59.9710 P.3   1002  ACP1002     0.2209
     10  O1A       69.4070   28.0980   60.0410 O.3   1002  ACP1002    -0.4371
     11  O2A       71.8160   27.3070   59.1460 O.2   1002  ACP1002    -0.5170
     12  O3A       71.3840   29.7930   59.5550 O.3   1002  ACP1002    -0.2483
     13  O5'       71.3370   28.2480   61.5300 O.3   1002  ACP1002    -0.3111
     14  C5'       70.6770   29.1750   62.4020 C.3   1002  ACP1002     0.1813
     15  C4'       71.6180   29.6490   63.5080 C.3   1002  ACP1002     0.1821
     16  O4'       72.2520   28.5210   64.1330 O.3   1002  ACP1002    -0.3135
     17  C3'       72.7460   30.5660   63.0430 C.3   1002  ACP1002     0.2184
     18  O3'       72.3980   31.9640   63.0120 O.3   1002  ACP1002    -0.2174
     19  C2'       73.8590   30.2840   64.0250 C.3   1002  ACP1002     0.2570
     20  O2'       73.6330   31.0900   65.1690 O.3   1002  ACP1002    -0.2130
     21  C1'       73.5850   28.8750   64.5330 C.3   1002  ACP1002     0.3186
     22  N9        74.4960   27.8100   64.0540 N.pl3 1002  ACP1002    -0.1439
     23  C8        74.9020   27.6000   62.7910 C.3   1002  ACP1002     0.3377
     24  N7        75.7370   26.5390   62.7160 N.2   1002  ACP1002    -0.2095
     25  C5        75.8570   26.0490   63.9660 C.2   1002  ACP1002     0.2526
     26  C6        76.5480   24.9070   64.6090 C.2   1002  ACP1002     0.4393
     27  N6        77.3140   24.0770   63.8590 N.pl3 1002  ACP1002     0.2180
     28  N1        76.4160   24.7360   65.9440 N.2   1002  ACP1002     0.0021
     29  C2        75.6500   25.5570   66.6930 C.3   1002  ACP1002     0.5254
     30  N3        74.9840   26.6100   66.1570 N.2   1002  ACP1002    -0.0055
     31  C4        75.0380   26.8930   64.8350 C.2   1002  ACP1002     0.3518
@<TRIPOS>BOND
     1     4     1    2
     2     1     2    1
     3     1     3    1
     4     1     8    1
     5     8     5    1
     6     5     7    2
     7     5    12    1
     8     5     6    1
     9    11     9    2
    10    12     9    1
    11     9    10    1
    12     9    13    1
    13    13    14    1
    14    14    15    1
    15    24    23    1
    16    24    25    2
    17    23    22    1
    18    18    17    1
    19    17    15    1
    20    17    19    1
    21    15    16    1
    22    27    26    1
    23    25    26    1
    24    25    31    1
    25    19    21    1
    26    19    20    1
    27    22    21    1
    28    22    31    1
    29    16    21    1
    30    26    28    2
    31    31    30    2
    32    28    29    1
    33    30    29    1
