@<TRIPOS>MOLECULE
3ar3_ADP_A_1.pdb
 27 29 0 0 0
SMALL
GASTEIGER

@<TRIPOS>ATOM
      1  PB        36.9250   -1.3270  134.0070 P.3   1002  ADP1002     0.5373
      2  O1B       36.9530    0.1590  134.0520 O.3   1002  ADP1002    -0.1143
      3  O2B       35.3870   -1.8360  133.8730 O.3   1002  ADP1002    -0.1143
      4  O3B       37.7100   -1.8030  132.8270 O.2   1002  ADP1002    -0.2221
      5  PA        38.7370   -1.5510  136.1550 P.3   1002  ADP1002     0.2231
      6  O1A       39.3910   -0.2300  135.8010 O.2   1002  ADP1002    -0.5169
      7  O2A       39.8080   -2.6270  136.2290 O.3   1002  ADP1002    -0.4370
      8  O3A       37.5530   -1.9020  135.3220 O.3   1002  ADP1002    -0.2261
      9  O5'       38.1680   -1.3800  137.6580 O.3   1002  ADP1002    -0.3111
     10  C5'       37.5450   -2.4710  138.3340 C.3   1002  ADP1002     0.1813
     11  C4'       36.6910   -2.0180  139.5290 C.3   1002  ADP1002     0.1821
     12  O4'       37.3330   -1.0340  140.3780 O.3   1002  ADP1002    -0.3135
     13  C3'       35.3690   -1.4520  139.0950 C.3   1002  ADP1002     0.2184
     14  O3'       34.2810   -2.4110  139.1480 O.3   1002  ADP1002    -0.2174
     15  C2'       35.0980   -0.2140  139.9530 C.3   1002  ADP1002     0.2570
     16  O2'       34.0240   -0.4210  140.8830 O.3   1002  ADP1002    -0.2130
     17  C1'       36.4590    0.0800  140.4680 C.3   1002  ADP1002     0.3186
     18  N9        37.0800    1.3720  139.9480 N.pl3 1002  ADP1002    -0.1439
     19  C8        37.1380    1.6740  138.6210 C.3   1002  ADP1002     0.3377
     20  N7        37.7430    2.8710  138.4450 N.2   1002  ADP1002    -0.2095
     21  C5        38.0810    3.3510  139.6270 C.2   1002  ADP1002     0.2526
     22  C6        38.7330    4.5320  140.1370 C.2   1002  ADP1002     0.4393
     23  N6        39.1790    5.5070  139.3050 N.pl3 1002  ADP1002     0.2180
     24  N1        38.9190    4.6880  141.5140 N.2   1002  ADP1002     0.0021
     25  C2        38.4970    3.7480  142.4200 C.3   1002  ADP1002     0.5254
     26  N3        37.8780    2.6260  141.9460 N.2   1002  ADP1002    -0.0055
     27  C4        37.6530    2.3860  140.6000 C.2   1002  ADP1002     0.3518
@<TRIPOS>BOND
     1     4     1    2
     2     3     1    1
     3     1     2    1
     4     1     8    1
     5     8     5    1
     6     6     5    2
     7     5     7    1
     8     5     9    1
     9     9    10    1
    10    10    11    1
    11    20    19    1
    12    20    21    2
    13    19    18    1
    14    13    14    1
    15    13    11    1
    16    13    15    1
    17    23    22    1
    18    11    12    1
    19    21    22    1
    20    21    27    1
    21    18    17    1
    22    18    27    1
    23    15    17    1
    24    15    16    1
    25    22    24    2
    26    12    17    1
    27    27    26    2
    28    24    25    1
    29    26    25    1
