@<TRIPOS>MOLECULE
3ar3_TG1_A_1.pdb
 46 48 0 0 0
SMALL
GASTEIGER

@<TRIPOS>ATOM
      1  C34       30.9930  -25.1080   90.1700 C.3   1003  TG11003     0.0474
      2  C11       31.7200  -24.4820   88.9300 C.3   1003  TG11003     0.2470
      3  C7        30.9020  -24.5490   87.5790 C.3   1003  TG11003     0.2380
      4  C8        29.7770  -23.4500   87.3950 C.3   1003  TG11003     0.2067
      5  C9        28.8470  -23.6390   86.1790 C.3   1003  TG11003     0.0869
      6  C10       29.4510  -23.6750   84.7110 C.3   1003  TG11003     0.1465
      7  C1        30.5510  -24.8280   84.4570 C.3   1003  TG11003     0.1022
      8  C2        30.8350  -25.1140   82.9430 C.3   1003  TG11003     0.2195
      9  O1        30.4540  -26.4800   82.6270 O.3   1003  TG11003    -0.4477
     10  C13       29.7170  -26.6880   81.4630 C.2   1003  TG11003     0.3170
     11  O2        29.2260  -25.8130   80.7610 O.2   1003  TG11003    -0.2501
     12  C14       29.6450  -28.1940   81.1670 C.3   1003  TG11003     0.1096
     13  C15       30.4120  -28.6800   79.9310 C.3   1003  TG11003     0.0116
     14  C16       29.8080  -28.3750   78.5400 C.3   1003  TG11003     0.0006
     15  C17       30.6320  -27.3680   77.6920 C.3   1003  TG11003     0.0000
     16  C18       31.4100  -28.0640   76.5490 C.3   1003  TG11003     0.0000
     17  C19       31.2550  -27.5720   75.0840 C.3   1003  TG11003     0.0000
     18  C20       31.5580  -28.6880   74.0770 C.3   1003  TG11003     0.0000
     19  C3        32.3780  -24.9310   82.7120 C.3   1003  TG11003     0.2271
     20  O3        32.5060  -23.7470   81.8340 O.3   1003  TG11003    -0.4414
     21  C21       33.1180  -23.8800   80.6420 C.2   1003  TG11003     0.3372
     22  O4        33.8290  -24.8830   80.1930 O.2   1003  TG11003    -0.2453
     23  C22       32.6270  -22.8220   79.6260 C.2   1003  TG11003     0.0495
     24  C23       31.9430  -23.5120   78.4450 C.3   1003  TG11003     0.0375
     25  C24       32.6460  -21.4800   79.6440 C.2   1003  TG11003    -0.0236
     26  C25       33.1910  -20.5110   80.6960 C.3   1003  TG11003     0.0306
     27  C4        32.9280  -24.6670   84.1250 C.2   1003  TG11003    -0.0052
     28  C26       34.4070  -24.3730   84.3010 C.3   1003  TG11003     0.0296
     29  C5        31.9560  -24.6720   85.0690 C.2   1003  TG11003     0.0000
     30  C6        32.1110  -24.4530   86.5870 C.3   1003  TG11003     0.2211
     31  O5        33.0370  -25.3810   87.1920 O.3   1003  TG11003    -0.4435
     32  C12       32.9940  -25.2160   88.5350 C.2   1003  TG11003     0.3477
     33  O12       33.8580  -25.5890   89.3300 O.2   1003  TG11003    -0.2473
     34  C31       29.9930  -22.2900   84.2200 C.3   1003  TG11003     0.0443
     35  O9        28.3450  -23.9260   83.7290 O.3   1003  TG11003    -0.4552
     36  C32       27.0760  -23.4810   83.5830 C.2   1003  TG11003     0.3173
     37  O10       26.5250  -22.6450   84.2820 O.2   1003  TG11003    -0.2501
     38  C33       26.4160  -24.1580   82.4750 C.3   1003  TG11003     0.1212
     39  O7        30.3850  -22.0870   87.4310 O.3   1003  TG11003    -0.4493
     40  C27       30.0950  -21.1960   88.4870 C.2   1003  TG11003     0.3169
     41  O8        29.3460  -21.4080   89.4350 O.2   1003  TG11003    -0.2501
     42  C28       30.9390  -19.9390   88.3580 C.3   1003  TG11003     0.1096
     43  C29       31.9290  -19.8000   89.5270 C.3   1003  TG11003     0.0116
     44  C30       32.4160  -18.3660   89.5850 C.3   1003  TG11003     0.0006
     45  O6        30.3290  -25.8860   87.4640 O.3   1003  TG11003    -0.2147
     46  O11       32.2770  -23.2170   89.3240 O.3   1003  TG11003    -0.2114
@<TRIPOS>BOND
     1    18    17    1
     2    17    16    1
     3    16    15    1
     4    15    14    1
     5    24    23    1
     6    14    13    1
     7    23    25    2
     8    23    21    1
     9    25    26    1
    10    13    12    1
    11    22    21    2
    12    21    20    1
    13    11    10    2
    14    12    10    1
    15    10     9    1
    16    20    19    1
    17    38    36    1
    18     9     8    1
    19    19     8    1
    20    19    27    1
    21     8     7    1
    22    36    35    1
    23    36    37    2
    24    35     6    1
    25    27    28    1
    26    27    29    2
    27    34     6    1
    28     7     6    1
    29     7    29    1
    30     6     5    1
    31    29    30    1
    32     5     4    1
    33    30    31    1
    34    30     3    1
    35    31    32    1
    36     4    39    1
    37     4     3    1
    38    39    40    1
    39    45     3    1
    40     3     2    1
    41    42    40    1
    42    42    43    1
    43    40    41    2
    44    32     2    1
    45    32    33    2
    46     2    46    1
    47     2     1    1
    48    43    44    1
