@<TRIPOS>MOLECULE
3ar4_ATP_A_1.pdb
 31 33 0 0 0
SMALL
GASTEIGER

@<TRIPOS>ATOM
      1  PG        38.4540   -1.6800  132.1410 P.3   1002  ATP1002     0.5373
      2  O1G       39.1140   -0.4550  132.6270 O.3   1002  ATP1002    -0.1143
      3  O2G       38.2920   -1.5950  130.6750 O.2   1002  ATP1002    -0.2221
      4  O3G       39.2930   -2.8850  132.5010 O.3   1002  ATP1002    -0.1143
      5  PB        36.7110   -1.2930  134.3180 P.3   1002  ATP1002     0.2277
      6  O1B       37.0120    0.1720  134.3710 O.2   1002  ATP1002    -0.5168
      7  O2B       35.2810   -1.5110  134.6180 O.3   1002  ATP1002    -0.4368
      8  O3B       37.0000   -1.8380  132.8240 O.3   1002  ATP1002    -0.2258
      9  PA        38.7060   -1.3960  136.3600 P.3   1002  ATP1002     0.2189
     10  O1A       39.3430   -0.1830  135.8200 O.2   1002  ATP1002    -0.5170
     11  O2A       39.7840   -2.4020  136.4440 O.3   1002  ATP1002    -0.4371
     12  O3A       37.6150   -2.1220  135.4110 O.3   1002  ATP1002    -0.2700
     13  O5'       37.9110   -1.2070  137.6630 O.3   1002  ATP1002    -0.3112
     14  C5'       37.5850   -2.2280  138.6280 C.3   1002  ATP1002     0.1813
     15  C4'       36.5720   -1.7030  139.6160 C.3   1002  ATP1002     0.1821
     16  O4'       37.2470   -0.6890  140.4170 O.3   1002  ATP1002    -0.3135
     17  C3'       35.3770   -1.0220  138.9580 C.3   1002  ATP1002     0.2184
     18  O3'       34.2570   -1.8650  138.6590 O.3   1002  ATP1002    -0.2174
     19  C2'       35.0380    0.0470  139.9980 C.3   1002  ATP1002     0.2570
     20  O2'       34.2270   -0.4870  141.0410 O.3   1002  ATP1002    -0.2130
     21  C1'       36.4290    0.4420  140.5570 C.3   1002  ATP1002     0.3186
     22  N9        37.1080    1.6640  140.0300 N.pl3 1002  ATP1002    -0.1439
     23  C8        37.2820    2.0610  138.7340 C.3   1002  ATP1002     0.3377
     24  N7        37.9230    3.1910  138.5840 N.2   1002  ATP1002    -0.2095
     25  C5        38.1850    3.5820  139.8620 C.2   1002  ATP1002     0.2526
     26  C6        38.8390    4.7410  140.4030 C.2   1002  ATP1002     0.4393
     27  N6        39.3520    5.7010  139.6250 N.pl3 1002  ATP1002     0.2180
     28  N1        38.9510    4.8520  141.7610 N.2   1002  ATP1002     0.0021
     29  C2        38.4270    3.8640  142.6020 C.3   1002  ATP1002     0.5254
     30  N3        37.7920    2.7560  142.1830 N.2   1002  ATP1002    -0.0055
     31  C4        37.7050    2.6690  140.7810 C.2   1002  ATP1002     0.3518
@<TRIPOS>BOND
     1     3     1    2
     2     1     4    1
     3     1     2    1
     4     1     8    1
     5     8     5    1
     6     5     6    2
     7     5     7    1
     8     5    12    1
     9    12     9    1
    10    10     9    2
    11     9    11    1
    12     9    13    1
    13    13    14    1
    14    24    23    1
    15    24    25    2
    16    14    15    1
    17    18    17    1
    18    23    22    1
    19    17    15    1
    20    17    19    1
    21    15    16    1
    22    27    26    1
    23    25    26    1
    24    25    31    1
    25    19    21    1
    26    19    20    1
    27    22    21    1
    28    22    31    1
    29    26    28    2
    30    16    21    1
    31    31    30    2
    32    28    29    1
    33    30    29    1
