@<TRIPOS>MOLECULE
3ar4_TG1_A_1.pdb
 46 48 0 0 0
SMALL
GASTEIGER

@<TRIPOS>ATOM
      1  C34       31.2040  -25.0150   90.3500 C.3   1003  TG11003     0.0474
      2  C11       31.9120  -24.3870   89.0890 C.3   1003  TG11003     0.2470
      3  C7        31.0790  -24.4550   87.7410 C.3   1003  TG11003     0.2380
      4  C8        29.9400  -23.3680   87.5680 C.3   1003  TG11003     0.2067
      5  C9        28.9800  -23.5410   86.3660 C.3   1003  TG11003     0.0869
      6  C10       29.5520  -23.5740   84.8870 C.3   1003  TG11003     0.1465
      7  C1        30.6500  -24.7730   84.5900 C.3   1003  TG11003     0.1022
      8  C2        30.9150  -25.0520   83.0380 C.3   1003  TG11003     0.2195
      9  O1        30.6260  -26.4370   82.6800 O.3   1003  TG11003    -0.4477
     10  C13       29.7930  -26.6970   81.5820 C.2   1003  TG11003     0.3170
     11  O2        29.0760  -25.8850   81.0100 O.2   1003  TG11003    -0.2501
     12  C14       29.9290  -28.1640   81.1490 C.3   1003  TG11003     0.1096
     13  C15       30.7480  -28.3790   79.8610 C.3   1003  TG11003     0.0116
     14  C16       30.1630  -27.8350   78.5280 C.3   1003  TG11003     0.0006
     15  C17       31.2350  -27.5930   77.4430 C.3   1003  TG11003     0.0000
     16  C18       30.7750  -28.0920   76.0590 C.3   1003  TG11003     0.0000
     17  C19       31.8530  -28.1080   74.9600 C.3   1003  TG11003     0.0000
     18  C20       31.9770  -29.4340   74.2040 C.3   1003  TG11003     0.0000
     19  C3        32.4480  -24.8250   82.8010 C.3   1003  TG11003     0.2271
     20  O3        32.5120  -23.6210   81.9640 O.3   1003  TG11003    -0.4414
     21  C21       33.0770  -23.7270   80.7490 C.2   1003  TG11003     0.3372
     22  O4        33.7680  -24.7050   80.2650 O.2   1003  TG11003    -0.2453
     23  C22       32.5560  -22.6550   79.7790 C.2   1003  TG11003     0.0495
     24  C23       31.8420  -23.3080   78.6020 C.3   1003  TG11003     0.0375
     25  C24       32.5980  -21.3190   79.8460 C.2   1003  TG11003    -0.0236
     26  C25       33.1730  -20.4120   80.9330 C.3   1003  TG11003     0.0306
     27  C4        33.0250  -24.5750   84.2130 C.2   1003  TG11003    -0.0052
     28  C26       34.5060  -24.2900   84.3580 C.3   1003  TG11003     0.0296
     29  C5        32.0780  -24.5960   85.1830 C.2   1003  TG11003     0.0000
     30  C6        32.2690  -24.3620   86.7190 C.3   1003  TG11003     0.2211
     31  O5        33.2200  -25.2690   87.3220 O.3   1003  TG11003    -0.4435
     32  C12       33.1920  -25.1140   88.6680 C.2   1003  TG11003     0.3477
     33  O12       34.0650  -25.5020   89.4490 O.2   1003  TG11003    -0.2473
     34  C31       30.1060  -22.1920   84.3970 C.3   1003  TG11003     0.0443
     35  O9        28.4190  -23.7880   83.9300 O.3   1003  TG11003    -0.4552
     36  C32       27.1720  -23.2810   83.7990 C.2   1003  TG11003     0.3173
     37  O10       26.6810  -22.4110   84.4990 O.2   1003  TG11003    -0.2501
     38  C33       26.4650  -23.9300   82.6840 C.3   1003  TG11003     0.1212
     39  O7        30.5340  -22.0250   87.6190 O.3   1003  TG11003    -0.4493
     40  C27       30.1750  -21.1480   88.6560 C.2   1003  TG11003     0.3169
     41  O8        29.3580  -21.3650   89.5450 O.2   1003  TG11003    -0.2501
     42  C28       31.0270  -19.9070   88.5790 C.3   1003  TG11003     0.1096
     43  C29       31.9590  -19.7600   89.7890 C.3   1003  TG11003     0.0116
     44  C30       32.5180  -18.3430   89.8160 C.3   1003  TG11003     0.0006
     45  O6        30.5100  -25.7990   87.6630 O.3   1003  TG11003    -0.2147
     46  O11       32.4370  -23.1230   89.4820 O.3   1003  TG11003    -0.2114
@<TRIPOS>BOND
     1    18    17    1
     2    17    16    1
     3    16    15    1
     4    15    14    1
     5    14    13    1
     6    24    23    1
     7    23    25    2
     8    23    21    1
     9    25    26    1
    10    13    12    1
    11    22    21    2
    12    21    20    1
    13    11    10    2
    14    12    10    1
    15    10     9    1
    16    20    19    1
    17     9     8    1
    18    38    36    1
    19    19     8    1
    20    19    27    1
    21     8     7    1
    22    36    35    1
    23    36    37    2
    24    35     6    1
    25    27    28    1
    26    27    29    2
    27    34     6    1
    28     7     6    1
    29     7    29    1
    30     6     5    1
    31    29    30    1
    32     5     4    1
    33    30    31    1
    34    30     3    1
    35    31    32    1
    36     4    39    1
    37     4     3    1
    38    39    40    1
    39    45     3    1
    40     3     2    1
    41    42    40    1
    42    42    43    1
    43    40    41    2
    44    32     2    1
    45    32    33    2
    46     2    46    1
    47     2     1    1
    48    43    44    1
