@<TRIPOS>MOLECULE
3ar5_TM1_A_1.pdb
 38 42 0 0 0
SMALL
GASTEIGER

@<TRIPOS>ATOM
      1  N1        39.2350   -6.3220  136.4050 N.2   1002  TM11002     0.0021
      2  C2        38.6740   -5.4140  137.2530 C.3   1002  TM11002     0.5254
      3  N3        38.1520   -4.2450  136.8080 N.2   1002  TM11002    -0.0055
      4  C4        38.1610   -3.9440  135.4620 C.2   1002  TM11002     0.3518
      5  C5        38.7320   -4.8460  134.5630 C.2   1002  TM11002     0.2526
      6  C6        39.2920   -6.0960  135.0700 C.2   1002  TM11002     0.4393
      7  N6        39.7460   -7.0270  134.2000 N.pl3 1002  TM11002     0.2180
      8  N7        38.6440   -4.3580  133.3170 N.2   1002  TM11002    -0.2095
      9  C8        38.0250   -3.1570  133.4250 C.3   1002  TM11002     0.3377
     10  N9        37.7330   -2.9090  134.7210 N.pl3 1002  TM11002    -0.1440
     11  PA        35.5250   -0.8280  129.7580 P.3   1002  TM11002     0.5327
     12  C1'       37.0460   -1.6700  135.2190 C.3   1002  TM11002     0.3152
     13  O1A       34.9960    0.3720  128.9710 O.2   1002  TM11002    -0.2224
     14  C1F       37.5610    1.5020  136.6620 C.3   1002  TM11002     0.2438
     15  C2'       38.0060   -0.4870  135.4300 C.3   1002  TM11002     0.2198
     16  O2'       37.9010    0.0710  136.7600 O.3   1002  TM11002    -0.3236
     17  O2A       34.6250   -2.0240  129.5770 O.3   1002  TM11002    -0.1145
     18  C2F       38.7720    2.3400  137.1120 C.3   1002  TM11002     0.2424
     19  N2F       39.9830    2.3240  136.4470 N.pl3 1002  TM11002     0.0417
     20  O2F       40.2290    1.5410  135.5380 O.2   1002  TM11002    -0.1305
     21  C3'       37.3590    0.5270  134.5820 C.3   1002  TM11002     0.1811
     22  O3'       37.2500    1.7900  135.2740 O.3   1002  TM11002    -0.3278
     23  O3A       36.9780   -1.1740  129.4730 O.3   1002  TM11002    -0.1145
     24  C3F       38.7250    3.1670  138.1970 C.2   1002  TM11002     0.0276
     25  O3F       40.8930    3.1100  136.7540 O.2   1002  TM11002    -0.1305
     26  C4'       36.5780   -0.0190  133.6160 C.3   1002  TM11002     0.1790
     27  O4'       36.0880   -1.2430  134.2240 O.3   1002  TM11002    -0.3137
     28  C4F       37.5870    3.2150  139.1090 C.2   1002  TM11002     0.1207
     29  N4F       37.6050    4.0430  140.1470 N.pl3 1002  TM11002     0.0534
     30  O4F       37.5530    3.6160  141.2840 O.2   1002  TM11002    -0.1264
     31  C5'       36.5650    0.2480  132.0910 C.3   1002  TM11002     0.1858
     32  O5'       35.4440   -0.3080  131.3300 O.3   1002  TM11002    -0.2675
     33  C5F       36.5290    2.4000  138.9040 C.3   1002  TM11002     0.0853
     34  O5F       37.6940    5.2430  139.9770 O.2   1002  TM11002    -0.1264
     35  C6F       36.2910    1.8670  137.4870 C.3   1002  TM11002     0.2255
     36  N6F       35.1030    1.0220  137.4340 N.pl3 1002  TM11002     0.0378
     37  O6F       34.2070    1.1730  138.2590 O.2   1002  TM11002    -0.1309
     38  O7F       34.9290    0.1790  136.5830 O.2   1002  TM11002    -0.1309
@<TRIPOS>BOND
     1    13    11    2
     2    23    11    1
     3    17    11    1
     4    11    32    1
     5    32    31    1
     6    31    26    1
     7     8     9    1
     8     8     5    2
     9     9    10    1
    10    26    27    1
    11    26    21    1
    12     7     6    1
    13    27    12    1
    14     5     6    1
    15     5     4    1
    16    21    22    1
    17    21    15    1
    18    10    12    1
    19    10     4    1
    20     6     1    2
    21    12    15    1
    22    22    14    1
    23    15    16    1
    24     4     3    2
    25    20    19    2
    26     1     2    1
    27    19    25    2
    28    19    18    1
    29    38    36    2
    30    14    16    1
    31    14    18    1
    32    14    35    1
    33     3     2    1
    34    18    24    1
    35    36    35    1
    36    36    37    2
    37    35    33    1
    38    24    28    2
    39    33    28    1
    40    28    29    1
    41    34    29    2
    42    29    30    2
