@<TRIPOS>MOLECULE
3ar5_TG1_A_1.pdb
 46 48 0 0 0
SMALL
GASTEIGER

@<TRIPOS>ATOM
      1  C34       31.0120  -24.3740   90.1430 C.3   1003  TG11003     0.0474
      2  C11       31.7210  -23.8480   88.8840 C.3   1003  TG11003     0.2470
      3  C7        30.9000  -23.9580   87.5870 C.3   1003  TG11003     0.2380
      4  C8        29.7770  -22.9220   87.3840 C.3   1003  TG11003     0.2067
      5  C9        28.8520  -23.1700   86.1670 C.3   1003  TG11003     0.0869
      6  C10       29.4230  -23.1220   84.7310 C.3   1003  TG11003     0.1465
      7  C1        30.3310  -24.3440   84.4810 C.3   1003  TG11003     0.1009
      8  C2        30.6580  -24.6860   83.0260 C.3   1003  TG11003     0.2067
      9  O1        30.3410  -26.0590   82.8140 O.3   1003  TG11003    -0.4489
     10  C13       29.6800  -26.3600   81.5560 C.2   1003  TG11003     0.3170
     11  O2        29.2300  -25.4610   80.8570 O.2   1003  TG11003    -0.2501
     12  C14       29.5570  -27.8060   81.1360 C.3   1003  TG11003     0.1096
     13  C15       30.5900  -28.1700   80.0740 C.3   1003  TG11003     0.0116
     14  C16       30.0130  -28.0630   78.6600 C.3   1003  TG11003     0.0006
     15  C17       30.9840  -28.6720   77.6370 C.3   1003  TG11003     0.0000
     16  C18       31.2320  -27.7560   76.4390 C.3   1003  TG11003     0.0000
     17  C19       31.5060  -28.5660   75.1730 C.3   1003  TG11003     0.0000
     18  C20       31.3150  -27.7240   73.9220 C.3   1003  TG11003     0.0000
     19  C3        32.1720  -24.5660   82.8120 C.3   1003  TG11003     0.1762
     20  O3        32.5480  -23.5310   81.8930 O.3   1003  TG11003    -0.3200
     21  C21       32.9670  -23.9650   80.5810 C.3   1003  TG11003     0.2886
     22  O4        32.3150  -25.1970   80.2080 O.3   1003  TG11003    -0.1850
     23  C22       32.7220  -22.9560   79.4610 C.2   1003  TG11003     0.0102
     24  C23       32.3520  -23.4850   78.1080 C.3   1003  TG11003     0.0312
     25  C24       32.8190  -21.6140   79.5410 C.2   1003  TG11003    -0.0294
     26  C25       33.1600  -20.8130   80.7740 C.3   1003  TG11003     0.0302
     27  C4        32.6930  -24.2470   84.1650 C.2   1003  TG11003    -0.0179
     28  C26       34.1730  -24.0120   84.3740 C.3   1003  TG11003     0.0284
     29  C5        31.7180  -24.1850   85.0810 C.2   1003  TG11003    -0.0011
     30  C6        32.0320  -23.9400   86.5440 C.3   1003  TG11003     0.2210
     31  O5        33.0020  -24.8630   87.0610 O.3   1003  TG11003    -0.4435
     32  C12       32.9170  -24.6530   88.4930 C.2   1003  TG11003     0.3477
     33  O12       33.7590  -25.0660   89.2590 O.2   1003  TG11003    -0.2473
     34  C31       30.1650  -21.8220   84.4610 C.3   1003  TG11003     0.0443
     35  O9        28.3120  -22.9700   83.8200 O.3   1003  TG11003    -0.4552
     36  C32       27.2030  -23.8750   83.5500 C.2   1003  TG11003     0.3173
     37  O10       26.8860  -24.7010   84.3780 O.2   1003  TG11003    -0.2501
     38  C33       26.5120  -23.8320   82.4220 C.3   1003  TG11003     0.1212
     39  O7        30.3070  -21.5940   87.3570 O.3   1003  TG11003    -0.4493
     40  C27       30.1450  -20.8630   88.6020 C.2   1003  TG11003     0.3169
     41  O8        29.5620  -21.3660   89.5590 O.2   1003  TG11003    -0.2501
     42  C28       30.7310  -19.4810   88.6780 C.3   1003  TG11003     0.1096
     43  C29       31.8840  -19.5240   89.6550 C.3   1003  TG11003     0.0116
     44  C30       32.8090  -18.3730   89.3800 C.3   1003  TG11003     0.0006
     45  O6        30.3110  -25.2550   87.6020 O.3   1003  TG11003    -0.2147
     46  O11       32.2970  -22.5470   89.0960 O.3   1003  TG11003    -0.2114
@<TRIPOS>BOND
     1    18    17    1
     2    17    16    1
     3    16    15    1
     4    15    14    1
     5    24    23    1
     6    14    13    1
     7    23    25    2
     8    23    21    1
     9    25    26    1
    10    13    12    1
    11    22    21    1
    12    21    20    1
    13    11    10    2
    14    12    10    1
    15    10     9    1
    16    20    19    1
    17    38    36    1
    18    19     8    1
    19    19    27    1
    20     9     8    1
    21     8     7    1
    22    36    35    1
    23    36    37    2
    24    35     6    1
    25    27    28    1
    26    27    29    2
    27    34     6    1
    28     7     6    1
    29     7    29    1
    30     6     5    1
    31    29    30    1
    32     5     4    1
    33    30    31    1
    34    30     3    1
    35    31    32    1
    36    39     4    1
    37    39    40    1
    38     4     3    1
    39     3    45    1
    40     3     2    1
    41    32     2    1
    42    32    33    2
    43    40    42    1
    44    40    41    2
    45    42    43    1
    46     2    46    1
    47     2     1    1
    48    44    43    1
