@<TRIPOS>MOLECULE
3ar6_TG1_A_1.pdb
 46 48 0 0 0
SMALL
GASTEIGER

@<TRIPOS>ATOM
      1  C34       31.0340  -24.3210   89.9540 C.3   1003  TG11003     0.0474
      2  C11       31.7680  -23.8850   88.6520 C.3   1003  TG11003     0.2470
      3  C7        30.9070  -24.0360   87.3400 C.3   1003  TG11003     0.2380
      4  C8        29.6890  -23.0080   87.1760 C.3   1003  TG11003     0.2067
      5  C9        28.7210  -23.2440   85.9910 C.3   1003  TG11003     0.0869
      6  C10       29.2820  -23.2730   84.4990 C.3   1003  TG11003     0.1465
      7  C1        30.4330  -24.3820   84.2160 C.3   1003  TG11003     0.1022
      8  C2        30.6900  -24.6720   82.6910 C.3   1003  TG11003     0.2195
      9  O1        30.1020  -25.9540   82.3180 O.3   1003  TG11003    -0.4477
     10  C13       29.2760  -26.0060   81.1980 C.2   1003  TG11003     0.3170
     11  O2        28.8980  -25.0440   80.5400 O.2   1003  TG11003    -0.2501
     12  C14       28.8910  -27.4640   80.8920 C.3   1003  TG11003     0.1096
     13  C15       29.5030  -28.1280   79.6570 C.3   1003  TG11003     0.0116
     14  C16       29.1440  -27.5290   78.2670 C.3   1003  TG11003     0.0006
     15  C17       30.1350  -27.9630   77.1620 C.3   1003  TG11003     0.0000
     16  C18       30.3440  -26.8730   76.0940 C.3   1003  TG11003     0.0000
     17  C19       31.0280  -27.4010   74.8200 C.3   1003  TG11003     0.0000
     18  C20       31.2490  -26.3400   73.7460 C.3   1003  TG11003     0.0000
     19  C3        32.2610  -24.6020   82.4720 C.3   1003  TG11003     0.2271
     20  O3        32.5240  -23.5600   81.5560 O.3   1003  TG11003    -0.4414
     21  C21       32.5790  -23.8770   80.2680 C.2   1003  TG11003     0.3372
     22  O4        32.4190  -25.1090   79.7750 O.2   1003  TG11003    -0.2453
     23  C22       32.5800  -22.5820   79.3120 C.2   1003  TG11003     0.0495
     24  C23       32.3640  -22.9650   77.8860 C.3   1003  TG11003     0.0375
     25  C24       32.7000  -21.2620   79.5340 C.2   1003  TG11003    -0.0236
     26  C25       32.8550  -20.4790   80.8410 C.3   1003  TG11003     0.0306
     27  C4        32.8320  -24.2660   83.8620 C.2   1003  TG11003    -0.0052
     28  C26       34.3270  -24.0090   84.0230 C.3   1003  TG11003     0.0296
     29  C5        31.8660  -24.2060   84.8110 C.2   1003  TG11003     0.0000
     30  C6        32.0700  -23.9080   86.3040 C.3   1003  TG11003     0.2211
     31  O5        33.0920  -24.7340   86.9170 O.3   1003  TG11003    -0.4435
     32  C12       33.0080  -24.6560   88.2650 C.2   1003  TG11003     0.3477
     33  O12       33.8130  -25.1510   89.0530 O.2   1003  TG11003    -0.2473
     34  C31       29.7790  -21.8750   83.9580 C.3   1003  TG11003     0.0443
     35  O9        28.1330  -23.5880   83.5610 O.3   1003  TG11003    -0.4552
     36  C32       26.8970  -23.0610   83.3940 C.2   1003  TG11003     0.3173
     37  O10       26.4370  -22.1110   84.0140 O.2   1003  TG11003    -0.2501
     38  C33       26.1540  -23.8340   82.3510 C.3   1003  TG11003     0.1212
     39  O7        30.2020  -21.6120   87.2330 O.3   1003  TG11003    -0.4493
     40  C27       29.9050  -20.8630   88.3550 C.2   1003  TG11003     0.3169
     41  O8        29.2170  -21.2420   89.2970 O.2   1003  TG11003    -0.2501
     42  C28       30.6740  -19.5700   88.3130 C.3   1003  TG11003     0.1096
     43  C29       31.5000  -19.3780   89.5980 C.3   1003  TG11003     0.0116
     44  C30       32.6550  -18.4280   89.3130 C.3   1003  TG11003     0.0006
     45  O6        30.4180  -25.3990   87.2790 O.3   1003  TG11003    -0.2147
     46  O11       32.4190  -22.6430   88.9000 O.3   1003  TG11003    -0.2114
@<TRIPOS>BOND
     1    18    17    1
     2    17    16    1
     3    16    15    1
     4    15    14    1
     5    24    23    1
     6    14    13    1
     7    23    25    2
     8    23    21    1
     9    25    26    1
    10    13    12    1
    11    22    21    2
    12    21    20    1
    13    11    10    2
    14    12    10    1
    15    10     9    1
    16    20    19    1
    17     9     8    1
    18    38    36    1
    19    19     8    1
    20    19    27    1
    21     8     7    1
    22    36    35    1
    23    36    37    2
    24    35     6    1
    25    27    28    1
    26    27    29    2
    27    34     6    1
    28     7     6    1
    29     7    29    1
    30     6     5    1
    31    29    30    1
    32     5     4    1
    33    30    31    1
    34    30     3    1
    35    31    32    1
    36     4    39    1
    37     4     3    1
    38    39    40    1
    39    45     3    1
    40     3     2    1
    41    32     2    1
    42    32    33    2
    43    42    40    1
    44    42    43    1
    45    40    41    2
    46     2    46    1
    47     2     1    1
    48    44    43    1
