@<TRIPOS>MOLECULE
3ar6_12D_A_1.pdb
 42 46 0 0 0
SMALL
GASTEIGER

@<TRIPOS>ATOM
      1  P1        35.7600   -1.0490  129.0770 P.3   1002  12D1002     0.5373
      2  O1        36.7500   -0.7390  128.0520 O.2   1002  12D1002    -0.2221
      3  O2        34.8900    0.2490  129.3900 O.3   1002  12D1002    -0.1143
      4  O3        34.8800   -2.1230  128.6050 O.3   1002  12D1002    -0.1143
      5  P2        37.5090   -0.8820  131.3430 P.3   1002  12D1002     0.2231
      6  O4        37.8520    0.4940  130.9260 O.2   1002  12D1002    -0.5169
      7  O5        38.7420   -1.7100  131.3640 O.3   1002  12D1002    -0.4370
      8  O6        36.4740   -1.5030  130.3480 O.3   1002  12D1002    -0.2261
      9  O7        36.8920   -0.8500  132.7510 O.3   1002  12D1002    -0.3111
     10  C1        35.6560   -0.3210  133.2490 C.3   1002  12D1002     0.1812
     11  C2        35.8770   -0.2460  134.7470 C.3   1002  12D1002     0.1789
     12  O8        35.8950   -1.5640  135.3300 O.3   1002  12D1002    -0.3137
     13  C3        37.1190    0.3440  135.2520 C.3   1002  12D1002     0.1814
     14  O9        36.7130    1.3700  136.1890 O.3   1002  12D1002    -0.3250
     15  C4        37.8380   -0.6850  136.1260 C.3   1002  12D1002     0.2201
     16  O10       38.2940   -0.1730  137.4050 O.3   1002  12D1002    -0.3208
     17  C5        36.9620   -1.9750  136.1640 C.3   1002  12D1002     0.3152
     18  N1        37.7170   -3.2270  135.5700 N.pl3 1002  12D1002    -0.1440
     19  C6        37.8960   -3.5600  134.2500 C.3   1002  12D1002     0.3377
     20  N2        38.5880   -4.7000  134.1370 N.2   1002  12D1002    -0.2095
     21  C7        38.8440   -5.0780  135.3880 C.2   1002  12D1002     0.2526
     22  C8        39.5630   -6.2410  135.8960 C.2   1002  12D1002     0.4393
     23  N3        40.0830   -7.1300  135.0430 N.pl3 1002  12D1002     0.2180
     24  N4        39.7060   -6.4230  137.3050 N.2   1002  12D1002     0.0021
     25  C9        39.1450   -5.4750  138.1660 C.3   1002  12D1002     0.5254
     26  N5        38.4710   -4.3900  137.6710 N.2   1002  12D1002    -0.0055
     27  C10       38.2990   -4.1540  136.3010 C.2   1002  12D1002     0.3518
     28  C11       37.5720    1.1310  137.4030 C.3   1002  12D1002     0.2592
     29  C12       36.4780    1.2540  138.4550 C.2   1002  12D1002     0.1752
     30  C13       36.6370    2.2990  139.5130 C.2   1002  12D1002     0.0484
     31  C14       37.7430    3.1810  139.5960 C.2   1002  12D1002     0.1423
     32  C15       38.7260    3.0440  138.6320 C.2   1002  12D1002     0.0324
     33  C16       38.7340    2.1300  137.5860 C.3   1002  12D1002     0.2466
     34  N6        35.3080    0.4770  138.5510 N.pl3 1002  12D1002     0.0584
     35  N7        37.7550    4.0550  140.5810 N.pl3 1002  12D1002     0.0575
     36  N8        39.8990    2.1920  136.7080 N.pl3 1002  12D1002     0.0420
     37  O11       34.9570   -0.3930  137.8510 O.2   1002  12D1002    -0.1263
     38  O12       34.4630    0.6100  139.4160 O.2   1002  12D1002    -0.1263
     39  O13       37.7390    5.2240  140.3540 O.2   1002  12D1002    -0.1261
     40  O14       37.7880    3.7410  141.7430 O.2   1002  12D1002    -0.1261
     41  O15       40.1500    1.5190  135.7400 O.2   1002  12D1002    -0.1305
     42  O16       40.8260    2.9820  136.8480 O.2   1002  12D1002    -0.1305
@<TRIPOS>BOND
     1     2     1    2
     2     4     1    1
     3     1     3    1
     4     1     8    1
     5     8     5    1
     6     6     5    2
     7     5     7    1
     8     5     9    1
     9     9    10    1
    10    10    11    1
    11    20    19    1
    12    20    21    2
    13    19    18    1
    14    11    13    1
    15    11    12    1
    16    23    22    1
    17    13    15    1
    18    13    14    1
    19    12    17    1
    20    21    22    1
    21    21    27    1
    22    18    17    1
    23    18    27    1
    24    41    36    2
    25    22    24    2
    26    15    17    1
    27    15    16    1
    28    14    28    1
    29    27    26    2
    30    36    42    2
    31    36    33    1
    32    24    25    1
    33    28    16    1
    34    28    33    1
    35    28    29    1
    36    33    32    1
    37    26    25    1
    38    37    34    2
    39    29    34    1
    40    29    30    2
    41    34    38    2
    42    32    31    2
    43    30    31    1
    44    31    35    1
    45    39    35    2
    46    35    40    2
