@<TRIPOS>MOLECULE
3ar7_128_A_1.pdb
 46 50 0 0 0
SMALL
GASTEIGER

@<TRIPOS>ATOM
      1  PG        37.4450   -0.5830  125.9580 P.3   1002  1281002     0.5373
      2  O1G       38.8190   -0.5330  125.4080 O.3   1002  1281002    -0.1143
      3  O2G       36.7590    0.7070  125.6750 O.3   1002  1281002    -0.1143
      4  O3G       36.6870   -1.7170  125.2940 O.2   1002  1281002    -0.2221
      5  PB        36.1900   -1.1980  128.4360 P.3   1002  1281002     0.2277
      6  O1B       34.9550   -0.7030  127.7840 O.2   1002  1281002    -0.5168
      7  O2B       36.0560   -2.6450  128.6760 O.3   1002  1281002    -0.4368
      8  O3B       37.5150   -0.8340  127.5760 O.3   1002  1281002    -0.2258
      9  PA        37.4940   -0.7590  130.8480 P.3   1002  1281002     0.2189
     10  O1A       38.4460   -1.7430  130.3030 O.2   1002  1281002    -0.5170
     11  O2A       38.2080    0.5070  131.1110 O.3   1002  1281002    -0.4371
     12  O3A       36.2890   -0.4760  129.8320 O.3   1002  1281002    -0.2700
     13  O5'       36.8690   -1.3120  132.1490 O.3   1002  1281002    -0.3112
     14  C5'       35.8120   -0.7440  132.9110 C.3   1002  1281002     0.1812
     15  C4'       36.0180   -0.5640  134.3870 C.3   1002  1281002     0.1789
     16  O4'       36.0940   -1.8400  135.0350 O.3   1002  1281002    -0.3137
     17  C3'       37.2380    0.0770  134.8200 C.3   1002  1281002     0.1814
     18  O3'       36.8250    1.1110  135.7270 O.3   1002  1281002    -0.3250
     19  C2'       38.0380   -0.9050  135.6840 C.3   1002  1281002     0.2201
     20  O2'       38.5390   -0.3250  136.9110 O.3   1002  1281002    -0.3208
     21  C1'       37.1700   -2.1890  135.8680 C.3   1002  1281002     0.3152
     22  N9        37.9110   -3.4590  135.2400 N.pl3 1002  1281002    -0.1440
     23  C8        38.1330   -3.6990  133.9080 C.3   1002  1281002     0.3377
     24  N7        38.7860   -4.8540  133.7370 N.2   1002  1281002    -0.2095
     25  C5        38.9760   -5.3430  134.9580 C.2   1002  1281002     0.2526
     26  C6        39.6340   -6.5660  135.3700 C.2   1002  1281002     0.4393
     27  N6        40.1530   -7.3810  134.4430 N.pl3 1002  1281002     0.2180
     28  N1        39.7190   -6.8870  136.7410 N.2   1002  1281002     0.0021
     29  C2        39.1640   -6.0040  137.6440 C.3   1002  1281002     0.5254
     30  N3        38.5510   -4.8560  137.2440 N.2   1002  1281002    -0.0055
     31  C4        38.4340   -4.4830  135.9160 C.2   1002  1281002     0.3518
     32  C1F       37.7520    0.9580  136.8910 C.3   1002  1281002     0.2592
     33  C2F       38.8530    1.9920  136.9950 C.3   1002  1281002     0.2466
     34  C3F       38.8470    2.9370  138.0000 C.2   1002  1281002     0.0324
     35  C4F       37.9010    3.0590  138.9940 C.2   1002  1281002     0.1423
     36  C5F       36.8590    2.1390  138.9730 C.2   1002  1281002     0.0484
     37  C6F       36.7140    1.0700  137.9720 C.2   1002  1281002     0.1752
     38  N2F       39.9700    2.0620  136.0600 N.pl3 1002  1281002     0.0420
     39  N4F       37.8790    3.9570  139.9570 N.pl3 1002  1281002     0.0575
     40  N6F       35.5810    0.2540  138.1530 N.pl3 1002  1281002     0.0584
     41  O2F       40.1810    1.3450  135.1120 O.2   1002  1281002    -0.1305
     42  O3F       40.8550    2.9040  136.1550 O.2   1002  1281002    -0.1305
     43  O4F       38.3260    3.7680  141.0650 O.2   1002  1281002    -0.1261
     44  O5F       37.3880    5.0250  139.7570 O.2   1002  1281002    -0.1261
     45  O6F       34.8140    0.4440  139.0760 O.2   1002  1281002    -0.1263
     46  O7F       35.2240   -0.6640  137.5100 O.2   1002  1281002    -0.1263
@<TRIPOS>BOND
     1     4     1    2
     2     2     1    1
     3     3     1    1
     4     1     8    1
     5     8     5    1
     6     6     5    2
     7     5     7    1
     8     5    12    1
     9    12     9    1
    10    10     9    2
    11     9    11    1
    12     9    13    1
    13    13    14    1
    14    14    15    1
    15    24    23    1
    16    24    25    2
    17    23    22    1
    18    15    17    1
    19    15    16    1
    20    27    26    1
    21    17    19    1
    22    17    18    1
    23    25    26    1
    24    25    31    1
    25    16    21    1
    26    41    38    2
    27    22    21    1
    28    22    31    1
    29    26    28    2
    30    19    21    1
    31    19    20    1
    32    18    32    1
    33    31    30    2
    34    38    42    2
    35    38    33    1
    36    28    29    1
    37    32    20    1
    38    32    33    1
    39    32    37    1
    40    33    34    1
    41    30    29    1
    42    46    40    2
    43    37    40    1
    44    37    36    2
    45    34    35    2
    46    40    45    2
    47    36    35    1
    48    35    39    1
    49    44    39    2
    50    39    43    2
