@<TRIPOS>MOLECULE
3ar7_TG1_A_1.pdb
 46 48 0 0 0
SMALL
GASTEIGER

@<TRIPOS>ATOM
      1  C34       30.9900  -25.2290   89.6710 C.3   1003  TG11003     0.0411
      2  C11       31.7350  -24.6240   88.4800 C.3   1003  TG11003     0.2121
      3  C7        30.9630  -24.6650   87.1630 C.3   1003  TG11003     0.2214
      4  C8        29.8610  -23.6000   86.9880 C.3   1003  TG11003     0.2051
      5  C9        28.8810  -23.8890   85.8330 C.3   1003  TG11003     0.0869
      6  C10       29.3990  -24.0210   84.3860 C.3   1003  TG11003     0.1464
      7  C1        30.4320  -25.1400   84.2130 C.3   1003  TG11003     0.0998
      8  C2        30.6590  -25.4500   82.7340 C.3   1003  TG11003     0.2066
      9  O1        30.2010  -26.7570   82.3790 O.3   1003  TG11003    -0.4489
     10  C13       29.4850  -26.8000   81.1040 C.2   1003  TG11003     0.3170
     11  O2        29.4540  -25.8160   80.3800 O.2   1003  TG11003    -0.2501
     12  C14       28.7800  -28.0660   80.6790 C.3   1003  TG11003     0.1096
     13  C15       29.7630  -28.9880   79.9680 C.3   1003  TG11003     0.0116
     14  C16       29.5780  -28.9290   78.4550 C.3   1003  TG11003     0.0006
     15  C17       30.8340  -28.3990   77.7690 C.3   1003  TG11003     0.0000
     16  C18       30.5070  -27.8270   76.3930 C.3   1003  TG11003     0.0000
     17  C19       31.4640  -28.3550   75.3300 C.3   1003  TG11003     0.0000
     18  C20       31.0620  -27.8900   73.9470 C.3   1003  TG11003     0.0000
     19  C3        32.1470  -25.2930   82.4530 C.3   1003  TG11003     0.1762
     20  O3        32.3080  -24.2640   81.4800 O.3   1003  TG11003    -0.3200
     21  C21       32.9480  -24.7300   80.2920 C.3   1003  TG11003     0.2886
     22  O4        32.2230  -25.8480   79.7520 O.3   1003  TG11003    -0.1850
     23  C22       33.0790  -23.6720   79.2180 C.2   1003  TG11003     0.0102
     24  C23       33.5720  -24.1420   77.8840 C.3   1003  TG11003     0.0312
     25  C24       32.8080  -22.3520   79.3430 C.2   1003  TG11003    -0.0294
     26  C25       32.3100  -21.6380   80.5810 C.3   1003  TG11003     0.0302
     27  C4        32.7210  -24.8580   83.7610 C.2   1003  TG11003    -0.0190
     28  C26       34.1750  -24.4910   83.8930 C.3   1003  TG11003     0.0283
     29  C5        31.8100  -24.8250   84.7330 C.2   1003  TG11003    -0.0138
     30  C6        32.1210  -24.5030   86.1770 C.3   1003  TG11003     0.1697
     31  O5        33.1600  -25.3170   86.7320 O.3   1003  TG11003    -0.3222
     32  C12       32.9770  -25.4380   88.1490 C.3   1003  TG11003     0.2999
     33  O12       34.1190  -24.9340   88.8410 O.3   1003  TG11003    -0.1870
     34  C31       29.8770  -22.6800   83.8320 C.3   1003  TG11003     0.0443
     35  O9        28.2920  -24.5030   83.6170 O.3   1003  TG11003    -0.4552
     36  C32       27.1500  -23.7400   83.1320 C.2   1003  TG11003     0.3173
     37  O10       26.9460  -22.6090   83.5490 O.2   1003  TG11003    -0.2501
     38  C33       26.2550  -24.4000   82.1240 C.3   1003  TG11003     0.1212
     39  O7        30.3910  -22.2690   86.8990 O.3   1003  TG11003    -0.4494
     40  C27       30.0290  -21.4340   88.0380 C.2   1003  TG11003     0.3169
     41  O8        29.3590  -21.8880   88.9530 O.2   1003  TG11003    -0.2501
     42  C28       30.5060  -20.0050   88.0900 C.3   1003  TG11003     0.1096
     43  C29       31.8630  -19.9660   88.7790 C.3   1003  TG11003     0.0116
     44  C30       32.2080  -18.5600   89.2110 C.3   1003  TG11003     0.0006
     45  O6        30.3860  -25.9730   87.0280 O.3   1003  TG11003    -0.2163
     46  O11       32.1360  -23.2850   88.8130 O.3   1003  TG11003    -0.2176
@<TRIPOS>BOND
     1    18    17    1
     2    17    16    1
     3    16    15    1
     4    15    14    1
     5    24    23    1
     6    14    13    1
     7    23    25    2
     8    23    21    1
     9    25    26    1
    10    22    21    1
    11    13    12    1
    12    21    20    1
    13    11    10    2
    14    12    10    1
    15    10     9    1
    16    20    19    1
    17    38    36    1
    18     9     8    1
    19    19     8    1
    20    19    27    1
    21     8     7    1
    22    36    37    2
    23    36    35    1
    24    35     6    1
    25    27    28    1
    26    27    29    2
    27    34     6    1
    28     7     6    1
    29     7    29    1
    30     6     5    1
    31    29    30    1
    32     5     4    1
    33    30    31    1
    34    30     3    1
    35    31    32    1
    36    39     4    1
    37    39    40    1
    38     4     3    1
    39    45     3    1
    40     3     2    1
    41    40    42    1
    42    40    41    2
    43    42    43    1
    44    32     2    1
    45    32    33    1
    46     2    46    1
    47     2     1    1
    48    43    44    1
