@<TRIPOS>MOLECULE
3ar8_TM1_A_1.pdb
 38 42 0 0 0
SMALL
GASTEIGER

@<TRIPOS>ATOM
      1  N1        22.7820   61.8700  136.7030 N.2   1002  TM11002     0.0021
      2  C2        22.3240   63.1830  136.7420 C.3   1002  TM11002     0.5254
      3  N3        23.1720   64.2410  136.4880 N.2   1002  TM11002    -0.0055
      4  C4        24.5370   64.0800  136.1780 C.2   1002  TM11002     0.3518
      5  C5        25.0430   62.7690  136.1260 C.2   1002  TM11002     0.2526
      6  C6        24.1620   61.6360  136.3930 C.2   1002  TM11002     0.4393
      7  N6        24.6610   60.3990  136.3400 N.pl3 1002  TM11002     0.2180
      8  N7        26.3280   62.7790  135.8260 N.2   1002  TM11002    -0.2095
      9  C8        26.6570   64.0650  135.6830 C.3   1002  TM11002     0.3377
     10  N9        25.5740   64.8730  135.8940 N.pl3 1002  TM11002    -0.1440
     11  PA        22.4230   68.3180  131.6420 P.3   1002  TM11002     0.5327
     12  C1'       25.5510   66.4790  135.8200 C.3   1002  TM11002     0.3152
     13  O1A       21.2140   68.0250  132.6220 O.3   1002  TM11002    -0.1145
     14  C1F       27.7010   69.2050  135.6200 C.3   1002  TM11002     0.2592
     15  C2'       26.9210   67.0940  135.3650 C.3   1002  TM11002     0.2201
     16  O2'       27.6080   67.8970  136.3630 O.3   1002  TM11002    -0.3208
     17  O2A       21.9090   68.3970  130.2120 O.2   1002  TM11002    -0.2224
     18  C2F       29.2450   69.3830  135.6060 C.3   1002  TM11002     0.2466
     19  N2F       30.1890   68.4230  134.9840 N.pl3 1002  TM11002     0.0420
     20  O2F       29.9110   67.4050  134.3960 O.2   1002  TM11002    -0.1305
     21  C3'       26.6610   67.8240  134.0740 C.3   1002  TM11002     0.1814
     22  O3'       27.0300   69.2100  134.2690 O.3   1002  TM11002    -0.3250
     23  O3A       23.0920   69.6990  132.0300 O.3   1002  TM11002    -0.1145
     24  C3F       29.8410   70.4920  136.1910 C.2   1002  TM11002     0.0324
     25  O3F       31.4150   68.5910  135.0020 O.2   1002  TM11002    -0.1305
     26  C4'       25.2790   67.7340  133.6690 C.3   1002  TM11002     0.1790
     27  O4'       24.7350   66.9360  134.7430 O.3   1002  TM11002    -0.3137
     28  C4F       29.2100   71.5370  136.8300 C.2   1002  TM11002     0.1423
     29  N4F       29.8310   72.5800  137.3770 N.pl3 1002  TM11002     0.0575
     30  O4F       30.2220   72.5980  138.5220 O.2   1002  TM11002    -0.1261
     31  C5'       24.9780   67.1780  132.1700 C.3   1002  TM11002     0.1858
     32  O5'       23.5450   67.0970  131.7680 O.3   1002  TM11002    -0.2675
     33  C5F       27.7830   71.4740  136.8930 C.2   1002  TM11002     0.0484
     34  O5F       30.0560   73.5740  136.7580 O.2   1002  TM11002    -0.1261
     35  C6F       26.9560   70.3430  136.3120 C.2   1002  TM11002     0.1752
     36  N6F       25.5500   70.4590  136.4760 N.pl3 1002  TM11002     0.0584
     37  O6F       25.0400   71.4140  137.0220 O.2   1002  TM11002    -0.1263
     38  O7F       24.7460   69.6870  136.1230 O.2   1002  TM11002    -0.1263
@<TRIPOS>BOND
     1    17    11    2
     2    11    32    1
     3    11    23    1
     4    11    13    1
     5    32    31    1
     6    31    26    1
     7    26    21    1
     8    26    27    1
     9    21    22    1
    10    21    15    1
    11    22    14    1
    12    20    19    2
    13    27    12    1
    14    19    25    2
    15    19    18    1
    16    15    12    1
    17    15    16    1
    18    18    14    1
    19    18    24    1
    20    14    35    1
    21    14    16    1
    22     9     8    1
    23     9    10    1
    24    12    10    1
    25     8     5    2
    26    10     4    1
    27    38    36    2
    28     5     4    1
    29     5     6    1
    30     4     3    2
    31    24    28    2
    32    35    36    1
    33    35    33    2
    34     7     6    1
    35     6     1    2
    36    36    37    2
    37     3     2    1
    38     1     2    1
    39    34    29    2
    40    28    33    1
    41    28    29    1
    42    29    30    2
