@<TRIPOS>MOLECULE
3ar8_TG1_A_1.pdb
 46 48 0 0 0
SMALL
GASTEIGER

@<TRIPOS>ATOM
      1  C34       -2.8970   61.7060   83.9440 C.3   1003  TG11003     0.0474
      2  C11       -2.0800   61.7510   82.6170 C.3   1003  TG11003     0.2470
      3  C7        -2.8830   62.3270   81.3730 C.3   1003  TG11003     0.2380
      4  C8        -2.9510   63.9380   81.2970 C.3   1003  TG11003     0.2067
      5  C9        -3.7850   64.5590   80.1520 C.3   1003  TG11003     0.0869
      6  C10       -3.4780   64.2110   78.6360 C.3   1003  TG11003     0.1465
      7  C1        -3.6360   62.5650   78.2190 C.3   1003  TG11003     0.1022
      8  C2        -3.7630   62.2230   76.6670 C.3   1003  TG11003     0.2195
      9  O1        -4.9450   61.4060   76.4180 O.3   1003  TG11003    -0.4477
     10  C13       -5.9730   61.8340   75.5810 C.2   1003  TG11003     0.3170
     11  O2        -6.1240   62.9700   75.1480 O.2   1003  TG11003    -0.2501
     12  C14       -6.9030   60.6680   75.2370 C.3   1003  TG11003     0.1096
     13  C15       -6.6430   59.9670   73.8900 C.3   1003  TG11003     0.0116
     14  C16       -6.8690   60.7390   72.5660 C.3   1003  TG11003     0.0006
     15  C17       -6.4170   59.9350   71.3300 C.3   1003  TG11003     0.0000
     16  C18       -6.7280   60.6590   70.0060 C.3   1003  TG11003     0.0000
     17  C19       -6.3110   59.8960   68.7290 C.3   1003  TG11003     0.0000
     18  C20       -5.0330   60.4410   68.0910 C.3   1003  TG11003     0.0000
     19  C3        -2.5570   61.2960   76.3130 C.3   1003  TG11003     0.2271
     20  O3        -1.6600   62.1530   75.4910 O.3   1003  TG11003    -0.4414
     21  C21       -1.1290   61.6700   74.3500 C.2   1003  TG11003     0.3372
     22  O4        -1.1260   60.4330   73.8700 O.2   1003  TG11003    -0.2453
     23  C22       -0.7610   62.8300   73.4060 C.2   1003  TG11003     0.0495
     24  C23       -1.9320   63.1260   72.5070 C.3   1003  TG11003     0.0375
     25  C24        0.3140   63.6050   73.2740 C.2   1003  TG11003    -0.0236
     26  C25        1.6220   63.6210   74.0410 C.3   1003  TG11003     0.0306
     27  C4        -1.9210   60.9610   77.6800 C.2   1003  TG11003    -0.0052
     28  C26       -0.7490   59.9930   77.7310 C.3   1003  TG11003     0.0296
     29  C5        -2.5060   61.6200   78.7100 C.2   1003  TG11003     0.0000
     30  C6        -2.0810   61.5980   80.2240 C.3   1003  TG11003     0.2211
     31  O5        -1.9300   60.2800   80.7710 O.3   1003  TG11003    -0.4435
     32  C12       -1.6700   60.3800   82.0910 C.2   1003  TG11003     0.3477
     33  O12       -1.1630   59.4970   82.7820 O.2   1003  TG11003    -0.2473
     34  C31       -2.1200   64.8000   78.1590 C.3   1003  TG11003     0.0443
     35  O9        -4.3030   65.1670   77.8340 O.3   1003  TG11003    -0.4552
     36  C32       -5.6310   65.3860   77.6930 C.2   1003  TG11003     0.3173
     37  O10       -6.5280   64.6710   78.1100 O.2   1003  TG11003    -0.2501
     38  C33       -5.8670   66.6060   76.9270 C.3   1003  TG11003     0.1212
     39  O7        -1.5980   64.5030   81.2840 O.3   1003  TG11003    -0.4493
     40  C27       -1.1600   65.3680   82.2650 C.2   1003  TG11003     0.3169
     41  O8        -1.7970   65.7430   83.2410 O.2   1003  TG11003    -0.2501
     42  C28        0.2740   65.7640   81.9540 C.3   1003  TG11003     0.1096
     43  C29        1.3310   65.1380   82.8820 C.3   1003  TG11003     0.0116
     44  C30        2.6890   65.7510   82.5520 C.3   1003  TG11003     0.0006
     45  O6        -4.2560   61.7780   81.3900 O.3   1003  TG11003    -0.2147
     46  O11       -0.7970   62.3040   82.9180 O.3   1003  TG11003    -0.2114
@<TRIPOS>BOND
     1    18    17    1
     2    17    16    1
     3    16    15    1
     4    15    14    1
     5    24    23    1
     6    14    13    1
     7    25    23    2
     8    25    26    1
     9    23    21    1
    10    22    21    2
    11    13    12    1
    12    21    20    1
    13    11    10    2
    14    12    10    1
    15    20    19    1
    16    10     9    1
    17    19     8    1
    18    19    27    1
    19     9     8    1
    20     8     7    1
    21    38    36    1
    22    27    28    1
    23    27    29    2
    24    36    35    1
    25    36    37    2
    26    35     6    1
    27    34     6    1
    28     7     6    1
    29     7    29    1
    30     6     5    1
    31    29    30    1
    32     5     4    1
    33    30    31    1
    34    30     3    1
    35    31    32    1
    36    39     4    1
    37    39    40    1
    38     4     3    1
    39     3    45    1
    40     3     2    1
    41    42    40    1
    42    42    43    1
    43    32     2    1
    44    32    33    2
    45    40    41    2
    46    44    43    1
    47     2    46    1
    48     2     1    1
