@<TRIPOS>MOLECULE
3ar9_TG1_A_1.pdb
 46 48 0 0 0
SMALL
GASTEIGER

@<TRIPOS>ATOM
      1  C34       34.9740   87.5510   11.1600 C.3   1003  TG11003     0.0474
      2  C11       35.4000   87.2060    9.7010 C.3   1003  TG11003     0.2470
      3  C7        34.8130   88.1690    8.5970 C.3   1003  TG11003     0.2380
      4  C8        35.5300   89.5790    8.4770 C.3   1003  TG11003     0.2067
      5  C9        34.8950   90.6090    7.5110 C.3   1003  TG11003     0.0869
      6  C10       34.6980   90.2580    5.9680 C.3   1003  TG11003     0.1465
      7  C1        33.7740   88.8930    5.6670 C.3   1003  TG11003     0.1022
      8  C2        33.2600   88.7480    4.1770 C.3   1003  TG11003     0.2195
      9  O1        31.8110   88.6050    4.1500 O.3   1003  TG11003    -0.4477
     10  C13       31.0410   89.4520    3.3530 C.2   1003  TG11003     0.3170
     11  O2        31.4350   90.4590    2.7770 O.2   1003  TG11003    -0.2501
     12  C14       29.5980   88.9340    3.2970 C.3   1003  TG11003     0.1096
     13  C15       29.1320   88.2570    2.0010 C.3   1003  TG11003     0.0116
     14  C16       28.9720   89.1250    0.7320 C.3   1003  TG11003     0.0006
     15  C17       29.7560   88.5700   -0.4840 C.3   1003  TG11003     0.0000
     16  C18       28.9360   88.6260   -1.7950 C.3   1003  TG11003     0.0000
     17  C19       29.6970   88.4190   -3.1210 C.3   1003  TG11003     0.0000
     18  C20       29.4240   89.5400   -4.1220 C.3   1003  TG11003     0.0000
     19  C3        33.8460   87.4260    3.6240 C.3   1003  TG11003     0.2271
     20  O3        34.8290   87.8750    2.6440 O.3   1003  TG11003    -0.4414
     21  C21       34.7050   87.4340    1.3740 C.2   1003  TG11003     0.3372
     22  O4        33.9050   86.4580    0.8770 O.2   1003  TG11003    -0.2453
     23  C22       35.3680   88.4420    0.3880 C.2   1003  TG11003     0.0495
     24  C23       34.3060   89.1480   -0.4280 C.3   1003  TG11003     0.0375
     25  C24       36.6480   88.8090    0.2020 C.2   1003  TG11003    -0.0236
     26  C25       37.9200   88.3270    0.8920 C.3   1003  TG11003     0.0306
     27  C4        34.5020   86.7560    4.8460 C.2   1003  TG11003    -0.0052
     28  C26       35.1550   85.3960    4.6860 C.3   1003  TG11003     0.0296
     29  C5        34.4290   87.5260    5.9580 C.2   1003  TG11003     0.0000
     30  C6        35.0050   87.2170    7.3620 C.3   1003  TG11003     0.2211
     31  O5        34.5610   85.9630    7.8920 O.3   1003  TG11003    -0.4435
     32  C12       34.9200   85.8620    9.1870 C.2   1003  TG11003     0.3477
     33  O12       34.8650   84.8300    9.8570 O.2   1003  TG11003    -0.2473
     34  C31       36.0530   90.1880    5.1900 C.3   1003  TG11003     0.0443
     35  O9        34.1680   91.4460    5.2200 O.3   1003  TG11003    -0.4552
     36  C32       33.5210   92.6050    5.4820 C.2   1003  TG11003     0.3173
     37  O10       33.1410   92.9910    6.5760 O.2   1003  TG11003    -0.2501
     38  C33       33.2570   93.3390    4.2430 C.3   1003  TG11003     0.1212
     39  O7        36.9510   89.3630    8.1500 O.3   1003  TG11003    -0.4493
     40  C27       37.9580   89.8600    8.9510 C.2   1003  TG11003     0.3169
     41  O8        37.7920   90.5730    9.9320 O.2   1003  TG11003    -0.2501
     42  C28       39.3170   89.3380    8.4740 C.3   1003  TG11003     0.1096
     43  C29       39.8930   88.2070    9.3490 C.3   1003  TG11003     0.0116
     44  C30       41.3710   87.9910    9.0400 C.3   1003  TG11003     0.0006
     45  O6        33.3810   88.3520    8.8490 O.3   1003  TG11003    -0.2147
     46  O11       36.8040   86.9600    9.7000 O.3   1003  TG11003    -0.2114
@<TRIPOS>BOND
     1    18    17    1
     2    17    16    1
     3    16    15    1
     4    15    14    1
     5    24    23    1
     6    25    23    2
     7    25    26    1
     8    23    21    1
     9    14    13    1
    10    22    21    2
    11    21    20    1
    12    13    12    1
    13    20    19    1
    14    11    10    2
    15    12    10    1
    16    10     9    1
    17    19     8    1
    18    19    27    1
    19     9     8    1
    20     8     7    1
    21    38    36    1
    22    28    27    1
    23    27    29    2
    24    34     6    1
    25    35    36    1
    26    35     6    1
    27    36    37    2
    28     7    29    1
    29     7     6    1
    30    29    30    1
    31     6     5    1
    32    30    31    1
    33    30     3    1
    34     5     4    1
    35    31    32    1
    36    39     4    1
    37    39    40    1
    38    42    40    1
    39    42    43    1
    40     4     3    1
    41     3    45    1
    42     3     2    1
    43    40    41    2
    44    44    43    1
    45    32     2    1
    46    32    33    2
    47    46     2    1
    48     2     1    1
