@<TRIPOS>MOLECULE
3ar9_TM1_A_1.pdb
 38 42 0 0 0
SMALL
GASTEIGER

@<TRIPOS>ATOM
      1  N1        69.3160   75.6260   61.7120 N.2   1002  TM11002     0.0021
      2  C2        70.4580   76.2750   62.1720 C.3   1002  TM11002     0.5254
      3  N3        70.8240   77.5110   61.6840 N.2   1002  TM11002    -0.0055
      4  C4        70.0850   78.2070   60.7110 C.2   1002  TM11002     0.3518
      5  C5        68.9220   77.5920   60.2080 C.2   1002  TM11002     0.2526
      6  C6        68.5130   76.2770   60.7150 C.2   1002  TM11002     0.4393
      7  N6        67.4060   75.7010   60.2340 N.pl3 1002  TM11002     0.2180
      8  N7        68.3420   78.3680   59.3030 N.2   1002  TM11002    -0.2095
      9  C8        69.1130   79.4530   59.2120 C.3   1002  TM11002     0.3377
     10  N9        70.1800   79.3640   60.0630 N.pl3 1002  TM11002    -0.1440
     11  PA        68.5810   85.9080   60.5540 P.3   1002  TM11002     0.5327
     12  C1'       71.3330   80.4530   60.2450 C.3   1002  TM11002     0.3152
     13  O1A       69.2190   86.4530   61.8990 O.3   1002  TM11002    -0.1145
     14  C1F       73.8830   81.7310   58.2740 C.3   1002  TM11002     0.2592
     15  C2'       71.9220   80.8140   58.8470 C.3   1002  TM11002     0.2201
     16  O2'       73.2810   80.3990   58.6030 O.3   1002  TM11002    -0.3208
     17  O2A       67.0840   86.1900   60.5380 O.3   1002  TM11002    -0.1145
     18  C2F       74.3800   81.4170   56.8430 C.3   1002  TM11002     0.2466
     19  N2F       73.4870   81.0020   55.7240 N.pl3 1002  TM11002     0.0420
     20  O2F       72.2790   80.8460   55.7540 O.2   1002  TM11002    -0.1305
     21  C3'       71.6690   82.2700   58.6240 C.3   1002  TM11002     0.1814
     22  O3'       72.9450   82.9020   58.4020 O.3   1002  TM11002    -0.3250
     23  O3A       69.2530   86.6350   59.3200 O.2   1002  TM11002    -0.2224
     24  C3F       75.7310   81.5130   56.5290 C.2   1002  TM11002     0.0324
     25  O3F       73.9220   80.7570   54.5900 O.2   1002  TM11002    -0.1305
     26  C4'       70.9770   82.8800   59.7310 C.3   1002  TM11002     0.1790
     27  O4'       70.8300   81.7400   60.6100 O.3   1002  TM11002    -0.3137
     28  C4F       76.7580   81.8720   57.3820 C.2   1002  TM11002     0.1423
     29  N4F       78.0340   81.9440   57.0450 N.pl3 1002  TM11002     0.0575
     30  O4F       78.8280   81.0540   57.2300 O.2   1002  TM11002    -0.1261
     31  C5'       69.5840   83.6230   59.3580 C.3   1002  TM11002     0.1858
     32  O5'       68.8340   84.2720   60.4580 O.3   1002  TM11002    -0.2675
     33  C5F       76.3960   82.1850   58.7240 C.2   1002  TM11002     0.0484
     34  O5F       78.4840   82.9040   56.5180 O.2   1002  TM11002    -0.1261
     35  C6F       74.9800   82.1370   59.2450 C.2   1002  TM11002     0.1752
     36  N6F       74.8130   82.4790   60.6090 N.pl3 1002  TM11002     0.0584
     37  O6F       75.7550   82.7890   61.3060 O.2   1002  TM11002    -0.1263
     38  O7F       73.7980   82.4990   61.1940 O.2   1002  TM11002    -0.1263
@<TRIPOS>BOND
     1    25    19    2
     2    19    20    2
     3    19    18    1
     4    34    29    2
     5    24    18    1
     6    24    28    2
     7    18    14    1
     8    29    30    2
     9    29    28    1
    10    28    33    1
    11    14    22    1
    12    14    16    1
    13    14    35    1
    14    22    21    1
    15    16    15    1
    16    21    15    1
    17    21    26    1
    18    33    35    2
    19    15    12    1
    20     9     8    1
    21     9    10    1
    22    35    36    1
    23     8     5    2
    24    23    11    2
    25    31    26    1
    26    31    32    1
    27    26    27    1
    28    10    12    1
    29    10     4    1
    30     5     4    1
    31     5     6    1
    32     7     6    1
    33    12    27    1
    34    32    11    1
    35    17    11    1
    36    11    13    1
    37    36    38    2
    38    36    37    2
    39     4     3    2
    40     6     1    2
    41     3     2    1
    42     1     2    1
