@<TRIPOS>MOLECULE
3ara_MKH_A_1.pdb
 33 36 0 0 0
SMALL
GASTEIGER

@<TRIPOS>ATOM
      1  O1         3.5850   10.0530  -11.9210 O.2   165  MKH165     -0.2085
      2  C2         4.5700    9.6280  -12.4070 C.1   165  MKH165      0.2182
      3  N3         5.6140   10.4920  -12.3970 N.2   165  MKH165     -0.2452
      4  C4         6.7760   10.1440  -12.9840 C.1   165  MKH165      0.2826
      5  N5         6.9200    8.8780  -13.5430 N.am  165  MKH165     -0.2033
      6  C6         5.8950    7.9620  -13.5430 C.2   165  MKH165      0.0904
      7  C7         4.6430    8.3310  -12.8710 C.2   165  MKH165      0.1241
      8  O8         7.7100   10.9680  -13.0730 O.2   165  MKH165     -0.1919
      9  C9         8.2410    8.4370  -14.1440 C.3   165  MKH165      0.1109
     10  C10        8.1860    8.2480  -15.6470 C.3   165  MKH165      0.0497
     11  C11        8.0030    9.6690  -16.2840 C.3   165  MKH165      0.1709
     12  S12        8.0830    9.5260  -17.9830 S.O2  165  MKH165      0.0439
     13  N13        8.2100   10.8940  -18.6920 N.3   165  MKH165     -0.1577
     14  C14        9.4930   11.6190  -18.7470 C.3   165  MKH165      0.0955
     15  C15        9.5440   11.8740  -20.2780 C.3   165  MKH165      0.0207
     16  C16        8.0940   12.0190  -20.7640 C.3   165  MKH165      0.0224
     17  C17        7.2070   11.5030  -19.6070 C.3   165  MKH165      0.1149
     18  O18        9.2430    8.7140  -18.4110 O.2   165  MKH165     -0.1573
     19  O19        6.8740    8.7950  -18.3500 O.2   165  MKH165     -0.1573
     20  C20        6.3100   12.6010  -19.0140 C.3   165  MKH165      0.1788
     21  O21        7.0580   13.7250  -18.5030 O.3   165  MKH165     -0.2152
     22  C22        5.3270   13.1030  -20.0480 C.ar  165  MKH165      0.0103
     23  C23        4.9140   14.4300  -19.9590 C.ar  165  MKH165     -0.0016
     24  C24        3.9560   14.9200  -20.8830 C.ar  165  MKH165     -0.0002
     25  C25        3.4530   14.0880  -21.8970 C.ar  165  MKH165     -0.0000
     26  C26        3.9060   12.7740  -21.9820 C.ar  165  MKH165     -0.0002
     27  C27        4.8190   12.2460  -21.0520 C.ar  165  MKH165     -0.0016
     28  C28        5.5180   12.0880  -17.8300 C.ar  165  MKH165      0.0103
     29  C29        5.8230   12.6250  -16.5940 C.ar  165  MKH165     -0.0016
     30  C30        5.1240   12.2340  -15.4850 C.ar  165  MKH165     -0.0002
     31  C31        4.1250   11.2760  -15.5600 C.ar  165  MKH165     -0.0000
     32  C32        3.7780   10.7140  -16.8200 C.ar  165  MKH165     -0.0002
     33  C33        4.4680   11.1680  -17.9390 C.ar  165  MKH165     -0.0016
@<TRIPOS>BOND
     1    26    25   ar
     2    26    27   ar
     3    25    24   ar
     4    27    22   ar
     5    24    23   ar
     6    16    15    1
     7    16    17    1
     8    15    14    1
     9    22    23   ar
    10    22    20    1
    11    17    20    1
    12    17    13    1
    13    20    21    1
    14    20    28    1
    15    14    13    1
    16    13    12    1
    17    18    12    2
    18    19    12    2
    19    12    11    1
    20    33    28   ar
    21    33    32   ar
    22    28    29   ar
    23    32    31   ar
    24    29    30   ar
    25    11    10    1
    26    10     9    1
    27    31    30   ar
    28     9     5    1
    29     6     5    1
    30     6     7    2
    31     5     4   am
    32     8     4    2
    33     4     3    2
    34     7     2    1
    35     2     3    2
    36     2     1    2
