@<TRIPOS>MOLECULE
3arb_FEE_A_1.pdb
 49 49 0 0 0
SMALL
GASTEIGER

@<TRIPOS>ATOM
      1  N2       -11.1910  -45.4960  -63.7310 N.am  601  FEE601     -0.2019
      2  C3        -9.1790  -46.8470  -63.5470 C.3   601  FEE601      0.2043
      3  C4        -9.7520  -47.9640  -64.4300 C.3   601  FEE601      0.1839
      4  C5        -9.6370  -47.7020  -65.9360 C.3   601  FEE601      0.0356
      5  C6        -9.8230  -48.9650  -66.7800 C.3   601  FEE601      0.0027
      6  C7       -11.2960  -49.3040  -67.0170 C.3   601  FEE601      0.0001
      7  C8       -11.6060  -49.5600  -68.4910 C.3   601  FEE601      0.0000
      8  C9       -11.0660  -50.8930  -68.9770 C.3   601  FEE601      0.0000
      9  C1        -9.3060  -44.4950  -62.6710 C.3   601  FEE601      0.1691
     10  CAX      -20.0100  -44.9660  -72.8240 C.3   601  FEE601      0.0000
     11  CAW      -21.0750  -43.9960  -73.3280 C.3   601  FEE601      0.0000
     12  CAV      -20.8680  -42.5840  -72.7810 C.3   601  FEE601      0.0000
     13  CAU      -21.6930  -41.5560  -73.5510 C.3   601  FEE601      0.0000
     14  CAT      -20.9310  -40.2480  -73.7430 C.3   601  FEE601      0.0000
     15  CAS      -20.4390  -40.0810  -75.1790 C.3   601  FEE601      0.0000
     16  CAR      -19.1780  -39.2220  -75.2510 C.3   601  FEE601      0.0000
     17  CAQ      -18.1240  -39.8420  -76.1640 C.3   601  FEE601      0.0000
     18  CAP      -16.7190  -39.6410  -75.6030 C.3   601  FEE601      0.0000
     19  CAO      -15.6640  -40.4160  -76.3900 C.3   601  FEE601      0.0000
     20  CAN      -14.8400  -41.3320  -75.4870 C.3   601  FEE601      0.0000
     21  CAM      -14.7540  -42.7420  -76.0690 C.3   601  FEE601      0.0000
     22  CAL      -13.9710  -43.6950  -75.1670 C.3   601  FEE601      0.0000
     23  CAK      -14.7230  -45.0090  -74.9700 C.3   601  FEE601      0.0000
     24  CAJ      -14.2920  -45.7140  -73.6860 C.3   601  FEE601      0.0000
     25  CAI      -15.4510  -45.8430  -72.7040 C.3   601  FEE601      0.0000
     26  CAH      -14.9920  -46.4180  -71.3670 C.3   601  FEE601      0.0000
     27  CAG      -15.2930  -45.4500  -70.2260 C.3   601  FEE601      0.0000
     28  CAF      -14.9550  -46.0470  -68.8620 C.3   601  FEE601      0.0000
     29  CAE      -14.7780  -44.9410  -67.8250 C.3   601  FEE601      0.0000
     30  CAD      -14.1950  -45.4800  -66.5240 C.3   601  FEE601      0.0005
     31  CAC      -14.2650  -44.4250  -65.4250 C.3   601  FEE601      0.0096
     32  CAB      -13.4750  -44.8380  -64.1850 C.3   601  FEE601      0.0868
     33  CAA      -11.9840  -44.6340  -64.3730 C.2   601  FEE601      0.2415
     34  OAA      -11.5600  -43.7250  -65.0750 O.2   601  FEE601     -0.2733
     35  C2        -9.7290  -45.4370  -63.8010 C.3   601  FEE601      0.1576
     36  O3        -7.7530  -46.8260  -63.6870 O.3   601  FEE601     -0.2185
     37  O4        -9.0800  -49.1860  -64.1010 O.3   601  FEE601     -0.2204
     38  O1A       -9.9520  -44.9000  -61.4710 O.3   601  FEE601     -0.3266
     39  C1A       -9.4990  -44.2280  -60.3040 C.3   601  FEE601      0.2695
     40  O6A      -10.0230  -42.8910  -60.2230 O.3   601  FEE601     -0.3256
     41  C5M      -11.4500  -42.7570  -60.1000 C.3   601  FEE601      0.1835
     42  C6A      -11.8130  -41.2770  -59.9850 C.3   601  FEE601      0.2142
     43  O5A      -11.7310  -40.6490  -61.2720 O.3   601  FEE601     -0.2176
     44  C4A      -11.9840  -43.5660  -58.9140 C.3   601  FEE601      0.2144
     45  O4A      -11.6070  -42.9430  -57.6750 O.3   601  FEE601     -0.2176
     46  C3A      -11.4690  -45.0060  -58.9680 C.3   601  FEE601      0.2198
     47  O3A      -11.8530  -45.7290  -57.7970 O.3   601  FEE601     -0.2174
     48  C2A       -9.9500  -45.0340  -59.0890 C.3   601  FEE601      0.2406
     49  O2A       -9.5090  -46.3870  -59.2090 O.3   601  FEE601     -0.2149
@<TRIPOS>BOND
     1    19    18    1
     2    19    20    1
     3    17    18    1
     4    17    16    1
     5    21    20    1
     6    21    22    1
     7    16    15    1
     8    15    14    1
     9    22    23    1
    10    23    24    1
    11    14    13    1
    12    24    25    1
    13    13    12    1
    14    11    10    1
    15    11    12    1
    16    25    26    1
    17    26    27    1
    18    27    28    1
    19     8     7    1
    20    28    29    1
    21     7     6    1
    22    29    30    1
    23     6     5    1
    24     5     4    1
    25    30    31    1
    26     4     3    1
    27    31    32    1
    28    34    33    2
    29     3    37    1
    30     3     2    1
    31    33    32    1
    32    33     1   am
    33    35     1    1
    34    35     2    1
    35    35     9    1
    36    36     2    1
    37     9    38    1
    38    38    39    1
    39    43    42    1
    40    39    40    1
    41    39    48    1
    42    40    41    1
    43    41    42    1
    44    41    44    1
    45    49    48    1
    46    48    46    1
    47    46    44    1
    48    46    47    1
    49    44    45    1
