@<TRIPOS>MOLECULE
3arc_OEX_a_1.pdb
 10 11 0 0 0
SMALL
GASTEIGER

@<TRIPOS>ATOM
      1  O1         5.9630   24.2480  153.7780 O.3   601  OEX601      0.0000
      2 CA1         6.6850   22.1940  152.7780 Ca    601  OEX601      0.0000
      3 MN1         4.8900   23.9220  155.1750 Mn    601  OEX601      0.0000
      4  O2         8.2420   22.5340  154.6530 O.3   601  OEX601      0.0000
      5 MN2         7.5890   24.4650  154.9740 Mn    601  OEX601      0.0000
      6  O3         6.2450   23.5690  156.3570 O.3   601  OEX601      0.0000
      7 MN3         7.2410   21.8250  156.1520 Mn    601  OEX601      0.0000
      8  O4         8.2270   20.0400  155.8150 O.3   601  OEX601      0.0000
      9 MN4         6.4450   19.2180  155.1320 Mn    601  OEX601      0.0000
     10  O5         5.2030   21.3430  154.9840 O.3   601  OEX601      0.0000
@<TRIPOS>BOND
     1     1     5    1
     2     1     3    1
     3     4     5    1
     4     4     7    1
     5    10     9    1
     6    10     7    1
     7     9     8    1
     8     9     7    1
     9     3     6    1
    10     8     7    1
    11     7     6    1
