@<TRIPOS>MOLECULE
3arc_HEM_f_1.pdb
 43 50 0 0 0
SMALL
GASTEIGER

@<TRIPOS>ATOM
      1  CHA      -33.0510   30.2720  113.4660 C.2   641  HEM641      0.0000
      2  CHB      -35.4740   34.1740  115.0030 C.2   641  HEM641      0.0000
      3  CHC      -32.0610   34.8740  118.3690 C.2   641  HEM641      0.0000
      4  CHD      -29.4060   31.2030  116.5830 C.2   641  HEM641      0.0000
      5  C1A      -33.9290   31.3310  113.4950 C.ar  641  HEM641      0.0000
      6  C2A      -34.8990   31.6890  112.4760 C.ar  641  HEM641      0.0000
      7  C3A      -35.5700   32.7700  112.9050 C.ar  641  HEM641      0.0000
      8  C4A      -35.0490   33.1230  114.2130 C.ar  641  HEM641      0.0000
      9  CMA      -36.7000   33.5260  112.1610 C.3   641  HEM641      0.0000
     10  CAA      -35.0860   30.9470  111.1300 C.3   641  HEM641      0.0000
     11  CBA      -33.9460   31.3670  110.1940 C.3   641  HEM641      0.0000
     12  CGA      -34.2270   30.9660  108.7640 C.2   641  HEM641      0.0000
     13  O1A      -33.3250   30.3710  108.1180 O.co2 641  HEM641      0.0000
     14  O2A      -35.3520   31.2420  108.2610 O.co2 641  HEM641      0.0000
     15  C1B      -34.8050   34.6900  116.0900 C.2   641  HEM641      0.0000
     16  C2B      -35.2520   35.7770  116.9480 C.2   641  HEM641      0.0000
     17  C3B      -34.3080   35.9750  117.8880 C.2   641  HEM641      0.0000
     18  C4B      -33.2310   35.0210  117.6450 C.2   641  HEM641      0.0000
     19  CMB      -36.5900   36.5420  116.7730 C.3   641  HEM641      0.0000
     20  CAB      -34.3270   37.0270  119.0280 C.2   641  HEM641      0.0000
     21  CBB      -35.4650   37.4680  119.5860 C.2   641  HEM641      0.0000
     22  C1C      -31.0210   33.9830  118.1410 C.ar  641  HEM641      0.0000
     23  C2C      -29.7400   33.9820  118.8260 C.ar  641  HEM641      0.0000
     24  C3C      -28.9970   32.9750  118.3360 C.ar  641  HEM641      0.0000
     25  C4C      -29.7850   32.2960  117.3280 C.ar  641  HEM641      0.0000
     26  CMC      -29.3550   34.9980  119.9260 C.3   641  HEM641      0.0000
     27  CAC      -27.5610   32.5540  118.7420 C.2   641  HEM641      0.0000
     28  CBC      -26.5770   33.4440  118.9080 C.2   641  HEM641      0.0000
     29  C1D      -30.2120   30.5110  115.7030 C.2   641  HEM641      0.0000
     30  C2D      -30.0220   29.1370  115.2760 C.2   641  HEM641      0.0000
     31  C3D      -31.1670   28.8510  114.2930 C.2   641  HEM641      0.0000
     32  C4D      -31.9300   30.0790  114.2400 C.2   641  HEM641      0.0000
     33  CMD      -28.9000   28.1690  115.7110 C.3   641  HEM641      0.0000
     34  CAD      -31.4930   27.5260  113.5570 C.3   641  HEM641      0.0000
     35  CBD      -32.6110   26.9090  114.4170 C.3   641  HEM641      0.0000
     36  CGD      -33.1920   25.5980  113.9320 C.2   641  HEM641      0.0000
     37  O1D      -33.4630   24.7120  114.7930 O.co2 641  HEM641      0.0000
     38  O2D      -33.4070   25.4270  112.7040 O.co2 641  HEM641      0.0000
     39  NA       -34.0490   32.2200  114.5340 N.ar  641  HEM641      0.0000
     40  NB       -33.5760   34.2520  116.5470 N.2   641  HEM641      0.0000
     41  NC       -31.0010   32.9340  117.2350 N.ar  641  HEM641      0.0000
     42  ND       -31.3500   31.0210  115.0840 N.2   641  HEM641      0.0000
     43 FE        -32.4800   32.6280  115.8120 Fe    641  HEM641      0.0000
@<TRIPOS>BOND
     1    13    12   ar
     2    14    12   ar
     3    12    11    1
     4    11    10    1
     5    10     6    1
     6     9     7    1
     7     6     7   ar
     8     6     5   ar
     9    38    36   ar
    10     7     8   ar
    11     1     5    2
    12     1    32    1
    13     5    39   ar
    14    34    31    1
    15    34    35    1
    16    36    35    1
    17    36    37   ar
    18     8    39   ar
    19     8     2    2
    20    32    31    1
    21    32    42    2
    22    31    30    2
    23    39    43    1
    24     2    15    1
    25    42    29    1
    26    42    43    1
    27    30    29    1
    28    30    33    1
    29    29     4    2
    30    43    40    1
    31    43    41    1
    32    15    40    2
    33    15    16    1
    34    40    18    1
    35     4    25    1
    36    19    16    1
    37    16    17    2
    38    41    25   ar
    39    41    22   ar
    40    25    24   ar
    41    18    17    1
    42    18     3    2
    43    17    20    1
    44    22     3    1
    45    22    23   ar
    46    24    27    1
    47    24    23   ar
    48    27    28    2
    49    23    26    1
    50    20    21    2
