@<TRIPOS>MOLECULE
3arj_HEM_A_1.pdb
 43 50 0 0 0
SMALL
GASTEIGER

@<TRIPOS>ATOM
      1  CHA        5.0540    2.1680   -0.9410 C.2   153  HEM153      0.0000
      2  CHB        9.0970    3.5340    1.2550 C.2   153  HEM153      0.0000
      3  CHC        9.4940    7.3380   -1.7340 C.2   153  HEM153      0.0000
      4  CHD        5.0350    6.4000   -3.3990 C.2   153  HEM153      0.0000
      5  C1A        6.0550    2.2220   -0.0270 C.2   153  HEM153      0.0000
      6  C2A        6.3420    1.2710    1.0480 C.2   153  HEM153      0.0000
      7  C3A        7.4560    1.6480    1.6870 C.2   153  HEM153      0.0000
      8  C4A        7.9200    2.8690    0.9970 C.2   153  HEM153      0.0000
      9  CMA        8.1760    0.9350    2.8290 C.3   153  HEM153      0.0000
     10  CAA        5.3510    0.2150    1.5570 C.3   153  HEM153      0.0000
     11  CBA        4.9630   -0.9530    0.8610 C.3   153  HEM153      0.0000
     12  CGA        3.6000   -0.8730    0.1790 C.2   153  HEM153      0.0000
     13  O1A        2.4930   -0.8860    0.7950 O.co2 153  HEM153      0.0000
     14  O2A        3.6220   -0.8120   -1.0570 O.co2 153  HEM153      0.0000
     15  C1B        9.6120    4.6170    0.5900 C.ar  153  HEM153      0.0000
     16  C2B       10.9190    5.2340    0.8310 C.ar  153  HEM153      0.0000
     17  C3B       11.0450    6.2610   -0.0210 C.ar  153  HEM153      0.0000
     18  C4B        9.8150    6.3640   -0.8060 C.ar  153  HEM153      0.0000
     19  CMB       12.0030    4.7760    1.8510 C.3   153  HEM153      0.0000
     20  CAB       12.2370    7.2230   -0.1530 C.2   153  HEM153      0.0000
     21  CBB       12.6930    7.5490   -1.3700 C.2   153  HEM153      0.0000
     22  C1C        8.2700    7.4840   -2.3560 C.2   153  HEM153      0.0000
     23  C2C        7.8170    8.6470   -3.1210 C.2   153  HEM153      0.0000
     24  C3C        6.5580    8.3790   -3.5940 C.2   153  HEM153      0.0000
     25  C4C        6.2220    7.0460   -3.1490 C.2   153  HEM153      0.0000
     26  CMC        8.7000    9.9130   -3.3040 C.3   153  HEM153      0.0000
     27  CAC        5.6050    9.2210   -4.4870 C.2   153  HEM153      0.0000
     28  CBC        5.9080   10.4590   -4.9320 C.2   153  HEM153      0.0000
     29  C1D        4.6720    5.1760   -2.9410 C.ar  153  HEM153      0.0000
     30  C2D        3.4310    4.4980   -3.3380 C.ar  153  HEM153      0.0000
     31  C3D        3.4150    3.2030   -2.6120 C.ar  153  HEM153      0.0000
     32  C4D        4.6540    3.1860   -1.8190 C.ar  153  HEM153      0.0000
     33  CMD        2.3640    5.2170   -4.2020 C.3   153  HEM153      0.0000
     34  CAD        2.5520    1.9250   -2.8340 C.3   153  HEM153      0.0000
     35  CBD        1.6670    1.8100   -1.6230 C.3   153  HEM153      0.0000
     36  CGD        0.8250    3.0180   -1.8750 C.2   153  HEM153      0.0000
     37  O1D        0.0690    2.9930   -2.9110 O.co2 153  HEM153      0.0000
     38  O2D        0.9440    3.9710   -1.0660 O.co2 153  HEM153      0.0000
     39  NA         7.0540    3.1550   -0.0430 N.2   153  HEM153      0.0000
     40  NB         9.0020    5.3340   -0.4370 N.ar  153  HEM153      0.0000
     41  NC         7.2740    6.5180   -2.4120 N.2   153  HEM153      0.0000
     42  ND         5.3140    4.3860   -1.9770 N.ar  153  HEM153      0.0000
     43 FE          7.1850    4.7960   -1.2860 Fe    153  HEM153      0.0000
@<TRIPOS>BOND
     1    28    27    2
     2    27    24    1
     3    33    30    1
     4    24    25    1
     5    24    23    2
     6     4    25    1
     7     4    29    2
     8    30    29   ar
     9    30    31   ar
    10    26    23    1
    11    25    41    2
    12    23    22    1
    13    29    42   ar
    14    37    36   ar
    15    34    31    1
    16    34    35    1
    17    31    32   ar
    18    41    22    1
    19    41    43    1
    20    22     3    2
    21    42    32   ar
    22    42    43    1
    23    36    35    1
    24    36    38   ar
    25    32     1    2
    26     3    18    1
    27    21    20    2
    28    43    40    1
    29    43    39    1
    30    14    12   ar
    31     1     5    1
    32    18    40   ar
    33    18    17   ar
    34    40    15   ar
    35    20    17    1
    36    39     5    2
    37    39     8    1
    38     5     6    1
    39    17    16   ar
    40    12    13   ar
    41    12    11    1
    42    15    16   ar
    43    15     2    1
    44    16    19    1
    45    11    10    1
    46     8     2    2
    47     8     7    1
    48     6    10    1
    49     6     7    2
    50     7     9    1
