@<TRIPOS>MOLECULE
3ark_HEM_A_1.pdb
 43 50 0 0 0
SMALL
GASTEIGER

@<TRIPOS>ATOM
      1  CHA       -4.9400   35.4520   15.8510 C.2   153  HEM153      0.0000
      2  CHB       -9.0210   34.0860   18.0710 C.2   153  HEM153      0.0000
      3  CHC       -9.4230   30.2920   15.0330 C.2   153  HEM153      0.0000
      4  CHD       -4.9610   31.2460   13.3660 C.2   153  HEM153      0.0000
      5  C1A       -5.9940   35.4130   16.7570 C.2   153  HEM153      0.0000
      6  C2A       -6.2320   36.3260   17.8770 C.2   153  HEM153      0.0000
      7  C3A       -7.3690   35.9420   18.4830 C.2   153  HEM153      0.0000
      8  C4A       -7.8780   34.7810   17.7640 C.2   153  HEM153      0.0000
      9  CMA       -8.0470   36.6030   19.7150 C.3   153  HEM153      0.0000
     10  CAA       -5.2750   37.4750   18.3500 C.3   153  HEM153      0.0000
     11  CBA       -5.0880   38.6660   17.4770 C.3   153  HEM153      0.0000
     12  CGA       -3.6600   38.6600   16.9580 C.2   153  HEM153      0.0000
     13  O1A       -2.6530   38.8390   17.7120 O.co2 153  HEM153      0.0000
     14  O2A       -3.5270   38.4750   15.7400 O.co2 153  HEM153      0.0000
     15  C1B       -9.5330   32.9830   17.4110 C.ar  153  HEM153      0.0000
     16  C2B      -10.8240   32.3440   17.6570 C.ar  153  HEM153      0.0000
     17  C3B      -10.9530   31.3170   16.8000 C.ar  153  HEM153      0.0000
     18  C4B       -9.7320   31.2420   15.9970 C.ar  153  HEM153      0.0000
     19  CMB      -11.7850   32.6910   18.8080 C.3   153  HEM153      0.0000
     20  CAB      -12.1520   30.3590   16.6920 C.2   153  HEM153      0.0000
     21  CBB      -12.5470   29.9890   15.4780 C.2   153  HEM153      0.0000
     22  C1C       -8.2040   30.1540   14.4010 C.2   153  HEM153      0.0000
     23  C2C       -7.7270   28.9870   13.6530 C.2   153  HEM153      0.0000
     24  C3C       -6.4860   29.2710   13.1760 C.2   153  HEM153      0.0000
     25  C4C       -6.1520   30.6100   13.6290 C.2   153  HEM153      0.0000
     26  CMC       -8.5660   27.6920   13.4720 C.3   153  HEM153      0.0000
     27  CAC       -5.5010   28.4290   12.3150 C.2   153  HEM153      0.0000
     28  CBC       -5.7920   27.1980   11.8570 C.2   153  HEM153      0.0000
     29  C1D       -4.5510   32.4670   13.8300 C.ar  153  HEM153      0.0000
     30  C2D       -3.3710   33.1470   13.4950 C.ar  153  HEM153      0.0000
     31  C3D       -3.3850   34.4870   14.1680 C.ar  153  HEM153      0.0000
     32  C4D       -4.5860   34.4720   14.9590 C.ar  153  HEM153      0.0000
     33  CMD       -2.2030   32.6150   12.4890 C.3   153  HEM153      0.0000
     34  CAD       -2.4010   35.6780   14.0420 C.3   153  HEM153      0.0000
     35  CBD       -1.6010   35.8560   15.1090 C.3   153  HEM153      0.0000
     36  CGD       -0.6830   34.6920   14.9330 C.2   153  HEM153      0.0000
     37  O1D        0.2150   34.7680   14.0270 O.co2 153  HEM153      0.0000
     38  O2D       -0.8850   33.7060   15.6880 O.co2 153  HEM153      0.0000
     39  NA        -7.0030   34.4810   16.7410 N.2   153  HEM153      0.0000
     40  NB        -8.9080   32.2650   16.4070 N.ar  153  HEM153      0.0000
     41  NC        -7.2270   31.1220   14.3570 N.2   153  HEM153      0.0000
     42  ND        -5.2390   33.2470   14.7730 N.ar  153  HEM153      0.0000
     43 FE         -7.1230   32.8230   15.5080 Fe    153  HEM153      0.0000
@<TRIPOS>BOND
     1    28    27    2
     2    27    24    1
     3    33    30    1
     4    24    25    1
     5    24    23    2
     6     4    25    1
     7     4    29    2
     8    26    23    1
     9    30    29   ar
    10    30    31   ar
    11    25    41    2
    12    23    22    1
    13    29    42   ar
    14    37    36   ar
    15    34    31    1
    16    34    35    1
    17    31    32   ar
    18    41    22    1
    19    41    43    1
    20    22     3    2
    21    42    32   ar
    22    42    43    1
    23    36    35    1
    24    36    38   ar
    25    32     1    2
    26     3    18    1
    27    21    20    2
    28    43    40    1
    29    43    39    1
    30    14    12   ar
    31     1     5    1
    32    18    40   ar
    33    18    17   ar
    34    40    15   ar
    35    20    17    1
    36    39     5    2
    37    39     8    1
    38     5     6    1
    39    17    16   ar
    40    12    11    1
    41    12    13   ar
    42    15    16   ar
    43    15     2    1
    44    11    10    1
    45    16    19    1
    46     8     2    2
    47     8     7    1
    48     6    10    1
    49     6     7    2
    50     7     9    1
