@<TRIPOS>MOLECULE
3arl_HEM_A_1.pdb
 43 50 0 0 0
SMALL
GASTEIGER

@<TRIPOS>ATOM
      1  CHA        5.0370    2.1780   -0.8680 C.2   153  HEM153      0.0000
      2  CHB        9.1400    3.5020    1.3590 C.2   153  HEM153      0.0000
      3  CHC        9.5050    7.2840   -1.6650 C.2   153  HEM153      0.0000
      4  CHD        5.0570    6.4010   -3.3260 C.2   153  HEM153      0.0000
      5  C1A        6.0920    2.2070    0.0300 C.2   153  HEM153      0.0000
      6  C2A        6.3420    1.2790    1.1430 C.2   153  HEM153      0.0000
      7  C3A        7.4900    1.6470    1.7470 C.2   153  HEM153      0.0000
      8  C4A        7.9860    2.8210    1.0580 C.2   153  HEM153      0.0000
      9  CMA        8.1630    0.9830    2.9810 C.3   153  HEM153      0.0000
     10  CAA        5.4070    0.1100    1.5960 C.3   153  HEM153      0.0000
     11  CBA        5.2200   -1.0150    0.6330 C.3   153  HEM153      0.0000
     12  CGA        3.7690   -1.0130    0.1670 C.2   153  HEM153      0.0000
     13  O1A        2.7960   -1.2670    0.9550 O.co2 153  HEM153      0.0000
     14  O2A        3.6030   -0.7650   -1.0370 O.co2 153  HEM153      0.0000
     15  C1B        9.6340    4.6000    0.6990 C.ar  153  HEM153      0.0000
     16  C2B       10.9400    5.2300    0.9180 C.ar  153  HEM153      0.0000
     17  C3B       11.0460    6.2610    0.0660 C.ar  153  HEM153      0.0000
     18  C4B        9.8180    6.3320   -0.7200 C.ar  153  HEM153      0.0000
     19  CMB       12.0110    4.7740    1.9460 C.3   153  HEM153      0.0000
     20  CAB       12.2300    7.2300   -0.1090 C.2   153  HEM153      0.0000
     21  CBB       12.6480    7.5990   -1.3180 C.2   153  HEM153      0.0000
     22  C1C        8.2910    7.4530   -2.2850 C.2   153  HEM153      0.0000
     23  C2C        7.8320    8.6340   -3.0380 C.2   153  HEM153      0.0000
     24  C3C        6.5790    8.3780   -3.5030 C.2   153  HEM153      0.0000
     25  C4C        6.2360    7.0430   -3.0630 C.2   153  HEM153      0.0000
     26  CMC        8.6930    9.9070   -3.2170 C.3   153  HEM153      0.0000
     27  CAC        5.6130    9.2490   -4.3680 C.2   153  HEM153      0.0000
     28  CBC        6.0120   10.3750   -4.9630 C.2   153  HEM153      0.0000
     29  C1D        4.6940    5.1570   -2.9160 C.ar  153  HEM153      0.0000
     30  C2D        3.4960    4.4610   -3.3310 C.ar  153  HEM153      0.0000
     31  C3D        3.5060    3.1260   -2.6210 C.ar  153  HEM153      0.0000
     32  C4D        4.6810    3.1520   -1.7740 C.ar  153  HEM153      0.0000
     33  CMD        2.4530    5.1310   -4.2570 C.3   153  HEM153      0.0000
     34  CAD        2.6040    1.8770   -2.8910 C.3   153  HEM153      0.0000
     35  CBD        1.6750    1.6970   -1.7070 C.3   153  HEM153      0.0000
     36  CGD        0.6980    2.8130   -1.8720 C.2   153  HEM153      0.0000
     37  O1D       -0.1640    2.7070   -2.7900 O.co2 153  HEM153      0.0000
     38  O2D        0.8240    3.8010   -1.1040 O.co2 153  HEM153      0.0000
     39  NA         7.1090    3.1300    0.0290 N.2   153  HEM153      0.0000
     40  NB         9.0010    5.3210   -0.3000 N.ar  153  HEM153      0.0000
     41  NC         7.2900    6.5170   -2.3280 N.2   153  HEM153      0.0000
     42  ND         5.3190    4.3720   -1.9490 N.ar  153  HEM153      0.0000
     43 FE          7.2290    4.7950   -1.2090 Fe    153  HEM153      0.0000
@<TRIPOS>BOND
     1    28    27    2
     2    27    24    1
     3    33    30    1
     4    24    25    1
     5    24    23    2
     6    30    29   ar
     7    30    31   ar
     8     4    25    1
     9     4    29    2
    10    26    23    1
    11    25    41    2
    12    23    22    1
    13    29    42   ar
    14    34    31    1
    15    34    35    1
    16    37    36   ar
    17    31    32   ar
    18    41    22    1
    19    41    43    1
    20    22     3    2
    21    42    32   ar
    22    42    43    1
    23    36    35    1
    24    36    38   ar
    25    32     1    2
    26     3    18    1
    27    21    20    2
    28    43    40    1
    29    43    39    1
    30    14    12   ar
    31     1     5    1
    32    18    40   ar
    33    18    17   ar
    34    40    15   ar
    35    20    17    1
    36    39     5    2
    37    39     8    1
    38     5     6    1
    39    17    16   ar
    40    12    11    1
    41    12    13   ar
    42    11    10    1
    43    15    16   ar
    44    15     2    1
    45    16    19    1
    46     8     2    2
    47     8     7    1
    48     6    10    1
    49     6     7    2
    50     7     9    1
