@<TRIPOS>MOLECULE
3arn_MSJ_A_1.pdb
 26 27 0 0 0
SMALL
GASTEIGER

@<TRIPOS>ATOM
      1  O1        -3.5960   31.7470   32.6610 O.2   165  MSJ165     -0.2085
      2  C2        -4.6950   32.1620   32.1900 C.1   165  MSJ165      0.2182
      3  N3        -5.7710   31.3220   32.1430 N.2   165  MSJ165     -0.2452
      4  C4        -6.9330   31.6750   31.5900 C.1   165  MSJ165      0.2845
      5  N5        -7.0690   32.9470   31.0670 N.am  165  MSJ165     -0.1753
      6  C6        -5.9960   33.7610   31.1140 C.2   165  MSJ165      0.0930
      7  C7        -4.7660   33.4630   31.6820 C.2   165  MSJ165      0.1242
      8  O8        -7.9030   30.8900   31.5670 O.2   165  MSJ165     -0.1918
      9  C9        -8.3610   33.3590   30.4630 C.3   165  MSJ165      0.2554
     10  C10       -6.4710   33.0180   24.8770 C.3   165  MSJ165      0.0828
     11  O10       -8.1460   33.4560   29.0180 O.3   165  MSJ165     -0.3336
     12  C11       -8.0110   32.1370   28.3850 C.3   165  MSJ165      0.1443
     13  C12       -8.0160   32.3500   26.8720 C.3   165  MSJ165      0.0336
     14  S12       -5.0550   30.6790   24.8250 S.O2  165  MSJ165      0.0767
     15  C13       -6.7630   33.1990   26.4010 C.3   165  MSJ165      0.0205
     16  O13       -5.0780   29.4730   24.1320 O.2   165  MSJ165     -0.1516
     17  C14       -4.8230   30.4180   26.4010 C.ar  165  MSJ165      0.1235
     18  C15       -5.7570   29.5600   27.0010 C.ar  165  MSJ165      0.0200
     19  C16       -5.7300   29.2090   28.3720 C.ar  165  MSJ165      0.0014
     20  C17       -4.7740   29.7850   29.1870 C.ar  165  MSJ165      0.0001
     21  N17       -6.1930   31.6530   24.4080 N.3   165  MSJ165     -0.0807
     22  C18       -3.8520   30.6800   28.5810 C.ar  165  MSJ165      0.0014
     23  O19       -3.9180   31.3580   24.4530 O.2   165  MSJ165     -0.1516
     24  C20       -3.8530   30.9910   27.2150 C.ar  165  MSJ165      0.0200
     25  C25       -5.3010   33.9730   24.5600 C.3   165  MSJ165      0.0194
     26  C26       -7.7030   33.5400   24.0860 C.3   165  MSJ165      0.0194
@<TRIPOS>BOND
     1    26    10    1
     2    16    14    2
     3    21    14    1
     4    21    10    1
     5    23    14    2
     6    25    10    1
     7    14    17    1
     8    10    15    1
     9    15    13    1
    10    17    18   ar
    11    17    24   ar
    12    13    12    1
    13    18    19   ar
    14    24    22   ar
    15    19    20   ar
    16    12    11    1
    17    22    20   ar
    18    11     9    1
    19     9     5    1
    20     5     6    1
    21     5     4   am
    22     6     7    2
    23     8     4    2
    24     4     3    2
    25     7     2    1
    26     3     2    2
    27     2     1    2
