@<TRIPOS>MOLECULE
3arp_DEQ_A_1.pdb
 34 37 0 0 0
SMALL
GASTEIGER

@<TRIPOS>ATOM
      1  C1         9.0850   -8.0530   30.0430 C.2   606  DEQ606     -0.0022
      2  C2         8.4490   -9.0840   30.6940 C.2   606  DEQ606     -0.0026
      3  C3         7.7220   -8.7950   31.8640 C.2   606  DEQ606     -0.0005
      4  C4         7.6750   -7.4440   32.4090 C.2   606  DEQ606     -0.0010
      5  C5         9.0630   -6.7670   30.5360 C.3   606  DEQ606      0.1190
      6  C6         8.4020   -6.4350   31.7420 C.2   606  DEQ606      0.0166
      7  C7         8.3690   -5.1060   32.1870 C.2   606  DEQ606      0.0879
      8  C8         9.0400   -4.1070   31.5050 C.2   606  DEQ606      0.0279
      9  C9         9.7420   -4.4320   30.3440 C.2   606  DEQ606      0.0269
     10  N1         9.7700   -5.7550   29.8520 N.pl3 606  DEQ606     -0.3050
     11  C10       20.2190  -10.0840   21.7800 C.2   606  DEQ606      0.0166
     12  C11       18.9390   -9.6710   22.2570 C.3   606  DEQ606      0.1190
     13  N2        17.7780   -9.9610   21.5400 N.pl3 606  DEQ606     -0.3050
     14  C12       17.8440  -10.5580   20.2500 C.2   606  DEQ606      0.0269
     15  C13       19.1010  -10.9110   19.8030 C.2   606  DEQ606      0.0279
     16  C14       20.2700  -10.6490   20.5210 C.2   606  DEQ606      0.0879
     17  C15       21.3490   -9.8090   22.4880 C.2   606  DEQ606     -0.0010
     18  C16       21.2610   -9.1750   23.7020 C.2   606  DEQ606     -0.0005
     19  C17       20.0370   -8.7800   24.1710 C.2   606  DEQ606     -0.0026
     20  C18       18.8710   -9.0140   23.5180 C.2   606  DEQ606     -0.0022
     21  C19       16.3950   -9.6810   21.9960 C.3   606  DEQ606      0.0910
     22  C20       15.9590   -8.2140   21.8590 C.3   606  DEQ606      0.0214
     23  C21       15.1700   -7.9340   23.1560 C.3   606  DEQ606      0.0018
     24  C22       13.8110   -8.5140   22.9920 C.3   606  DEQ606      0.0001
     25  C23       12.9850   -8.0970   24.2650 C.3   606  DEQ606      0.0000
     26  C24       11.8670   -7.0420   23.8940 C.3   606  DEQ606      0.0000
     27  C25       10.7280   -6.8330   24.9630 C.3   606  DEQ606      0.0001
     28  C26       11.2760   -6.7360   26.4720 C.3   606  DEQ606      0.0018
     29  C27       10.0350   -6.4500   27.4320 C.3   606  DEQ606      0.0214
     30  C28       10.6970   -6.0380   28.6690 C.3   606  DEQ606      0.0910
     31  C30       10.4820   -3.3100   29.5890 C.3   606  DEQ606      0.0471
     32  C29       16.5700  -10.9650   19.4130 C.3   606  DEQ606      0.0471
     33  N4         7.6460   -4.7930   33.3160 N.pl3 606  DEQ606     -0.1283
     34  N3        21.3930  -11.0450   19.9050 N.pl3 606  DEQ606     -0.1283
@<TRIPOS>BOND
     1    32    14    1
     2    15    14    2
     3    15    16    1
     4    34    16    1
     5    14    13    1
     6    16    11    2
     7    13    21    1
     8    13    12    1
     9    11    12    1
    10    11    17    1
    11    22    21    1
    12    22    23    1
    13    12    20    1
    14    17    18    2
    15    24    23    1
    16    24    25    1
    17    20    19    2
    18    18    19    1
    19    26    25    1
    20    26    27    1
    21    27    28    1
    22    28    29    1
    23    29    30    1
    24    30    10    1
    25    31     9    1
    26    10     9    1
    27    10     5    1
    28     1     5    1
    29     1     2    2
    30     9     8    2
    31     5     6    1
    32     2     3    1
    33     8     7    1
    34     6     7    2
    35     6     4    1
    36     3     4    2
    37     7    33    1
