@<TRIPOS>MOLECULE
3arq_DM5_A_1.pdb
 36 40 0 0 0
SMALL
GASTEIGER

@<TRIPOS>ATOM
      1  C1        13.6650   -8.1280   23.8360 C.ar  606  DM5606      0.0033
      2  C2        13.5570   -7.4830   25.0980 C.ar  606  DM5606      0.0001
      3  C3        14.6690   -7.1790   25.8780 C.ar  606  DM5606      0.0001
      4  C4        15.9360   -7.5620   25.4180 C.ar  606  DM5606      0.0033
      5  C5        16.0720   -8.2170   24.1610 C.ar  606  DM5606      0.0421
      6  C6        17.3320   -8.5790   23.6900 C.2   606  DM5606      0.1986
      7  O6        18.3600   -8.3490   24.3480 O.2   606  DM5606     -0.2865
      8  C7        17.4560   -9.2270   22.4290 C.2   606  DM5606      0.0801
      9  C8        18.7540   -9.6240   22.0200 C.2   606  DM5606      0.1821
     10  O8        19.6710   -9.3510   22.8170 O.2   606  DM5606     -0.2908
     11  C9        18.8630  -10.2990   20.7810 C.3   606  DM5606      0.1107
     12  C10       20.2630  -10.7800   20.3350 C.3   606  DM5606      0.1317
     13  O10       20.4530  -11.9750   21.2510 O.3   606  DM5606     -0.3321
     14  C11       20.3860  -11.4810   18.9610 C.3   606  DM5606      0.0683
     15  C12       19.1070  -12.2530   18.5360 C.3   606  DM5606      0.1833
     16  O12       19.0600  -13.4020   19.5050 O.3   606  DM5606     -0.2177
     17  C13       19.1400  -12.7500   17.0730 C.2   606  DM5606      0.1787
     18  O13       19.1010  -13.9690   16.8580 O.2   606  DM5606     -0.2935
     19  C14       19.2810  -11.7650   15.8590 C.3   606  DM5606      0.0749
     20  C15       17.8910  -11.3320   18.6420 C.3   606  DM5606      0.0634
     21  C16       17.7660  -10.5720   20.0090 C.2   606  DM5606      0.0070
     22  C17       16.5080  -10.1970   20.4120 C.2   606  DM5606      0.1916
     23  O17       15.4520  -10.5560   19.6330 O.2   606  DM5606     -0.2871
     24  C18       16.3650   -9.5290   21.6630 C.2   606  DM5606      0.0831
     25  C19       15.1030   -9.1460   22.1430 C.2   606  DM5606      0.1989
     26  O19       14.0650   -9.4200   21.5120 O.2   606  DM5606     -0.2865
     27  C20       14.9530   -8.4870   23.3780 C.ar  606  DM5606      0.0421
     28  C1'       21.7050  -11.8310   22.0250 C.3   606  DM5606      0.2366
     29  C2'       21.6640  -12.8690   23.2270 C.3   606  DM5606      0.0830
     30  C3'       21.7720  -14.2990   22.6310 C.3   606  DM5606      0.1295
     31  N3'       21.7530  -15.3340   23.7150 N.3   606  DM5606     -0.1300
     32  C4'       23.0380  -14.4680   21.7430 C.3   606  DM5606      0.1965
     33  O4'       24.2240  -14.3440   22.5750 O.3   606  DM5606     -0.2190
     34  C5'       23.0240  -13.4230   20.5890 C.3   606  DM5606      0.1495
     35  O5'       22.7920  -12.0470   21.0520 O.3   606  DM5606     -0.3303
     36  C6'       24.3110  -13.4290   19.7090 C.3   606  DM5606      0.0349
@<TRIPOS>BOND
     1    19    17    1
     2    18    17    2
     3    17    15    1
     4    15    20    1
     5    15    14    1
     6    15    16    1
     7    20    21    1
     8    14    12    1
     9    23    22    1
    10    36    34    1
    11    21    22    2
    12    21    11    1
    13    12    11    1
    14    12    13    1
    15    22    24    1
    16    34    35    1
    17    34    32    1
    18    11     9    1
    19    35    28    1
    20    13    28    1
    21    26    25    2
    22    24    25    1
    23    24     8    2
    24    32    33    1
    25    32    30    1
    26     9     8    1
    27     9    10    2
    28    28    29    1
    29    25    27    1
    30     8     6    1
    31    30    29    1
    32    30    31    1
    33    27     1   ar
    34    27     5   ar
    35     6     5    1
    36     6     7    2
    37     1     2   ar
    38     5     4   ar
    39     2     3   ar
    40     4     3   ar
