@<TRIPOS>MOLECULE
3arr_PNX_A_1.pdb
 20 21 0 0 0
SMALL
GASTEIGER

@<TRIPOS>ATOM
      1  CAA       -3.8740   -4.6480    1.4710 C.3   606  PNX606      0.0722
      2  CAM       -4.5260   -5.4420    2.5370 C.2   606  PNX606      0.1511
      3  OAD       -4.9330   -4.9340    3.5680 O.2   606  PNX606     -0.2960
      4  CAJ       -4.6190   -6.9250    2.2560 C.3   606  PNX606      0.0646
      5  CAH       -5.5250   -7.7640    3.0860 C.3   606  PNX606      0.0095
      6  CAI       -5.0270   -9.2130    2.8430 C.3   606  PNX606      0.0226
      7  CAK       -5.1150   -9.6490    1.3820 C.3   606  PNX606      0.1047
      8  N1        -5.3180  -11.1670    1.2920 N.am  606  PNX606     -0.1921
      9  C6        -4.2390  -12.0330    1.3250 C.2   606  PNX606      0.2609
     10  O6        -3.0700  -11.6690    1.4390 O.2   606  PNX606     -0.2723
     11  C5        -4.5030  -13.3880    1.2140 C.3   606  PNX606      0.2453
     12  N7        -3.7000  -14.3700    1.2480 N.3   606  PNX606     -0.2098
     13  CAB       -2.2430  -14.1340    1.4030 C.3   606  PNX606      0.0945
     14  C8        -4.4170  -15.5300    1.0830 C.3   606  PNX606      0.3428
     15  N9        -5.7420  -15.2370    0.9740 N.2   606  PNX606     -0.0479
     16  C4        -5.7720  -13.9160    1.0980 C.2   606  PNX606      0.3276
     17  N3        -6.8230  -13.1190    1.0470 N.am  606  PNX606     -0.1218
     18  CAC       -8.1490  -13.7810    0.9090 C.3   606  PNX606      0.2626
     19  C2        -6.6310  -11.7590    1.2050 C.2   606  PNX606      0.4044
     20  O2        -7.6060  -11.0530    1.1080 O.2   606  PNX606     -0.2230
@<TRIPOS>BOND
     1    18    17    1
     2    15    14    1
     3    15    16    2
     4    17    16    1
     5    17    19   am
     6    14    12    1
     7    16    11    1
     8    20    19    2
     9    19     8   am
    10    11    12    1
    11    11     9    1
    12    12    13    1
    13     8     9   am
    14     8     7    1
    15     9    10    2
    16     7     6    1
    17     1     2    1
    18     4     2    1
    19     4     5    1
    20     2     3    2
    21     6     5    1
