@<TRIPOS>MOLECULE
3art_DEQ_A_1.pdb
 34 37 0 0 0
SMALL
GASTEIGER

@<TRIPOS>ATOM
      1  C1        -2.4120    7.4870   19.2270 C.2   606  DEQ606     -0.0022
      2  C2        -1.1240    7.1780   18.7170 C.2   606  DEQ606     -0.0026
      3  C3        -0.3210    6.2000   19.3190 C.2   606  DEQ606     -0.0005
      4  C4        -0.8240    5.5370   20.4400 C.2   606  DEQ606     -0.0010
      5  C5        -2.9280    6.8220   20.3680 C.3   606  DEQ606      0.1190
      6  C6        -2.1090    5.8350   20.9600 C.2   606  DEQ606      0.0166
      7  C7        -2.5700    5.1540   22.0860 C.2   606  DEQ606      0.0879
      8  C8        -3.8280    5.4390   22.6370 C.2   606  DEQ606      0.0279
      9  C9        -4.6940    6.4060   22.0950 C.2   606  DEQ606      0.0269
     10  N1        -4.2450    7.1440   20.9220 N.pl3 606  DEQ606     -0.3050
     11  C10       -1.9670    7.7730   24.7270 C.2   606  DEQ606      0.0166
     12  C11       -3.0900    8.6410   24.5710 C.3   606  DEQ606      0.1190
     13  N2        -3.1800    9.4950   23.3740 N.pl3 606  DEQ606     -0.3050
     14  C12       -2.1420    9.4150   22.3980 C.2   606  DEQ606      0.0269
     15  C13       -1.0540    8.5630   22.6020 C.2   606  DEQ606      0.0279
     16  C14       -0.9620    7.7470   23.7290 C.2   606  DEQ606      0.0879
     17  C15       -1.8370    6.9450   25.8710 C.2   606  DEQ606     -0.0010
     18  C16       -2.8060    6.9580   26.8710 C.2   606  DEQ606     -0.0005
     19  C17       -3.9210    7.8100   26.7230 C.2   606  DEQ606     -0.0026
     20  C18       -4.0660    8.6390   25.5950 C.2   606  DEQ606     -0.0022
     21  C19       -4.3070   10.4630   23.0130 C.3   606  DEQ606      0.0910
     22  C20       -4.9740   11.2930   24.1250 C.3   606  DEQ606      0.0214
     23  C21       -6.4120   11.6990   23.7400 C.3   606  DEQ606      0.0018
     24  C22       -6.5120   12.9560   22.8400 C.3   606  DEQ606      0.0001
     25  C23       -6.7580   12.5960   21.3570 C.3   606  DEQ606      0.0000
     26  C24       -8.1680   12.0080   21.1080 C.3   606  DEQ606      0.0000
     27  C25       -8.1810   10.5130   20.6580 C.3   606  DEQ606      0.0001
     28  C26       -6.8340   10.0140   20.0770 C.3   606  DEQ606      0.0018
     29  C27       -6.2620    8.8630   20.9260 C.3   606  DEQ606      0.0214
     30  C28       -5.0570    8.2200   20.1990 C.3   606  DEQ606      0.0910
     31  C30       -6.0710    6.6030   22.8140 C.3   606  DEQ606      0.0471
     32  C29       -2.1710   10.2710   21.0990 C.3   606  DEQ606      0.0471
     33  N4        -1.7960    4.2210   22.6500 N.pl3 606  DEQ606     -0.1283
     34  N3         0.1260    6.9470   23.8250 N.pl3 606  DEQ606     -0.1283
@<TRIPOS>BOND
     1     2     1    2
     2     2     3    1
     3     1     5    1
     4     3     4    2
     5    28    27    1
     6    28    29    1
     7    30    10    1
     8    30    29    1
     9     5    10    1
    10     5     6    1
    11     4     6    1
    12    27    26    1
    13    10     9    1
    14     6     7    2
    15    32    14    1
    16    26    25    1
    17    25    24    1
    18     7     8    1
    19     7    33    1
    20     9     8    2
    21     9    31    1
    22    14    15    2
    23    14    13    1
    24    15    16    1
    25    24    23    1
    26    21    13    1
    27    21    22    1
    28    13    12    1
    29    16    34    1
    30    16    11    2
    31    23    22    1
    32    12    11    1
    33    12    20    1
    34    11    17    1
    35    20    19    2
    36    17    18    2
    37    19    18    1
