@<TRIPOS>MOLECULE
3aru_PNX_A_1.pdb
 20 21 0 0 0
SMALL
GASTEIGER

@<TRIPOS>ATOM
      1  CAA        0.0080   11.3070   12.5930 C.3   606  PNX606      0.0722
      2  CAM       -0.2810   11.6970   14.0210 C.2   606  PNX606      0.1511
      3  OAD       -0.4630   12.8800   14.2940 O.2   606  PNX606     -0.2960
      4  CAJ       -0.3970   10.5890   15.1230 C.3   606  PNX606      0.0646
      5  CAH       -0.8910   11.1750   16.4570 C.3   606  PNX606      0.0095
      6  CAI       -0.8110   10.0260   17.5150 C.3   606  PNX606      0.0226
      7  CAK       -1.4910    8.6740   17.0680 C.3   606  PNX606      0.1047
      8  N1        -1.6900    7.7910   18.2980 N.am  606  PNX606     -0.1921
      9  C6        -2.8830    7.8860   19.0530 C.2   606  PNX606      0.2609
     10  O6        -3.7630    8.6670   18.6890 O.2   606  PNX606     -0.2723
     11  C5        -3.0170    7.0790   20.2120 C.3   606  PNX606      0.2453
     12  N7        -4.0130    6.9290   21.1020 N.3   606  PNX606     -0.2098
     13  CAB       -5.3040    7.6760   21.0500 C.3   606  PNX606      0.0945
     14  C8        -3.6560    6.0100   22.0180 C.3   606  PNX606      0.3428
     15  N9        -2.4160    5.5500   21.7210 N.2   606  PNX606     -0.0479
     16  C4        -1.9960    6.1840   20.6110 C.2   606  PNX606      0.3276
     17  N3        -0.7920    6.1000   19.8810 N.am  606  PNX606     -0.1218
     18  CAC        0.3360    5.1650   20.2710 C.3   606  PNX606      0.2626
     19  C2        -0.6440    6.9130   18.7670 C.2   606  PNX606      0.4044
     20  O2         0.4020    6.8180   18.1430 O.2   606  PNX606     -0.2230
@<TRIPOS>BOND
     1     1     2    1
     2     2     3    2
     3     2     4    1
     4     4     5    1
     5     5     6    1
     6     7     6    1
     7     7     8    1
     8    20    19    2
     9     8    19   am
    10     8     9   am
    11    10     9    2
    12    19    17   am
    13     9    11    1
    14    17    18    1
    15    17    16    1
    16    11    16    1
    17    11    12    1
    18    16    15    2
    19    13    12    1
    20    12    14    1
    21    15    14    1
