@<TRIPOS>MOLECULE
3arv_SAU_A_1.pdb
 25 30 0 0 0
SMALL
GASTEIGER

@<TRIPOS>ATOM
      1  N         18.3200   -8.9040   23.7780 N.pl3 606  SAU606     -0.2843
      2  C1        23.2950  -11.5750   21.0070 C.3   606  SAU606      0.4294
      3  O1        22.6980  -10.6800   22.0770 O.3   606  SAU606     -0.4346
      4  C2        21.1900  -10.9900   20.3930 C.ar  606  SAU606      0.1764
      5  O2        22.3770  -11.4870   19.8460 O.3   606  SAU606     -0.4346
      6  C3        21.3810  -10.5200   21.7070 C.ar  606  SAU606      0.1765
      7  O3        12.8560   -7.2870   25.2300 O.3   606  SAU606     -0.4346
      8  C4        19.9360  -10.9210   19.7950 C.ar  606  SAU606      0.0399
      9  O4        14.9520   -7.4060   26.0280 O.3   606  SAU606     -0.4346
     10  C5        18.8590  -10.3980   20.5130 C.ar  606  SAU606      0.0005
     11  C6        19.0680   -9.9360   21.7860 C.ar  606  SAU606      0.0162
     12  C7        20.3330   -9.9850   22.3840 C.ar  606  SAU606      0.0414
     13  C8        17.5680  -10.3260   19.9630 C.2   606  SAU606     -0.0212
     14  C9        16.4630   -9.8330   20.6850 C.3   606  SAU606      0.0536
     15  C10       18.0210   -9.3880   22.4760 C.2   606  SAU606      0.0480
     16  C12       17.2390   -8.4460   24.5270 C.2   606  SAU606      0.0685
     17  C13       15.9690   -8.4050   23.9660 C.ar  606  SAU606      0.0517
     18  C14       15.7050   -8.8310   22.6700 C.ar  606  SAU606      0.0019
     19  C15       16.7330   -9.3420   21.9510 C.2   606  SAU606     -0.0040
     20  C18       14.4240   -8.8470   22.1500 C.ar  606  SAU606      0.0031
     21  C19       13.3760   -8.2970   22.9220 C.ar  606  SAU606      0.0402
     22  C20       13.6390   -7.8390   24.2300 C.ar  606  SAU606      0.1765
     23  C21       14.9290   -7.9000   24.7410 C.ar  606  SAU606      0.1776
     24  C23       13.5550   -7.4700   26.4510 C.3   606  SAU606      0.4294
     25  C25       19.6930   -9.0400   24.3500 C.3   606  SAU606      0.1173
@<TRIPOS>BOND
     1     8     4   ar
     2     8    10   ar
     3     5     4    1
     4     5     2    1
     5    13    10    2
     6    13    14    1
     7     4     6   ar
     8    10    11   ar
     9    14    19    1
    10     2     3    1
    11     6     3    1
    12     6    12   ar
    13    11    12   ar
    14    11    15    2
    15    19    15    1
    16    19    18    2
    17    20    18   ar
    18    20    21   ar
    19    15     1    1
    20    18    17   ar
    21    21    22   ar
    22     1    25    1
    23     1    16    1
    24    17    16    2
    25    17    23   ar
    26    22    23   ar
    27    22     7    1
    28    23     9    1
    29     7    24    1
    30     9    24    1
