@<TRIPOS>MOLECULE
3arw_CTI_A_1.pdb
 26 30 0 0 0
SMALL
GASTEIGER

@<TRIPOS>ATOM
      1  C1        20.1890   -9.9140   22.4820 C.ar  606  CTI606      0.0414
      2  C2        18.9240   -9.8270   21.8590 C.ar  606  CTI606      0.0162
      3  C3        18.7580  -10.3610   20.6010 C.ar  606  CTI606      0.0005
      4  C4        19.8780  -10.9420   19.9770 C.ar  606  CTI606      0.0399
      5  C5        17.8610   -9.2610   22.5420 C.2   606  CTI606      0.0480
      6  C6        16.5700   -9.2070   22.0010 C.2   606  CTI606     -0.0040
      7  C7        16.4010   -9.7470   20.7270 C.3   606  CTI606      0.0536
      8  C8        17.4960  -10.3030   20.0150 C.2   606  CTI606     -0.0212
      9  N9        18.1220   -8.7860   23.8460 N.pl3 606  CTI606     -0.2843
     10  C10       15.5240   -8.6440   22.7540 C.ar  606  CTI606      0.0019
     11  C11       15.8040   -8.1510   24.0490 C.ar  606  CTI606      0.0516
     12  C12       17.0780   -8.2330   24.5790 C.2   606  CTI606      0.0685
     13  C13       19.4750   -8.8530   24.4730 C.3   606  CTI606      0.1173
     14  C14       13.5190   -7.4680   24.3400 C.ar  606  CTI606      0.1724
     15  C15       13.1960   -7.9430   23.0540 C.ar  606  CTI606      0.0400
     16  C16       14.2080   -8.5360   22.2820 C.ar  606  CTI606      0.0031
     17  C17       14.8100   -7.5700   24.8560 C.ar  606  CTI606      0.1735
     18  O18       15.0880   -7.0260   26.1210 O.3   606  CTI606     -0.4683
     19  C19       15.3140   -7.7360   27.3920 C.3   606  CTI606      0.2526
     20  O20       12.5720   -6.8750   25.1250 O.3   606  CTI606     -0.4684
     21  C21       12.3480   -7.5730   26.3720 C.3   606  CTI606      0.2526
     22  C22       21.2950  -10.4960   21.8670 C.ar  606  CTI606      0.1765
     23  C23       21.1370  -11.0040   20.5780 C.ar  606  CTI606      0.1764
     24  O24       22.6220  -10.6540   22.2710 O.3   606  CTI606     -0.4346
     25  C25       23.2140  -11.6110   21.3230 C.3   606  CTI606      0.4294
     26  O26       22.3630  -11.4930   20.1450 O.3   606  CTI606     -0.4346
@<TRIPOS>BOND
     1     4    23   ar
     2     4     3   ar
     3     8     3    2
     4     8     7    1
     5    26    23    1
     6    26    25    1
     7    23    22   ar
     8     3     2   ar
     9     7     6    1
    10    25    24    1
    11     2     1   ar
    12     2     5    2
    13    22    24    1
    14    22     1   ar
    15     6     5    1
    16     6    10    2
    17    16    10   ar
    18    16    15   ar
    19     5     9    1
    20    10    11   ar
    21    15    14   ar
    22     9    13    1
    23     9    12    1
    24    11    12    2
    25    11    17   ar
    26    14    17   ar
    27    14    20    1
    28    17    18    1
    29    20    21    1
    30    18    19    1
