@<TRIPOS>MOLECULE
3arx_POY_A_1.pdb
 22 23 0 0 0
SMALL
GASTEIGER

@<TRIPOS>ATOM
      1  N1        18.6050  -11.0460   19.5070 N.am  606  POY606     -0.1921
      2  C2        17.7710  -10.1930   20.1530 C.2   606  POY606      0.2609
      3  C3        18.2430   -9.6350   21.3400 C.3   606  POY606      0.2452
      4  C4        19.4970   -9.8800   21.8250 C.2   606  POY606      0.3276
      5  N5        20.3340  -10.7510   21.2020 N.am  606  POY606     -0.1218
      6  C6        19.9000  -11.3380   20.0300 C.2   606  POY606      0.4044
      7  N7        17.7600   -8.7540   22.2020 N.3   606  POY606     -0.2112
      8  C8        18.7130   -8.5680   23.2450 C.3   606  POY606      0.3428
      9  N9        19.7830   -9.2180   23.0080 N.2   606  POY606     -0.0479
     10  C10       18.1300  -11.7040   18.2110 C.3   606  POY606      0.1047
     11  C11       17.3990  -13.0380   18.5360 C.3   606  POY606      0.0222
     12  C12       17.4380  -14.1100   17.3390 C.3   606  POY606      0.0044
     13  C13       16.8140  -13.2980   16.1610 C.3   606  POY606      0.0329
     14  C14       16.6410  -14.1580   14.9440 C.3   606  POY606      0.1521
     15  C15       16.8370  -15.5300   15.0160 C.3   606  POY606      0.0355
     16  O16       16.1210  -13.6430   13.8760 O.3   606  POY606     -0.2231
     17  O17       16.6050  -10.0590   19.7440 O.2   606  POY606     -0.2723
     18  O18       20.6550  -12.1120   19.4180 O.2   606  POY606     -0.2230
     19  C19       21.6680  -10.9920   21.8710 C.3   606  POY606      0.2626
     20  C20       16.4580   -8.1840   22.0690 C.3   606  POY606      0.0771
     21  C21       15.3960   -8.9200   22.8640 C.3   606  POY606      0.0175
     22  C22       13.9460   -8.3970   22.8470 C.3   606  POY606      0.0015
@<TRIPOS>BOND
     1    16    14    1
     2    14    15    1
     3    14    13    1
     4    13    12    1
     5    12    11    1
     6    10    11    1
     7    10     1    1
     8    18     6    2
     9     1     6   am
    10     1     2   am
    11    17     2    2
    12     6     5   am
    13     2     3    1
    14     5     4    1
    15     5    19    1
    16     3     4    1
    17     3     7    1
    18     4     9    2
    19    20     7    1
    20    20    21    1
    21     7     8    1
    22    22    21    1
    23     9     8    1
