@<TRIPOS>MOLECULE
3ary_I5I_A_1.pdb
 17 19 0 0 0
SMALL
GASTEIGER

@<TRIPOS>ATOM
      1  C1        14.0610   -7.8490   23.9780 C.ar  606  I5I606      0.0822
      2  C2        15.4410   -7.9020   24.0520 C.ar  606  I5I606      0.0223
      3  C3        16.1020   -8.6000   23.0670 C.ar  606  I5I606      0.0398
      4  C4        15.4320   -9.2490   22.0120 C.ar  606  I5I606      0.1464
      5  C5        14.0680   -9.2030   21.9740 C.ar  606  I5I606      0.0391
      6  C6        13.3640   -8.4790   22.9420 C.ar  606  I5I606      0.0222
      7  C7        17.3950   -8.7960   22.8920 C.ar  606  I5I606      0.0510
      8  C8        17.5340   -9.5030   21.7780 C.ar  606  I5I606      0.2067
      9  O9        16.3690   -9.8100   21.1840 O.2   606  I5I606     -0.4436
     10  C10       18.6910   -9.9940   21.2870 C.1   606  I5I606      0.0713
     11  N11       18.7630  -10.6620   20.1330 N.2   606  I5I606     -0.1881
     12  C12       20.1740  -11.1900   20.0320 C.2   606  I5I606      0.1311
     13  C13       20.9100  -10.7770   21.3290 C.2   606  I5I606      0.1311
     14  N14       19.8480  -10.0360   22.0560 N.2   606  I5I606     -0.1881
     15  N15       13.3970   -7.2030   24.9130 N.2   606  I5I606     -0.2363
     16  C16       13.4640   -7.6580   26.1450 C.2   606  I5I606      0.1408
     17  S17       12.6170   -6.9650   27.3720 S.3   606  I5I606     -0.0280
@<TRIPOS>BOND
     1    12    11    1
     2    12    13    2
     3    11    10    2
     4     9     8   ar
     5     9     4   ar
     6    10     8    1
     7    10    14    2
     8    13    14    1
     9     8     7   ar
    10     5     4   ar
    11     5     6   ar
    12     4     3   ar
    13     7     3   ar
    14     6     1   ar
    15     3     2   ar
    16     1     2   ar
    17     1    15    1
    18    15    16    2
    19    16    17    1
