@<TRIPOS>MOLECULE
3arz_I5I_A_1.pdb
 17 19 0 0 0
SMALL
GASTEIGER

@<TRIPOS>ATOM
      1  C1        -1.0570  -15.2870    1.6010 C.ar  606  I5I606      0.0822
      2  C2        -2.3600  -15.7660    1.3450 C.ar  606  I5I606      0.0223
      3  C3        -3.4470  -14.8650    1.2950 C.ar  606  I5I606      0.0398
      4  C4        -3.2160  -13.4990    1.4960 C.ar  606  I5I606      0.1464
      5  C5        -1.9430  -13.0270    1.7550 C.ar  606  I5I606      0.0391
      6  C6        -0.8830  -13.9170    1.8090 C.ar  606  I5I606      0.0222
      7  C7        -4.7790  -15.0140    1.0900 C.ar  606  I5I606      0.0510
      8  C8        -5.3970  -13.8070    1.1530 C.ar  606  I5I606      0.2067
      9  O9        -4.4220  -12.8530    1.4090 O.2   606  I5I606     -0.4436
     10  C10       -6.7750  -13.4520    1.0420 C.1   606  I5I606      0.0713
     11  N11       -7.2430  -12.1870    1.0750 N.2   606  I5I606     -0.1881
     12  C12       -8.7270  -12.1260    1.0170 C.2   606  I5I606      0.1311
     13  C13       -9.1270  -13.6040    1.0380 C.2   606  I5I606      0.1311
     14  N14       -7.8210  -14.3080    1.1040 N.2   606  I5I606     -0.1881
     15  N15        0.0310  -16.1050    1.6690 N.2   606  I5I606     -0.2363
     16  C16        0.9180  -15.9430    2.6640 C.2   606  I5I606      0.1408
     17  S17        2.3170  -16.8890    2.9820 S.3   606  I5I606     -0.0280
@<TRIPOS>BOND
     1    12    13    2
     2    12    11    1
     3    13    14    1
     4    10    11    2
     5    10    14    2
     6    10     8    1
     7     7     8   ar
     8     7     3   ar
     9     8     9   ar
    10     3     2   ar
    11     3     4   ar
    12     2     1   ar
    13     9     4   ar
    14     4     5   ar
    15     1    15    1
    16     1     6   ar
    17    15    16    2
    18     5     6   ar
    19    16    17    1
