@<TRIPOS>MOLECULE
3as0_SAU_A_1.pdb
 25 30 0 0 0
SMALL
GASTEIGER

@<TRIPOS>ATOM
      1  N         -4.5200    7.9810   20.4770 N.pl3 606  SAU606     -0.2843
      2  C1         1.5410    6.0380   19.0800 C.3   606  SAU606      0.4291
      3  O1         0.2520    6.5670   18.6160 O.2   606  SAU606     -0.4387
      4  C2        -0.0500    5.3230   20.4650 C.2   606  SAU606      0.1726
      5  O2         1.1930    4.9510   19.9980 O.2   606  SAU606     -0.4350
      6  C3        -0.6050    6.3020   19.6290 C.2   606  SAU606      0.1583
      7  O3        -9.6260    8.7200   23.5900 O.3   606  SAU606     -0.4346
      8  C4        -0.7880    4.8980   21.5850 C.2   606  SAU606      0.0396
      9  O4        -8.5680    9.4980   21.7370 O.3   606  SAU606     -0.4346
     10  C5        -2.0550    5.4330   21.8680 C.ar  606  SAU606      0.0008
     11  C6        -2.6140    6.4140   21.0270 C.ar  606  SAU606     -0.0008
     12  C7        -1.8620    6.8310   19.9140 C.3   606  SAU606      0.0948
     13  C8        -2.7360    4.9810   22.9880 C.ar  606  SAU606     -0.0001
     14  C9        -3.9930    5.5200   23.2770 C.ar  606  SAU606      0.0012
     15  C10       -3.8930    6.9680   21.3080 C.ar  606  SAU606      0.0480
     16  C12       -5.8080    8.4910   20.8390 C.2   606  SAU606      0.0685
     17  C13       -6.4750    8.0210   21.9900 C.ar  606  SAU606      0.0520
     18  C14       -5.8700    7.0270   22.8060 C.ar  606  SAU606      0.0056
     19  C15       -4.5890    6.5070   22.4590 C.ar  606  SAU606      0.0135
     20  C18       -6.5490    6.5620   23.9550 C.ar  606  SAU606      0.0034
     21  C19       -7.8090    7.0640   24.2980 C.ar  606  SAU606      0.0402
     22  C20       -8.4160    8.0460   23.4890 C.ar  606  SAU606      0.1765
     23  C21       -7.7540    8.5330   22.3310 C.ar  606  SAU606      0.1776
     24  C23       -9.4160    9.9760   22.8390 C.3   606  SAU606      0.4294
     25  C25       -3.8740    8.5450   19.2430 C.3   606  SAU606      0.1173
@<TRIPOS>BOND
     1     3     2    1
     2     3     6    1
     3     2     5    1
     4    25     1    1
     5     6    12    1
     6     6     4    2
     7    12    11    1
     8     5     4    1
     9     4     8    1
    10     1    16    1
    11     1    15    1
    12    16    17    2
    13    11    15   ar
    14    11    10   ar
    15    15    19   ar
    16     8    10    2
    17     9    23    1
    18     9    24    1
    19    10    13   ar
    20    17    23   ar
    21    17    18   ar
    22    23    22   ar
    23    19    18    2
    24    19    14   ar
    25    18    20   ar
    26    24     7    1
    27    13    14   ar
    28    22     7    1
    29    22    21   ar
    30    20    21   ar
