@<TRIPOS>MOLECULE
3as1_CTI_A_1.pdb
 26 30 0 0 0
SMALL
GASTEIGER

@<TRIPOS>ATOM
      1  C1        -1.7840    6.7500   20.1530 C.3   606  CTI606      0.0948
      2  C2        -2.6150    6.3670   21.2180 C.ar  606  CTI606     -0.0008
      3  C3        -2.1480    5.4110   22.1550 C.ar  606  CTI606      0.0008
      4  C4        -0.8710    4.8590   22.0060 C.2   606  CTI606      0.0396
      5  C5        -3.9020    6.9330   21.3490 C.ar  606  CTI606      0.0480
      6  C6        -4.7130    6.5180   22.4440 C.ar  606  CTI606      0.0135
      7  C7        -4.2190    5.5640   23.3670 C.ar  606  CTI606      0.0012
      8  C8        -2.9410    5.0100   23.2250 C.ar  606  CTI606     -0.0001
      9  N9        -4.4100    7.9070   20.4140 N.pl3 606  CTI606     -0.2843
     10  C10       -6.0140    7.0570   22.6140 C.ar  606  CTI606      0.0056
     11  C11       -6.4990    8.0080   21.6890 C.ar  606  CTI606      0.0519
     12  C12       -5.7010    8.4230   20.6100 C.2   606  CTI606      0.0685
     13  C13       -3.6640    8.4200   19.2260 C.3   606  CTI606      0.1173
     14  C14       -8.6000    8.1620   22.9270 C.ar  606  CTI606      0.1724
     15  C15       -8.1150    7.2070   23.8440 C.ar  606  CTI606      0.0400
     16  C16       -6.8330    6.6630   23.6920 C.ar  606  CTI606      0.0034
     17  C17       -7.7900    8.5520   21.8340 C.ar  606  CTI606      0.1735
     18  O18       -8.2400    9.4650   20.9060 O.3   606  CTI606     -0.4683
     19  C19       -8.7410    8.7690   19.7140 C.3   606  CTI606      0.2526
     20  O20       -9.8690    8.6910   23.0880 O.3   606  CTI606     -0.4684
     21  C21       -9.9940    9.9810   23.7870 C.3   606  CTI606      0.2526
     22  C22       -0.5160    6.2020   20.0100 C.2   606  CTI606      0.1583
     23  C23       -0.0500    5.2590   20.9370 C.2   606  CTI606      0.1726
     24  O24        0.4430    6.4190   19.0750 O.2   606  CTI606     -0.4387
     25  C25        1.6630    5.9000   19.6510 C.3   606  CTI606      0.4291
     26  O26        1.2210    4.8840   20.5760 O.2   606  CTI606     -0.4350
@<TRIPOS>BOND
     1    24    25    1
     2    24    22    1
     3    13     9    1
     4    25    26    1
     5    19    18    1
     6    22     1    1
     7    22    23    2
     8     1     2    1
     9     9    12    1
    10     9     5    1
    11    26    23    1
    12    12    11    2
    13    18    17    1
    14    23     4    1
    15     2     5   ar
    16     2     3   ar
    17     5     6   ar
    18    11    17   ar
    19    11    10   ar
    20    17    14   ar
    21     4     3    2
    22     3     8   ar
    23     6    10    2
    24     6     7   ar
    25    10    16   ar
    26    14    20    1
    27    14    15   ar
    28    20    21    1
    29     8     7   ar
    30    16    15   ar
