@<TRIPOS>MOLECULE
3as2_POY_A_1.pdb
 22 23 0 0 0
SMALL
GASTEIGER

@<TRIPOS>ATOM
      1  N1        -1.6390    7.6160   18.5800 N.am  606  POY606     -0.1921
      2  C2        -0.5910    6.7430   18.9880 C.2   606  POY606      0.2609
      3  C3        -0.6850    6.0480   20.1990 C.3   606  POY606      0.2452
      4  C4        -1.8250    6.2130   21.0330 C.2   606  POY606      0.3276
      5  N5        -2.9130    7.0960   20.6710 N.am  606  POY606     -0.1218
      6  C6        -2.8080    7.8020   19.4080 C.2   606  POY606      0.4044
      7  N7         0.1420    5.1870   20.8120 N.3   606  POY606     -0.2112
      8  C8        -0.4300    4.8140   21.9660 C.3   606  POY606      0.3428
      9  N9        -1.6170    5.4310   22.0990 N.2   606  POY606     -0.0479
     10  C10       -1.5140    8.3210   17.2810 C.3   606  POY606      0.1047
     11  C11       -0.9280    9.7080   17.4940 C.3   606  POY606      0.0226
     12  C12       -1.3590   10.6150   16.3420 C.3   606  POY606      0.0095
     13  C13       -0.1720   10.8480   15.4400 C.3   606  POY606      0.0646
     14  C14       -0.5690   11.7580   14.3110 C.2   606  POY606      0.1511
     15  C15       -0.6090   11.2250   12.8740 C.3   606  POY606      0.0722
     16  O16       -0.7200   12.9350   14.5290 O.2   606  POY606     -0.2960
     17  O17        0.4080    6.5840   18.2870 O.2   606  POY606     -0.2723
     18  O18       -3.6940    8.5680   19.0120 O.2   606  POY606     -0.2230
     19  C19       -4.1030    7.2530   21.5720 C.3   606  POY606      0.2626
     20  C20        1.4810    4.6910   20.3370 C.3   606  POY606      0.0771
     21  C21        2.6620    5.6310   20.7500 C.3   606  POY606      0.0175
     22  C22        3.5760    5.1730   21.9280 C.3   606  POY606      0.0015
@<TRIPOS>BOND
     1    15    14    1
     2    14    16    2
     3    14    13    1
     4    13    12    1
     5    12    11    1
     6    10    11    1
     7    10     1    1
     8    17     2    2
     9     1     2   am
    10     1     6   am
    11     2     3    1
    12    18     6    2
    13     6     5   am
    14     3     7    1
    15     3     4    1
    16    20    21    1
    17    20     7    1
    18     5     4    1
    19     5    19    1
    20    21    22    1
    21     7     8    1
    22     4     9    2
    23     8     9    1
