@<TRIPOS>MOLECULE
3as3_I5I_A_1.pdb
 17 19 0 0 0
SMALL
GASTEIGER

@<TRIPOS>ATOM
      1  C1        -0.1800    5.1350   20.2270 C.ar  606  I5I606      0.0822
      2  C2        -1.3890    5.1160   20.9710 C.ar  606  I5I606      0.0223
      3  C3        -2.4460    6.0170   20.6850 C.ar  606  I5I606      0.0398
      4  C4        -2.2740    6.9380   19.6440 C.ar  606  I5I606      0.1464
      5  C5        -1.0740    6.9660   18.9050 C.ar  606  I5I606      0.0391
      6  C6        -0.0390    6.0750   19.1970 C.ar  606  I5I606      0.0222
      7  C7        -3.6800    6.2230   21.2060 C.ar  606  I5I606      0.0510
      8  C8        -4.3010    7.2360   20.5540 C.ar  606  I5I606      0.2067
      9  O9        -3.4360    7.6830   19.5770 O.2   606  I5I606     -0.4436
     10  C10       -5.6070    7.7930   20.7000 C.1   606  I5I606      0.0713
     11  N11       -6.2440    8.5020   19.7330 N.2   606  I5I606     -0.1881
     12  C12       -7.6220    8.8930   20.1030 C.2   606  I5I606      0.1311
     13  C13       -7.7650    8.2780   21.4910 C.2   606  I5I606      0.1311
     14  N14       -6.4590    7.6020   21.7280 N.2   606  I5I606     -0.1881
     15  N15        0.8700    4.2960   20.4640 N.2   606  I5I606     -0.2363
     16  C16        0.7810    2.9860   20.7490 C.2   606  I5I606      0.1408
     17  S17        2.1620    1.9430   21.0000 S.3   606  I5I606     -0.0280
@<TRIPOS>BOND
     1     5     6   ar
     2     5     4   ar
     3     6     1   ar
     4     9     4   ar
     5     9     8   ar
     6     4     3   ar
     7    11    12    1
     8    11    10    2
     9    12    13    2
    10     1    15    1
    11     1     2   ar
    12    15    16    2
    13     8    10    1
    14     8     7   ar
    15     3     2   ar
    16     3     7   ar
    17    10    14    2
    18    16    17    1
    19    13    14    1
