@<TRIPOS>MOLECULE
3asb_LLP_A_1.pdb
 24 24 0 0 0
SMALL
GASTEIGER

@<TRIPOS>ATOM
      1  N1        -0.6520   32.3940   10.7920 N.ar  401  LLP401     -0.2452
      2  C2        -0.4900   31.8830    9.5520 C.ar  401  LLP401      0.0978
      3  C2'       -1.4620   32.2840    8.4390 C.3   401  LLP401      0.0555
      4  C3         0.5540   30.9920    9.2670 C.ar  401  LLP401      0.2067
      5  O3         0.6790   30.4880    7.9980 O.3   401  LLP401     -0.2856
      6  C4         1.4550   30.6270   10.2870 C.ar  401  LLP401      0.0421
      7  C4'        2.6130   29.6420   10.0190 C.3   401  LLP401      0.1545
      8  C5         1.2390   31.1960   11.5610 C.ar  401  LLP401      0.0280
      9  C6         0.1720   32.0800   11.7770 C.ar  401  LLP401      0.0965
     10  C5'        2.1830   30.8500   12.7410 C.3   401  LLP401      0.1816
     11  OP4        1.7490   30.8770   14.0350 O.3   401  LLP401     -0.2653
     12  P          2.7500   30.1030   15.1300 P.3   401  LLP401      0.5329
     13  OP1        2.0040   29.5780   16.3330 O.3   401  LLP401     -0.1145
     14  OP2        3.5480   28.9370   14.2490 O.2   401  LLP401     -0.2224
     15  OP3        3.9480   31.1260   15.5750 O.3   401  LLP401     -0.1145
     16  N          8.4560   32.1120   11.5080 N.3   401  LLP401     -0.1245
     17  CA         8.7030   32.2580   10.0490 C.3   401  LLP401      0.1562
     18  CB         7.3770   32.1660    9.2370 C.3   401  LLP401      0.0274
     19  CG         6.3020   31.3710    9.9440 C.3   401  LLP401      0.0083
     20  CD         5.2890   32.1800   10.4370 C.3   401  LLP401      0.0466
     21  CE         4.0380   31.5880   10.4680 C.2   401  LLP401      0.0671
     22  NZ         3.9030   30.3380   10.0260 N.2   401  LLP401     -0.2686
     23  C          9.2460   33.6210    9.5950 C.2   401  LLP401      0.2260
     24  O          8.6090   34.1850    8.7060 O.2   401  LLP401     -0.2867
@<TRIPOS>BOND
     1     5     4    1
     2     3     2    1
     3    24    23    2
     4    18    19    1
     5    18    17    1
     6     4     2   ar
     7     4     6   ar
     8     2     1   ar
     9    23    17    1
    10    19    20    1
    11     7    22    1
    12     7     6    1
    13    22    21    2
    14    17    16    1
    15     6     8   ar
    16    20    21    1
    17     1     9   ar
    18     8     9   ar
    19     8    10    1
    20    10    11    1
    21    11    12    1
    22    14    12    2
    23    12    15    1
    24    12    13    1
