@<TRIPOS>MOLECULE
3ase_ZNH_A_1.pdb
 43 50 0 0 0
SMALL
GASTEIGER

@<TRIPOS>ATOM
      1 ZN        -34.9410   -4.0290    2.4480 Zn    156  ZNH156      0.0000
      2  CHA      -37.6860   -2.3190    3.6630 C.2   156  ZNH156      0.0000
      3  CHB      -36.8930   -5.2690   -0.1440 C.2   156  ZNH156      0.0000
      4  CHC      -32.4000   -6.2760    1.6160 C.2   156  ZNH156      0.0000
      5  CHD      -33.2090   -3.2650    5.4050 C.2   156  ZNH156      0.0000
      6  NA       -36.9970   -3.9010    1.8970 N.ar  156  ZNH156      0.0000
      7  C1A      -37.9050   -3.0810    2.4320 C.ar  156  ZNH156      0.0000
      8  C2A      -39.1070   -3.1260    1.7510 C.ar  156  ZNH156      0.0000
      9  C3A      -38.8860   -3.9770    0.6630 C.ar  156  ZNH156      0.0000
     10  C4A      -37.5630   -4.3800    0.7970 C.ar  156  ZNH156      0.0000
     11  CMA      -39.8360   -4.3980   -0.4270 C.3   156  ZNH156      0.0000
     12  CAA      -40.3620   -2.3510    2.1180 C.3   156  ZNH156      0.0000
     13  CBA      -40.4360   -1.1310    1.1630 C.3   156  ZNH156      0.0000
     14  CGA      -39.1910   -0.2160    1.1440 C.2   156  ZNH156      0.0000
     15  O1A      -38.4460   -0.1370    0.1240 O.co2 156  ZNH156      0.0000
     16  O2A      -38.9320    0.4530    2.1640 O.co2 156  ZNH156      0.0000
     17  NB       -34.7340   -5.5910    0.9960 N.2   156  ZNH156      0.0000
     18  C1B      -35.5780   -5.8700   -0.0150 C.2   156  ZNH156      0.0000
     19  C2B      -35.0900   -6.8610   -0.8990 C.2   156  ZNH156      0.0000
     20  C3B      -33.8440   -7.1010   -0.3760 C.2   156  ZNH156      0.0000
     21  C4B      -33.6150   -6.2820    0.8020 C.2   156  ZNH156      0.0000
     22  CMB      -35.7460   -7.4860   -2.1130 C.3   156  ZNH156      0.0000
     23  CAB      -32.9840   -8.0000   -0.8590 C.1   156  ZNH156      0.0000
     24  CBB      -32.2890   -8.9000   -1.3620 C.1   156  ZNH156      0.0000
     25  NC       -33.1140   -4.7280    3.3930 N.ar  156  ZNH156      0.0000
     26  C1C      -32.2160   -5.6010    2.9010 C.ar  156  ZNH156      0.0000
     27  C2C      -31.1120   -5.7800    3.7420 C.ar  156  ZNH156      0.0000
     28  C3C      -31.3860   -4.9190    4.7980 C.ar  156  ZNH156      0.0000
     29  C4C      -32.5880   -4.2780    4.5350 C.ar  156  ZNH156      0.0000
     30  CMC      -29.9250   -6.7150    3.5610 C.3   156  ZNH156      0.0000
     31  CAC      -30.5940   -4.6680    6.0380 C.2   156  ZNH156      0.0000
     32  CBC      -29.3870   -5.1790    6.2340 C.2   156  ZNH156      0.0000
     33  ND       -35.4060   -3.0050    4.2980 N.2   156  ZNH156      0.0000
     34  C1D      -34.5720   -2.7330    5.3070 C.2   156  ZNH156      0.0000
     35  C2D      -35.2020   -1.9790    6.2940 C.2   156  ZNH156      0.0000
     36  C3D      -36.4720   -1.7200    5.7940 C.2   156  ZNH156      0.0000
     37  C4D      -36.5230   -2.3420    4.5520 C.2   156  ZNH156      0.0000
     38  CMD      -34.6290   -1.5020    7.6140 C.3   156  ZNH156      0.0000
     39  CAD      -37.5910   -0.9460    6.4630 C.3   156  ZNH156      0.0000
     40  CBD      -38.1720   -1.8930    7.5130 C.3   156  ZNH156      0.0000
     41  CGD      -39.4230   -1.2900    8.0890 C.2   156  ZNH156      0.0000
     42  O1D      -40.4130   -2.0210    8.1740 O.co2 156  ZNH156      0.0000
     43  O2D      -39.4300   -0.0910    8.4350 O.co2 156  ZNH156      0.0000
@<TRIPOS>BOND
     1    22    19    1
     2    24    23    3
     3    19    20    2
     4    19    18    1
     5    23    20    1
     6    11     9    1
     7    20    21    1
     8     3    18    1
     9     3    10    2
    10    18    17    2
    11    15    14   ar
    12     9    10   ar
    13     9     8   ar
    14    10     6   ar
    15    21    17    1
    16    21     4    2
    17    17     1    1
    18    14    13    1
    19    14    16   ar
    20    13    12    1
    21     4    26    1
    22     8    12    1
    23     8     7   ar
    24     6     7   ar
    25     6     1    1
    26     7     2    2
    27     1    25    1
    28     1    33    1
    29    26    25   ar
    30    26    27   ar
    31    25    29   ar
    32    30    27    1
    33     2    37    1
    34    27    28   ar
    35    33    37    2
    36    33    34    1
    37    29    28   ar
    38    29     5    1
    39    37    36    1
    40    28    31    1
    41    34     5    2
    42    34    35    1
    43    36    35    2
    44    36    39    1
    45    31    32    2
    46    35    38    1
    47    39    40    1
    48    40    41    1
    49    41    42   ar
    50    41    43   ar
