@<TRIPOS>MOLECULE
3asj_XYN_A_1.pdb
 11 10 0 0 0
SMALL
GASTEIGER

@<TRIPOS>ATOM
      1  OBA       35.7140  -52.5870  -33.7540 O.co2 1000  XYN1000    -0.2447
      2  OBB       30.4850  -52.6430  -35.9170 O.co2 1000  XYN1000    -0.2373
      3  OBC       32.9970  -50.7790  -37.5300 O.2   1000  XYN1000    -0.2834
      4  OBD       35.9750  -51.4790  -35.6620 O.co2 1000  XYN1000    -0.2447
      5  OBE       30.8460  -50.4380  -35.7460 O.co2 1000  XYN1000    -0.2373
      6  CBF       34.1550  -52.9700  -35.4740 C.3   1000  XYN1000     0.1719
      7  CBG       32.6320  -53.0800  -37.7180 C.3   1000  XYN1000     0.1341
      8  SBH       34.3800  -53.2030  -37.2800 S.3   1000  XYN1000    -0.1199
      9  CBI       35.3810  -52.2810  -34.9120 C.2   1000  XYN1000     0.3757
     10  CBJ       31.1070  -51.5850  -36.2090 C.2   1000  XYN1000     0.4227
     11  CBK       32.2800  -51.7200  -37.1990 C.2   1000  XYN1000     0.2628
@<TRIPOS>BOND
     1     7     8    1
     2     7    11    1
     3     3    11    2
     4     8     6    1
     5    11    10    1
     6    10     2   ar
     7    10     5   ar
     8     4     9   ar
     9     6     9    1
    10     9     1   ar
