@<TRIPOS>MOLECULE
3asj_XYM_B_1.pdb
 11 10 0 0 0
SMALL
GASTEIGER

@<TRIPOS>ATOM
      1  OAA       32.9670  -42.0160  -14.6320 O.co2 1000  XYM1000    -0.2447
      2  OAB       27.4340  -40.6840  -15.5990 O.co2 1000  XYM1000    -0.2369
      3  OAC       33.3270  -41.2420  -16.6860 O.co2 1000  XYM1000    -0.2447
      4  OAD       27.9950  -42.8620  -15.8760 O.co2 1000  XYM1000    -0.2369
      5  OAE       29.8080  -42.3750  -13.5660 O.2   1000  XYM1000    -0.2789
      6  CAF       29.9860  -40.2840  -14.6580 C.2   1000  XYM1000     0.0804
      7  CAG       32.4770  -39.7570  -15.1130 C.3   1000  XYM1000     0.1760
      8  SAH       31.3560  -39.9860  -13.7080 S.3   1000  XYM1000    -0.0978
      9  CAI       32.9560  -41.1270  -15.5100 C.2   1000  XYM1000     0.3760
     10  CAJ       28.1440  -41.7060  -15.3710 C.2   1000  XYM1000     0.4266
     11  CAK       29.3500  -41.4830  -14.4770 C.2   1000  XYM1000     0.2808
@<TRIPOS>BOND
     1     3     9   ar
     2     4    10   ar
     3     2    10   ar
     4     9     7    1
     5     9     1   ar
     6    10    11    1
     7     7     8    1
     8     6    11    2
     9     6     8    1
    10    11     5    1
