@<TRIPOS>MOLECULE
3ask_LYS_R_1.pdb
 12 11 0 0 0
SMALL
GASTEIGER

@<TRIPOS>ATOM
      1  N          8.9690   17.0440   23.9340 N.3     9  LYS9       -0.1196
      2  CA         9.6180   17.8160   22.8790 C.3     9  LYS9        0.1781
      3  CB        11.0590   17.3310   22.5850 C.2     9  LYS9        0.0004
      4  CG        12.0670   17.2710   23.7620 C.2     9  LYS9       -0.0014
      5  CD        13.5240   16.8600   23.4080 C.2     9  LYS9        0.0141
      6  CE        14.5540   16.6620   24.5470 C.2     9  LYS9        0.0465
      7  NZ        15.9260   16.2140   24.1450 N.pl3   9  LYS9       -0.3503
      8  C          8.7640   17.8810   21.6040 C.2     9  LYS9        0.2306
      9  O          7.7630   17.2470   21.5240 O.2     9  LYS9       -0.2863
     10  CM1       16.7210   16.0900   25.3580 C.3     9  LYS9        0.0960
     11  CM2       15.6640   14.9120   23.5490 C.3     9  LYS9        0.0960
     12  CM3       16.7750   16.8330   23.1210 C.3     9  LYS9        0.0960
@<TRIPOS>BOND
     1     9     8    2
     2     8     2    1
     3     3     2    1
     4     3     4    2
     5     2     1    1
     6    12     7    1
     7     5     4    1
     8     5     6    2
     9    11     7    1
    10     7     6    1
    11     7    10    1
