@<TRIPOS>MOLECULE
3asn_DMU_M_1.pdb
 33 34 0 0 0
SMALL
GASTEIGER

@<TRIPOS>ATOM
      1  C1        27.7230  318.6740  194.1900 C.3   526  DMU526      0.2404
      2  C2        26.9100  319.4950  193.1770 C.3   526  DMU526      0.2167
      3  C3        25.5520  318.9180  192.9380 C.3   526  DMU526      0.1804
      4  C4        25.2480  317.5140  193.0800 C.3   526  DMU526      0.1803
      5  O5        26.2670  316.6730  193.6230 O.3   526  DMU526     -0.3257
      6  C6        27.1390  317.3460  194.5510 C.3   526  DMU526      0.2695
      7  O7        24.3920  319.7360  192.6740 O.3   526  DMU526     -0.3257
      8  O16       28.1450  316.4350  195.0640 O.3   526  DMU526     -0.3286
      9  C18       27.6710  315.0870  195.2980 C.3   526  DMU526      0.1449
     10  C19       28.7250  314.1140  195.7120 C.3   526  DMU526      0.0322
     11  C22       28.7380  313.0770  194.6370 C.3   526  DMU526      0.0026
     12  C25       29.9720  312.2480  194.7820 C.3   526  DMU526      0.0001
     13  C28       31.1010  312.9250  194.0600 C.3   526  DMU526      0.0000
     14  C31       31.7690  311.8800  193.2080 C.3   526  DMU526      0.0000
     15  C34       33.1310  311.5420  193.7770 C.3   526  DMU526      0.0000
     16  C37       34.1310  312.6670  193.6960 C.3   526  DMU526      0.0000
     17  C40       35.5240  312.0400  193.7520 C.3   526  DMU526      0.0000
     18  C43       36.2860  311.9860  192.4240 C.3   526  DMU526      0.0000
     19  O49       28.1320  319.4060  195.3290 O.3   526  DMU526     -0.2149
     20  O55       26.8950  320.9120  193.3780 O.3   526  DMU526     -0.2175
     21  C57       24.0780  316.9300  192.3080 C.3   526  DMU526      0.2141
     22  O61       23.9090  315.5850  192.6800 O.3   526  DMU526     -0.2176
     23  C5        24.1670  321.9860  192.0260 C.3   526  DMU526      0.2406
     24  C7        22.7040  322.4680  192.1210 C.3   526  DMU526      0.2198
     25  C8        21.5970  321.5980  191.4630 C.3   526  DMU526      0.2144
     26  C9        22.0200  320.2040  191.0570 C.3   526  DMU526      0.1835
     27  O1        23.3870  320.0150  190.5780 O.3   526  DMU526     -0.3256
     28  C10       24.3300  320.5770  191.5250 C.3   526  DMU526      0.2695
     29  O2        20.5050  321.4950  192.3480 O.3   526  DMU526     -0.2176
     30  O3        25.0140  322.8830  191.3190 O.3   526  DMU526     -0.2149
     31  O4        22.6760  323.7910  191.5970 O.3   526  DMU526     -0.2174
     32  C11       20.9650  319.1360  190.8360 C.3   526  DMU526      0.2142
     33  O6        20.7620  318.8550  189.4510 O.3   526  DMU526     -0.2176
@<TRIPOS>BOND
     1    33    32    1
     2    27    26    1
     3    27    28    1
     4    32    26    1
     5    26    25    1
     6    30    23    1
     7    25    24    1
     8    25    29    1
     9    28    23    1
    10    28     7    1
    11    31    24    1
    12    23    24    1
    13    21    22    1
    14    21     4    1
    15    18    17    1
    16     7     3    1
    17     3     4    1
    18     3     2    1
    19     4     5    1
    20     2    20    1
    21     2     1    1
    22    14    15    1
    23    14    13    1
    24     5     6    1
    25    16    17    1
    26    16    15    1
    27    13    12    1
    28     1     6    1
    29     1    19    1
    30     6     8    1
    31    11    12    1
    32    11    10    1
    33     8     9    1
    34     9    10    1
