@<TRIPOS>MOLECULE
3aso_DMU_M_1.pdb
 33 34 0 0 0
SMALL
GASTEIGER

@<TRIPOS>ATOM
      1  C1        27.7760  318.6940  194.2090 C.3   526  DMU526      0.2404
      2  C2        26.9160  319.5420  193.2510 C.3   526  DMU526      0.2167
      3  C3        25.5940  318.9460  192.8660 C.3   526  DMU526      0.1804
      4  C4        25.2730  317.5610  193.0860 C.3   526  DMU526      0.1803
      5  O5        26.2870  316.7300  193.6660 O.3   526  DMU526     -0.3257
      6  C6        27.1700  317.3880  194.5760 C.3   526  DMU526      0.2695
      7  O7        24.4520  319.7900  192.7280 O.3   526  DMU526     -0.3257
      8  O16       28.1300  316.4810  195.1140 O.3   526  DMU526     -0.3286
      9  C18       27.6290  315.1390  195.3240 C.3   526  DMU526      0.1449
     10  C19       28.7280  314.1710  195.6870 C.3   526  DMU526      0.0322
     11  C22       28.7050  313.0310  194.7170 C.3   526  DMU526      0.0026
     12  C25       29.9590  312.1980  194.8220 C.3   526  DMU526      0.0001
     13  C28       31.1130  312.8850  194.1680 C.3   526  DMU526      0.0000
     14  C31       31.7490  311.8870  193.2360 C.3   526  DMU526      0.0000
     15  C34       33.1370  311.5200  193.7120 C.3   526  DMU526      0.0000
     16  C37       34.1290  312.6750  193.7970 C.3   526  DMU526      0.0000
     17  C40       35.5620  312.1170  193.8800 C.3   526  DMU526      0.0000
     18  C43       36.1810  311.7550  192.5210 C.3   526  DMU526      0.0000
     19  O49       28.2730  319.4150  195.3360 O.3   526  DMU526     -0.2149
     20  O55       26.8340  320.9010  193.6440 O.3   526  DMU526     -0.2175
     21  C57       24.1390  316.9310  192.3150 C.3   526  DMU526      0.2141
     22  O61       23.9220  315.6240  192.8170 O.3   526  DMU526     -0.2176
     23  C5        24.1630  322.0350  192.0350 C.3   526  DMU526      0.2406
     24  C7        22.6880  322.5090  192.1560 C.3   526  DMU526      0.2198
     25  C8        21.5930  321.6260  191.5270 C.3   526  DMU526      0.2144
     26  C9        22.0280  320.2300  191.1620 C.3   526  DMU526      0.1835
     27  O1        23.3850  320.0290  190.6640 O.3   526  DMU526     -0.3256
     28  C10       24.3460  320.6220  191.5640 C.3   526  DMU526      0.2695
     29  O2        20.5270  321.5150  192.4550 O.3   526  DMU526     -0.2176
     30  O3        25.0250  322.9030  191.3290 O.3   526  DMU526     -0.2149
     31  O4        22.5370  323.8240  191.6430 O.3   526  DMU526     -0.2174
     32  C11       21.0040  319.1510  190.9050 C.3   526  DMU526      0.2142
     33  O6        20.7310  319.0990  189.5090 O.3   526  DMU526     -0.2176
@<TRIPOS>BOND
     1    33    32    1
     2    27    26    1
     3    27    28    1
     4    32    26    1
     5    26    25    1
     6    30    23    1
     7    25    24    1
     8    25    29    1
     9    28    23    1
    10    28     7    1
    11    31    24    1
    12    23    24    1
    13    21    22    1
    14    21     4    1
    15    18    17    1
    16     7     3    1
    17     3     4    1
    18     3     2    1
    19     4     5    1
    20    14    15    1
    21    14    13    1
    22     2    20    1
    23     2     1    1
    24     5     6    1
    25    15    16    1
    26    16    17    1
    27    13    12    1
    28     1     6    1
    29     1    19    1
    30     6     8    1
    31    11    12    1
    32    11    10    1
    33     8     9    1
    34     9    10    1
