@<TRIPOS>MOLECULE
3asp_FUC_A_1.pdb
 10 10 0 0 0
SMALL
GASTEIGER

@<TRIPOS>ATOM
      1  C1        26.9510    7.6230  -25.2540 C.3   1005  FUC1005     0.1776
      2  C2        25.9990    8.5760  -24.5330 C.3   1005  FUC1005     0.2141
      3  C3        25.3800    9.5720  -25.5180 C.3   1005  FUC1005     0.2172
      4  C4        24.7940    8.8750  -26.7490 C.3   1005  FUC1005     0.2116
      5  C5        25.8130    7.9010  -27.3500 C.3   1005  FUC1005     0.1483
      6  C6        25.2350    7.0980  -28.5140 C.3   1005  FUC1005     0.0349
      7  O2        26.7000    9.2650  -23.5200 O.3   1005  FUC1005    -0.2176
      8  O3        24.3780   10.3260  -24.8730 O.3   1005  FUC1005    -0.2175
      9  O4        23.6080    8.1920  -26.3980 O.3   1005  FUC1005    -0.2177
     10  O5        26.2940    7.0090  -26.3550 O.3   1005  FUC1005    -0.3508
@<TRIPOS>BOND
     1     6     5    1
     2     5     4    1
     3     5    10    1
     4     4     9    1
     5     4     3    1
     6    10     1    1
     7     3     8    1
     8     3     2    1
     9     1     2    1
    10     2     7    1
