@<TRIPOS>MOLECULE
3asq_FUC_A_1.pdb
 10 10 0 0 0
SMALL
GASTEIGER

@<TRIPOS>ATOM
      1  C1        28.5950    3.3190  -29.8220 C.3   1005  FUC1005     0.1776
      2  C2        27.5780    2.4870  -30.6080 C.3   1005  FUC1005     0.2141
      3  C3        28.1000    2.1750  -32.0140 C.3   1005  FUC1005     0.2172
      4  C4        29.4990    1.5570  -31.9370 C.3   1005  FUC1005     0.2116
      5  C5        30.4170    2.4790  -31.1290 C.3   1005  FUC1005     0.1483
      6  C6        31.8370    1.9390  -30.9880 C.3   1005  FUC1005     0.0349
      7  O2        26.3450    3.1710  -30.6840 O.3   1005  FUC1005    -0.2176
      8  O3        27.1980    1.3210  -32.6880 O.3   1005  FUC1005    -0.2175
      9  O4        29.4400    0.2730  -31.3360 O.3   1005  FUC1005    -0.2177
     10  O5        29.8730    2.6970  -29.8370 O.3   1005  FUC1005    -0.3508
@<TRIPOS>BOND
     1     8     3    1
     2     3     4    1
     3     3     2    1
     4     4     9    1
     5     4     5    1
     6     5     6    1
     7     5    10    1
     8     7     2    1
     9     2     1    1
    10    10     1    1
