@<TRIPOS>MOLECULE
3asq_GAL_A_1.pdb
 11 11 0 0 0
SMALL
GASTEIGER

@<TRIPOS>ATOM
      1  C1        30.1390    6.4810  -30.0260 C.3   1003  GAL1003     0.1777
      2  C2        29.0860    5.5880  -29.3660 C.3   1003  GAL1003     0.2141
      3  C3        27.9590    6.4540  -28.8230 C.3   1003  GAL1003     0.2173
      4  C4        28.5210    7.5480  -27.9190 C.3   1003  GAL1003     0.2142
      5  C5        29.5750    8.3550  -28.6780 C.3   1003  GAL1003     0.1810
      6  C6        30.2030    9.4230  -27.7920 C.3   1003  GAL1003     0.2141
      7  O2        28.5840    4.6730  -30.3170 O.3   1003  GAL1003    -0.2176
      8  O3        27.0300    5.6540  -28.1200 O.3   1003  GAL1003    -0.2175
      9  O4        29.1220    6.9670  -26.7820 O.3   1003  GAL1003    -0.2176
     10  O5        30.5870    7.4820  -29.1350 O.3   1003  GAL1003    -0.3481
     11  O6        31.0470   10.2570  -28.5650 O.3   1003  GAL1003    -0.2176
@<TRIPOS>BOND
     1     7     2    1
     2     1     2    1
     3     1    10    1
     4     2     3    1
     5    10     5    1
     6     3     8    1
     7     3     4    1
     8     5     4    1
     9     5     6    1
    10    11     6    1
    11     4     9    1
