@<TRIPOS>MOLECULE
3asr_GAL_A_1.pdb
 11 11 0 0 0
SMALL
GASTEIGER

@<TRIPOS>ATOM
      1  C1        19.8650  -21.4420  -23.5460 C.3   1003  GAL1003     0.1777
      2  C2        18.6200  -21.0390  -22.7600 C.3   1003  GAL1003     0.2141
      3  C3        18.9210  -19.8630  -21.8370 C.3   1003  GAL1003     0.2173
      4  C4        20.2020  -20.0650  -21.0210 C.3   1003  GAL1003     0.2142
      5  C5        21.3440  -20.4720  -21.9520 C.3   1003  GAL1003     0.1810
      6  C6        22.6330  -20.7230  -21.1770 C.3   1003  GAL1003     0.2141
      7  O2        17.5950  -20.6570  -23.6500 O.3   1003  GAL1003    -0.2176
      8  O3        17.8180  -19.6430  -20.9900 O.3   1003  GAL1003    -0.2175
      9  O4        20.0290  -21.0440  -20.0170 O.3   1003  GAL1003    -0.2176
     10  O5        20.9730  -21.6320  -22.6780 O.3   1003  GAL1003    -0.3481
     11  O6        23.7180  -20.6920  -22.0760 O.3   1003  GAL1003    -0.2176
@<TRIPOS>BOND
     1     7     2    1
     2     1     2    1
     3     1    10    1
     4     2     3    1
     5    10     5    1
     6    11     6    1
     7     5     6    1
     8     5     4    1
     9     3     4    1
    10     3     8    1
    11     4     9    1
