@<TRIPOS>MOLECULE
3asr_FUC_A_1.pdb
 10 10 0 0 0
SMALL
GASTEIGER

@<TRIPOS>ATOM
      1  C1        21.5280  -25.4670  -23.0080 C.3   1004  FUC1004     0.1776
      2  C2        22.6190  -25.5110  -21.9340 C.3   1004  FUC1004     0.2141
      3  C3        22.3890  -24.4690  -20.8330 C.3   1004  FUC1004     0.2172
      4  C4        20.9470  -24.4700  -20.3130 C.3   1004  FUC1004     0.2116
      5  C5        19.9420  -24.5230  -21.4740 C.3   1004  FUC1004     0.1483
      6  C6        18.4950  -24.6470  -21.0010 C.3   1004  FUC1004     0.0349
      7  O2        23.8800  -25.2980  -22.5270 O.3   1004  FUC1004    -0.2176
      8  O3        23.2790  -24.6990  -19.7640 O.3   1004  FUC1004    -0.2175
      9  O4        20.7590  -25.5510  -19.4250 O.3   1004  FUC1004    -0.2177
     10  O5        20.2440  -25.5640  -22.3950 O.3   1004  FUC1004    -0.3508
@<TRIPOS>BOND
     1     1    10    1
     2     1     2    1
     3     7     2    1
     4    10     5    1
     5     2     3    1
     6     5     6    1
     7     5     4    1
     8     3     4    1
     9     3     8    1
    10     4     9    1
