@<TRIPOS>MOLECULE
3ass_GAL_A_1.pdb
 11 11 0 0 0
SMALL
GASTEIGER

@<TRIPOS>ATOM
      1  C1        -9.2800   28.8320   22.6600 C.3   1003  GAL1003     0.1777
      2  C2        -9.5310   27.4940   21.9480 C.3   1003  GAL1003     0.2141
      3  C3        -8.2700   27.0060   21.2300 C.3   1003  GAL1003     0.2173
      4  C4        -7.6810   28.1150   20.3600 C.3   1003  GAL1003     0.2142
      5  C5        -7.4860   29.3870   21.1900 C.3   1003  GAL1003     0.1810
      6  C6        -6.9630   30.5430   20.3460 C.3   1003  GAL1003     0.2141
      7  O2        -9.9860   26.5330   22.8810 O.3   1003  GAL1003    -0.2176
      8  O3        -8.5510   25.8660   20.4400 O.3   1003  GAL1003    -0.2175
      9  O4        -8.5520   28.3990   19.2850 O.3   1003  GAL1003    -0.2176
     10  O5        -8.7210   29.7750   21.7670 O.3   1003  GAL1003    -0.3481
     11  O6        -6.6300   31.6330   21.1820 O.3   1003  GAL1003    -0.2176
@<TRIPOS>BOND
     1     9     4    1
     2     6    11    1
     3     6     5    1
     4     4     5    1
     5     4     3    1
     6     8     3    1
     7     5    10    1
     8     3     2    1
     9    10     1    1
    10     2     1    1
    11     2     7    1
