@<TRIPOS>MOLECULE
3ass_FUC_A_1.pdb
 10 10 0 0 0
SMALL
GASTEIGER

@<TRIPOS>ATOM
      1  C1       -11.2090   25.8990   22.4330 C.3   1005  FUC1005     0.1776
      2  C2       -11.4190   24.5820   23.1830 C.3   1005  FUC1005     0.2141
      3  C3       -11.8800   24.8530   24.6210 C.3   1005  FUC1005     0.2172
      4  C4       -13.1070   25.7670   24.6260 C.3   1005  FUC1005     0.2116
      5  C5       -12.8120   27.0390   23.8240 C.3   1005  FUC1005     0.1483
      6  C6       -14.0150   27.9700   23.7200 C.3   1005  FUC1005     0.0349
      7  O2       -10.2310   23.8180   23.1760 O.3   1005  FUC1005    -0.2176
      8  O3       -12.1490   23.6390   25.2910 O.3   1005  FUC1005    -0.2175
      9  O4       -14.2300   25.0890   24.0860 O.3   1005  FUC1005    -0.2177
     10  O5       -12.3750   26.7130   22.5100 O.3   1005  FUC1005    -0.3508
@<TRIPOS>BOND
     1     1    10    1
     2     1     2    1
     3    10     5    1
     4     7     2    1
     5     2     3    1
     6     6     5    1
     7     5     4    1
     8     9     4    1
     9     3     4    1
    10     3     8    1
