@<TRIPOS>MOLECULE
3ast_FUC_A_1.pdb
 10 10 0 0 0
SMALL
GASTEIGER

@<TRIPOS>ATOM
      1  C1        26.0290    4.6210   22.4600 C.3   1005  FUC1005     0.1776
      2  C2        25.7690    3.3370   23.2550 C.3   1005  FUC1005     0.2141
      3  C3        25.2560    3.6630   24.6620 C.3   1005  FUC1005     0.2172
      4  C4        24.0610    4.6190   24.5970 C.3   1005  FUC1005     0.2116
      5  C5        24.4100    5.8400   23.7390 C.3   1005  FUC1005     0.1483
      6  C6        23.2380    6.8020   23.5730 C.3   1005  FUC1005     0.0349
      7  O2        26.9490    2.5650   23.3290 O.3   1005  FUC1005    -0.2176
      8  O3        24.9090    2.4780   25.3500 O.3   1005  FUC1005    -0.2175
      9  O4        22.9310    3.9530   24.0630 O.3   1005  FUC1005    -0.2177
     10  O5        24.8710    5.4430   22.4500 O.3   1005  FUC1005    -0.3508
@<TRIPOS>BOND
     1    10     1    1
     2    10     5    1
     3     1     2    1
     4     2     7    1
     5     2     3    1
     6     6     5    1
     7     5     4    1
     8     9     4    1
     9     4     3    1
    10     3     8    1
