@<TRIPOS>MOLECULE
3ast_GAL_A_1.pdb
 11 11 0 0 0
SMALL
GASTEIGER

@<TRIPOS>ATOM
      1  C1        27.9820    7.5530   22.7010 C.3   1003  GAL1003     0.1777
      2  C2        27.7380    6.1960   22.0270 C.3   1003  GAL1003     0.2141
      3  C3        29.0320    5.6630   21.4130 C.3   1003  GAL1003     0.2173
      4  C4        29.6880    6.7220   20.5300 C.3   1003  GAL1003     0.2142
      5  C5        29.8490    8.0260   21.3150 C.3   1003  GAL1003     0.1810
      6  C6        30.4660    9.1230   20.4540 C.3   1003  GAL1003     0.2141
      7  O2        27.2190    5.2740   22.9640 O.3   1003  GAL1003    -0.2176
      8  O3        28.7750    4.4950   20.6570 O.3   1003  GAL1003    -0.2175
      9  O4        28.8960    6.9440   19.3790 O.3   1003  GAL1003    -0.2176
     10  O5        28.5900    8.4560   21.7960 O.3   1003  GAL1003    -0.3481
     11  O6        30.8020   10.2280   21.2670 O.3   1003  GAL1003    -0.2176
@<TRIPOS>BOND
     1     9     4    1
     2     6    11    1
     3     6     5    1
     4     4     5    1
     5     4     3    1
     6     8     3    1
     7     5    10    1
     8     3     2    1
     9    10     1    1
    10     2     1    1
    11     2     7    1
