@<TRIPOS>MOLECULE
3asx_D99_A_1.pdb
 37 39 0 0 0
SMALL
GASTEIGER

@<TRIPOS>ATOM
      1  C1        17.1720   -3.6090   55.0720 C.ar    1  D991        0.0525
      2  N1        17.7110   -4.4110   56.1220 N.am    1  D991       -0.2588
      3  O1        18.2250   -0.9550   56.5470 O.3     1  D991       -0.2133
      4 CL1        20.8020   -3.0400   53.5230 Cl      1  D991       -0.0825
      5  C2        16.0590   -4.1290   54.3920 C.ar    1  D991        0.0155
      6  N2        16.6720   -2.1020   60.8980 N.am    1  D991       -0.2790
      7  O2        17.3800   -5.0240   58.2240 O.2     1  D991       -0.2745
      8 CL2        15.2160   -1.1440   51.7320 Cl      1  D991       -0.0823
      9  C3        15.4900   -3.3920   53.3120 C.ar    1  D991        0.0127
     10  O3        17.6730   -2.0720   58.8660 O.2     1  D991       -0.2749
     11  C4        15.9900   -2.1250   53.0290 C.ar    1  D991        0.0575
     12  O4        13.3240   -2.0530   63.5300 O.co2   1  D991       -0.2456
     13  C5        17.1170   -1.6100   53.7100 C.ar    1  D991        0.0111
     14  O5        13.8630   -0.0160   64.1890 O.co2   1  D991       -0.2456
     15  C6        17.6860   -2.3480   54.7330 C.ar    1  D991        0.0265
     16  C7        18.8270   -1.7400   55.4850 C.3     1  D991        0.1986
     17  C8        19.7400   -0.8120   54.7180 C.ar    1  D991        0.0225
     18  C9        20.6910   -1.2910   53.8320 C.ar    1  D991        0.0564
     19  C10       21.5820   -0.4420   53.1940 C.ar    1  D991        0.0112
     20  C11       21.4820    0.9240   53.4140 C.ar    1  D991        0.0008
     21  C12       20.5160    1.4400   54.2820 C.ar    1  D991       -0.0002
     22  C13       19.6330    0.5850   54.9270 C.ar    1  D991       -0.0007
     23  C14       17.0270   -4.3600   57.2880 C.2     1  D991        0.2298
     24  C15       15.7980   -3.4450   57.4440 C.3     1  D991        0.0952
     25  C16       15.5750   -3.1990   58.9680 C.3     1  D991        0.0948
     26  C17       16.7170   -2.4000   59.5700 C.2     1  D991        0.2261
     27  C18       15.4230   -2.1920   61.6970 C.3     1  D991        0.1046
     28  C19       15.5800   -1.4330   63.0240 C.3     1  D991        0.1232
     29  C20       16.3650   -0.1270   62.7840 C.3     1  D991        0.0147
     30  C21       17.7540   -0.3790   62.1790 C.3     1  D991        0.0221
     31  C22       17.9060   -1.8010   61.6380 C.3     1  D991        0.0934
     32  C23       14.1910   -1.1810   63.5930 C.2     1  D991        0.3660
     33  C24       18.9500   -5.2230   55.9130 C.3     1  D991        0.0981
     34  C25       18.7830   -6.6130   55.3220 C.3     1  D991        0.0187
     35  C26       17.6280   -7.4140   55.9390 C.3     1  D991        0.0017
     36  C27       20.0960   -7.2870   55.6750 C.3     1  D991        0.0017
     37  C28       18.6620   -6.5330   53.7790 C.3     1  D991        0.0017
@<TRIPOS>BOND
     1     8    11    1
     2    11     9   ar
     3    11    13   ar
     4    19    20   ar
     5    19    18   ar
     6     9     5   ar
     7    20    21   ar
     8     4    18    1
     9    13    15   ar
    10    37    34    1
    11    18    17   ar
    12    21    22   ar
    13     5     1   ar
    14    17    22   ar
    15    17    16    1
    16    15     1   ar
    17    15    16    1
    18     1     2    1
    19    34    36    1
    20    34    33    1
    21    34    35    1
    22    16     3    1
    23    33     2    1
    24     2    23   am
    25    23    24    1
    26    23     7    2
    27    24    25    1
    28    10    26    2
    29    25    26    1
    30    26     6   am
    31     6    31    1
    32     6    27    1
    33    31    30    1
    34    27    28    1
    35    30    29    1
    36    29    28    1
    37    28    32    1
    38    12    32   ar
    39    32    14   ar
