@<TRIPOS>MOLECULE
3asz_C5P_A_1.pdb
 21 22 0 0 0
SMALL
GASTEIGER

@<TRIPOS>ATOM
      1  O3P       15.6180    6.4530   -3.7880 O.2   212  C5P212     -0.2224
      2  P         15.3350    6.0100   -2.2850 P.3   212  C5P212      0.5327
      3  O1P       14.0010    5.5130   -1.8860 O.3   212  C5P212     -0.1145
      4  O2P       16.5620    5.6390   -1.3310 O.3   212  C5P212     -0.1145
      5  O5'       15.4690    4.5290   -2.9130 O.3   212  C5P212     -0.2675
      6  C5'       15.4050    3.5150   -1.8800 C.3   212  C5P212      0.1859
      7  C4'       15.3580    2.1450   -2.5490 C.3   212  C5P212      0.1801
      8  O4'       16.2830    1.8310   -3.5720 O.3   212  C5P212     -0.3320
      9  C3'       15.4080    0.9560   -1.5730 C.3   212  C5P212      0.2158
     10  O3'       14.1910    0.8200   -0.8410 O.3   212  C5P212     -0.2175
     11  C2'       15.7270   -0.2130   -2.5460 C.3   212  C5P212      0.2319
     12  O2'       14.7010   -1.2170   -2.5020 O.3   212  C5P212     -0.2157
     13  C1'       15.8140    0.5070   -3.9190 C.3   212  C5P212      0.2400
     14  N1        16.7570   -0.1280   -4.8520 N.am  212  C5P212     -0.1778
     15  C2        16.2820   -0.8040   -5.9340 C.1   212  C5P212      0.2756
     16  N3        17.1210   -1.3830   -6.8060 N.2   212  C5P212     -0.3024
     17  C4        18.4440   -1.3090   -6.6330 C.2   212  C5P212      0.2346
     18  C5        18.9690   -0.6110   -5.5140 C.2   212  C5P212      0.0687
     19  C6        18.1070   -0.0280   -4.6350 C.2   212  C5P212      0.0836
     20  O2        15.0740   -0.8870   -6.1240 O.2   212  C5P212     -0.1925
     21  N4        19.2910   -1.9050   -7.5320 N.pl3 212  C5P212     -0.0921
@<TRIPOS>BOND
     1    21    17    1
     2    16    17    2
     3    16    15    2
     4    17    18    1
     5    20    15    2
     6    15    14   am
     7    18    19    2
     8    14    19    1
     9    14    13    1
    10    13     8    1
    11    13    11    1
    12     1     2    2
    13     8     7    1
    14     5     2    1
    15     5     6    1
    16     7     6    1
    17     7     9    1
    18    11    12    1
    19    11     9    1
    20     2     3    1
    21     2     4    1
    22     9    10    1
