@<TRIPOS>MOLECULE
3at3_ATK_A_1.pdb
 30 34 0 0 0
SMALL
GASTEIGER

@<TRIPOS>ATOM
      1  N1        50.7070    9.0770   10.3080 N.2   336  ATK336     -0.2554
      2  N4        51.1820   10.5950   12.5270 N.2   336  ATK336     -0.3682
      3  C11       50.9090   10.3790   10.1850 C.3   336  ATK336      0.2045
      4  C12       51.1610   11.1710   11.3370 C.2   336  ATK336      0.2178
      5  N13       51.3890   12.5240   11.2580 N.ar  336  ATK336     -0.2038
      6  C14       50.9650    9.2950   12.6540 C.2   336  ATK336      0.2076
      7  C15       50.7220    8.5000   11.4980 C.2   336  ATK336      0.1416
      8  N15       50.9800    8.7840   13.9160 N.pl3 336  ATK336     -0.2605
      9  C17       51.4410   13.4500   12.2460 C.ar  336  ATK336      0.0879
     10  C18       51.6370   14.7150   11.6760 C.ar  336  ATK336      0.0387
     11  N20       51.5590   13.0890   10.1690 N.ar  336  ATK336     -0.1616
     12  C28       51.7030   14.4100   10.3080 C.ar  336  ATK336      0.1220
     13  C35       51.4110    9.2640   15.2110 C.2   336  ATK336      0.0593
     14  C36       51.5350    8.2860   16.2000 C.2   336  ATK336     -0.0164
     15  C37       51.1450    7.0800   15.6130 C.3   336  ATK336      0.0457
     16  C38       50.5860    7.4710   14.4010 C.3   336  ATK336      0.1024
     17  C44       51.7280   15.9160   12.3670 C.ar  336  ATK336      0.0044
     18  N44       51.3810   14.5970   15.7500 N.pl3 336  ATK336     -0.2393
     19  C45       51.6270   15.8270   13.7670 C.ar  336  ATK336      0.0162
     20  C46       51.4500   14.5700   14.4040 C.ar  336  ATK336      0.0667
     21  C47       51.3440   13.3550   13.6510 C.ar  336  ATK336      0.0354
     22  C48       51.6300   13.3940   16.5550 C.3   336  ATK336      0.0925
     23  C57       50.3000   12.9860   17.1940 C.3   336  ATK336      0.0216
     24  C58       50.3650   13.6850   18.5530 C.3   336  ATK336      0.0018
     25  C59       51.6650   14.5020   18.6430 C.3   336  ATK336      0.0018
     26  C60       52.5760   13.7260   17.7250 C.3   336  ATK336      0.0216
     27  O61       50.8260    8.6910   19.6960 O.co2 336  ATK336     -0.2453
     28  O63       50.1080    7.1470   18.3800 O.co2 336  ATK336     -0.2453
     29  C66       51.9820    8.4470   17.6220 C.3   336  ATK336      0.1374
     30  C68       50.8880    8.0680   18.6450 C.2   336  ATK336      0.3689
@<TRIPOS>BOND
     1    11    12   ar
     2    11     5   ar
     3     3     1    1
     4     3     4    1
     5    12    10   ar
     6     1     7    2
     7     5     4    1
     8     5     9   ar
     9     4     2    2
    10     7     6    1
    11    10     9   ar
    12    10    17   ar
    13     9    21   ar
    14    17    19   ar
    15     2     6    2
    16     6     8    1
    17    21    20   ar
    18    19    20   ar
    19     8    16    1
    20     8    13    1
    21    16    15    1
    22    20    18    1
    23    13    14    2
    24    15    14    1
    25    18    22    1
    26    14    29    1
    27    22    23    1
    28    22    26    1
    29    23    24    1
    30    29    30    1
    31    26    25    1
    32    28    30   ar
    33    24    25    1
    34    30    27   ar
