@<TRIPOS>MOLECULE
3at4_CCK_A_1.pdb
 28 31 0 0 0
SMALL
GASTEIGER

@<TRIPOS>ATOM
      1  N1       -25.1630   -9.1420  -29.5900 N.2   336  CCK336     -0.2552
      2  C2       -25.3790  -10.4650  -29.7320 C.3   336  CCK336      0.2045
      3  C3       -25.6700  -11.2840  -28.6050 C.2   336  CCK336      0.2181
      4  N4       -25.7230  -10.7100  -27.3800 N.2   336  CCK336     -0.3655
      5  C5       -25.4890   -9.4050  -27.2670 C.2   336  CCK336      0.2195
      6  C6       -25.2030   -8.5860  -28.3890 C.2   336  CCK336      0.1444
      7  N13      -25.9000  -12.6170  -28.7640 N.ar  336  CCK336     -0.2038
      8  N15      -25.5210   -8.8510  -26.0470 N.ar  336  CCK336     -0.2783
      9  C17      -26.0000  -13.6020  -27.8370 C.ar  336  CCK336      0.0880
     10  C18      -26.2570  -14.8190  -28.4690 C.ar  336  CCK336      0.0387
     11  C19      -26.3040  -14.4370  -29.8220 C.ar  336  CCK336      0.1220
     12  N20      -26.0490  -13.1210  -29.8910 N.ar  336  CCK336     -0.1616
     13  C26      -25.8140   -9.4160  -24.7480 C.ar  336  CCK336      0.0787
     14  C27      -25.8410   -8.5280  -23.7030 C.ar  336  CCK336      0.0082
     15  C28      -25.4930   -7.2670  -24.2330 C.ar  336  CCK336      0.0168
     16  C29      -25.3040   -7.4750  -25.6030 C.ar  336  CCK336      0.0822
     17  C35      -26.4110  -16.0510  -27.8340 C.ar  336  CCK336      0.0044
     18  C36      -26.2910  -16.0500  -26.4310 C.ar  336  CCK336      0.0162
     19  C37      -26.0320  -14.8380  -25.7380 C.ar  336  CCK336      0.0667
     20  C38      -25.8850  -13.5920  -26.4340 C.ar  336  CCK336      0.0354
     21  N44      -25.9190  -14.8940  -24.3800 N.pl3 336  CCK336     -0.2393
     22  C46      -26.0530  -13.7080  -23.5480 C.3   336  CCK336      0.0926
     23  C48      -24.7970  -13.4200  -22.7100 C.3   336  CCK336      0.0233
     24  C51      -27.3490  -13.7310  -22.7350 C.3   336  CCK336      0.0233
     25  C57      -26.2210   -8.9040  -22.2910 C.3   336  CCK336      0.1419
     26  C59      -25.4200   -8.1890  -21.2120 C.2   336  CCK336      0.3693
     27  O61      -24.7790   -7.1440  -21.4800 O.co2 336  CCK336     -0.2453
     28  O63      -25.4780   -8.7170  -20.1000 O.co2 336  CCK336     -0.2453
@<TRIPOS>BOND
     1    12    11   ar
     2    12     7   ar
     3    11    10   ar
     4     2     1    1
     5     2     3    1
     6     1     6    2
     7     7     3    1
     8     7     9   ar
     9     3     4    2
    10    10     9   ar
    11    10    17   ar
    12     6     5    1
    13     9    20   ar
    14    17    18   ar
    15     4     5    2
    16     5     8    1
    17    20    19   ar
    18    18    19   ar
    19     8    16   ar
    20     8    13   ar
    21    19    21    1
    22    16    15   ar
    23    13    14   ar
    24    21    22    1
    25    15    14   ar
    26    14    25    1
    27    22    24    1
    28    22    23    1
    29    25    26    1
    30    27    26   ar
    31    26    28   ar
