@<TRIPOS>MOLECULE
3at5_HEM_A_1.pdb
 43 50 0 0 0
SMALL
GASTEIGER

@<TRIPOS>ATOM
      1  CHA       20.0910    9.6760   28.7890 C.2   142  HEM142      0.0000
      2  CHB       16.2240    8.5510   31.4120 C.2   142  HEM142      0.0000
      3  CHC       16.8770    4.0090   30.3570 C.2   142  HEM142      0.0000
      4  CHD       20.6900    5.0920   27.6740 C.2   142  HEM142      0.0000
      5  C1A       18.9340    9.8040   29.6080 C.2   142  HEM142      0.0000
      6  C2A       18.5370   10.9480   30.2300 C.2   142  HEM142      0.0000
      7  C3A       17.4200   10.6360   31.0100 C.2   142  HEM142      0.0000
      8  C4A       17.1010    9.3600   30.6430 C.2   142  HEM142      0.0000
      9  CMA       16.5000   11.6210   31.7100 C.3   142  HEM142      0.0000
     10  CAA       19.1230   12.3620   30.0060 C.3   142  HEM142      0.0000
     11  CBA       18.4620   13.1280   28.9350 C.3   142  HEM142      0.0000
     12  CGA       18.8280   14.6100   28.7990 C.2   142  HEM142      0.0000
     13  O1A       19.5040   15.2230   29.6550 O.co2 142  HEM142      0.0000
     14  O2A       18.9690   15.0860   27.6560 O.co2 142  HEM142      0.0000
     15  C1B       15.8470    7.2170   31.1400 C.ar  142  HEM142      0.0000
     16  C2B       14.8240    6.5550   31.8070 C.ar  142  HEM142      0.0000
     17  C3B       15.0350    5.2320   31.4850 C.ar  142  HEM142      0.0000
     18  C4B       16.2890    5.1540   30.9110 C.ar  142  HEM142      0.0000
     19  CMB       13.6890    7.2590   32.5060 C.3   142  HEM142      0.0000
     20  CAB       14.1540    4.1480   31.6760 C.3   142  HEM142      0.0000
     21  CBB       13.6530    3.7690   32.9510 C.3   142  HEM142      0.0000
     22  C1C       17.9860    3.8250   29.5230 C.2   142  HEM142      0.0000
     23  C2C       18.5970    2.6190   29.2620 C.2   142  HEM142      0.0000
     24  C3C       19.6280    2.9360   28.3900 C.2   142  HEM142      0.0000
     25  C4C       19.7320    4.3000   28.3420 C.2   142  HEM142      0.0000
     26  CMC       17.9860    1.2310   29.5390 C.3   142  HEM142      0.0000
     27  CAC       20.5130    2.0900   27.7210 C.3   142  HEM142      0.0000
     28  CBC       21.3710    1.0920   28.2760 C.3   142  HEM142      0.0000
     29  C1D       20.9820    6.4420   27.8100 C.ar  142  HEM142      0.0000
     30  C2D       22.0390    7.1250   27.2340 C.ar  142  HEM142      0.0000
     31  C3D       21.7310    8.4650   27.3470 C.ar  142  HEM142      0.0000
     32  C4D       20.6480    8.5110   28.2470 C.ar  142  HEM142      0.0000
     33  CMD       23.2500    6.5060   26.6120 C.3   142  HEM142      0.0000
     34  CAD       22.7840    9.6230   27.2280 C.3   142  HEM142      0.0000
     35  CBD       23.7990    9.5220   28.3910 C.3   142  HEM142      0.0000
     36  CGD       24.9100   10.5960   28.3290 C.2   142  HEM142      0.0000
     37  O1D       25.7480   10.4550   27.4900 O.co2 142  HEM142      0.0000
     38  O2D       24.6600   11.6480   28.8450 O.co2 142  HEM142      0.0000
     39  NA        18.1500    8.7790   29.9980 N.2   142  HEM142      0.0000
     40  NB        16.7240    6.3570   30.6230 N.ar  142  HEM142      0.0000
     41  NC        18.6780    4.8700   28.9810 N.2   142  HEM142      0.0000
     42  ND        20.1320    7.2930   28.3720 N.ar  142  HEM142      0.0000
     43 FE         18.4340    6.8110   29.5230 Fe    142  HEM142      0.0000
@<TRIPOS>BOND
     1    33    30    1
     2    34    31    1
     3    34    35    1
     4    30    31   ar
     5    30    29   ar
     6    31    32   ar
     7    37    36   ar
     8    14    12   ar
     9     4    29    2
    10     4    25    1
    11    27    28    1
    12    27    24    1
    13    29    42   ar
    14    32    42   ar
    15    32     1    2
    16    36    35    1
    17    36    38   ar
    18    25    24    1
    19    25    41    2
    20    42    43    1
    21    24    23    2
    22     1     5    1
    23    12    11    1
    24    12    13   ar
    25    11    10    1
    26    41    43    1
    27    41    22    1
    28    23    22    1
    29    23    26    1
    30    43    39    1
    31    43    40    1
    32    22     3    2
    33     5    39    2
    34     5     6    1
    35    39     8    1
    36    10     6    1
    37     6     7    2
    38     3    18    1
    39    40    18   ar
    40    40    15   ar
    41     8     7    1
    42     8     2    2
    43    18    17   ar
    44     7     9    1
    45    15     2    1
    46    15    16   ar
    47    17    20    1
    48    17    16   ar
    49    20    21    1
    50    16    19    1
