@<TRIPOS>MOLECULE
3at6_HEM_A_1.pdb
 43 50 0 0 0
SMALL
GASTEIGER

@<TRIPOS>ATOM
      1  CHA       53.3850    7.0800   72.3120 C.2   142  HEM142      0.0000
      2  CHB       53.6140    3.9300   76.0040 C.2   142  HEM142      0.0000
      3  CHC       52.3500    7.4000   79.0990 C.2   142  HEM142      0.0000
      4  CHD       51.7030   10.4800   75.4120 C.2   142  HEM142      0.0000
      5  C1A       53.5370    5.8930   73.0170 C.2   142  HEM142      0.0000
      6  C2A       53.8930    4.5950   72.4820 C.2   142  HEM142      0.0000
      7  C3A       53.9530    3.7360   73.5220 C.2   142  HEM142      0.0000
      8  C4A       53.6510    4.4580   74.7330 C.2   142  HEM142      0.0000
      9  CMA       54.3170    2.2410   73.4040 C.3   142  HEM142      0.0000
     10  CAA       54.1410    4.2160   70.9810 C.3   142  HEM142      0.0000
     11  CBA       55.5480    4.6440   70.6180 C.3   142  HEM142      0.0000
     12  CGA       55.9570    4.1970   69.2360 C.2   142  HEM142      0.0000
     13  O1A       55.0850    3.8270   68.4060 O.co2 142  HEM142      0.0000
     14  O2A       57.1910    4.2330   68.9730 O.co2 142  HEM142      0.0000
     15  C1B       53.3170    4.5670   77.1930 C.ar  142  HEM142      0.0000
     16  C2B       53.3320    3.9830   78.5200 C.ar  142  HEM142      0.0000
     17  C3B       52.9840    4.9670   79.3850 C.ar  142  HEM142      0.0000
     18  C4B       52.7460    6.1770   78.6260 C.ar  142  HEM142      0.0000
     19  CMB       53.6960    2.5010   78.8570 C.3   142  HEM142      0.0000
     20  CAB       52.8690    4.8900   80.9390 C.2   142  HEM142      0.0000
     21  CBB       52.6100    3.7600   81.6190 C.2   142  HEM142      0.0000
     22  C1C       51.9830    8.5010   78.3800 C.2   142  HEM142      0.0000
     23  C2C       51.3930    9.7080   78.9220 C.2   142  HEM142      0.0000
     24  C3C       51.1840   10.5710   77.9050 C.2   142  HEM142      0.0000
     25  C4C       51.6820    9.9350   76.6830 C.2   142  HEM142      0.0000
     26  CMC       51.0370    9.9180   80.4380 C.3   142  HEM142      0.0000
     27  CAC       50.6050   12.0190   77.9940 C.2   142  HEM142      0.0000
     28  CBC       49.3250   12.3940   78.1610 C.2   142  HEM142      0.0000
     29  C1D       52.0870    9.9000   74.2110 C.ar  142  HEM142      0.0000
     30  C2D       52.0340   10.5080   72.8830 C.ar  142  HEM142      0.0000
     31  C3D       52.5820    9.4180   71.9430 C.ar  142  HEM142      0.0000
     32  C4D       52.9000    8.2910   72.7750 C.ar  142  HEM142      0.0000
     33  CMD       51.5340   11.9250   72.5380 C.3   142  HEM142      0.0000
     34  CAD       52.7590    9.4240   70.4220 C.3   142  HEM142      0.0000
     35  CBD       51.4560    8.8760   69.8610 C.3   142  HEM142      0.0000
     36  CGD       51.4510    8.8980   68.3500 C.2   142  HEM142      0.0000
     37  O1D       51.8560    9.9400   67.7590 O.co2 142  HEM142      0.0000
     38  O2D       51.0230    7.8730   67.7410 O.co2 142  HEM142      0.0000
     39  NA        53.3800    5.7580   74.3770 N.2   142  HEM142      0.0000
     40  NB        52.9590    5.8940   77.3220 N.ar  142  HEM142      0.0000
     41  NC        52.1710    8.6800   77.0190 N.2   142  HEM142      0.0000
     42  ND        52.6050    8.6220   74.0870 N.ar  142  HEM142      0.0000
     43 FE         52.7710    7.2910   75.7200 Fe    142  HEM142      0.0000
@<TRIPOS>BOND
     1    38    36   ar
     2    37    36   ar
     3    36    35    1
     4    13    12   ar
     5    14    12   ar
     6    12    11    1
     7    35    34    1
     8    34    31    1
     9    11    10    1
    10    10     6    1
    11    31    32   ar
    12    31    30   ar
    13     1    32    2
    14     1     5    1
    15     6     5    1
    16     6     7    2
    17    33    30    1
    18    32    42   ar
    19    30    29   ar
    20     5    39    2
    21     9     7    1
    22     7     8    1
    23    42    29   ar
    24    42    43    1
    25    29     4    2
    26    39     8    1
    27    39    43    1
    28     8     2    2
    29     4    25    1
    30    43    41    1
    31    43    40    1
    32     2    15    1
    33    25    41    2
    34    25    24    1
    35    41    22    1
    36    15    40   ar
    37    15    16   ar
    38    40    18   ar
    39    24    27    1
    40    24    23    2
    41    27    28    2
    42    22    23    1
    43    22     3    2
    44    16    19    1
    45    16    17   ar
    46    18     3    1
    47    18    17   ar
    48    23    26    1
    49    17    20    1
    50    20    21    2
