@<TRIPOS>MOLECULE
3ath_PLP_A_1.pdb
 15 15 0 0 0
SMALL
GASTEIGER

@<TRIPOS>ATOM
      1  N1        -6.3400    6.8560  -20.6020 N.2   429  PLP429     -0.2505
      2  C2        -6.1830    8.0260  -19.9680 C.2   429  PLP429      0.0675
      3  C2A       -7.1870    8.3050  -18.8700 C.3   429  PLP429      0.0499
      4  C3        -5.0440    8.8260  -20.2780 C.3   429  PLP429      0.1913
      5  O3        -4.8780    9.9710  -19.5820 O.3   429  PLP429     -0.2167
      6  C4        -4.0990    8.4340  -21.2530 C.3   429  PLP429      0.0581
      7  C4A       -2.7210    9.0570  -21.2810 C.3   429  PLP429      0.0075
      8  C5        -4.3150    7.2060  -21.9070 C.2   429  PLP429      0.0073
      9  C6        -5.4510    6.4830  -21.5970 C.2   429  PLP429      0.0921
     10  C5A       -3.3870    6.7730  -22.9700 C.3   429  PLP429      0.1776
     11  O4P       -4.0490    6.0470  -23.9620 O.3   429  PLP429     -0.2656
     12  P         -3.1230    5.3050  -25.0760 P.3   429  PLP429      0.5329
     13  O1P       -1.9490    6.2150  -25.4630 O.3   429  PLP429     -0.1145
     14  O2P       -4.0890    4.9560  -26.1940 O.2   429  PLP429     -0.2224
     15  O3P       -2.5360    4.0860  -24.4250 O.3   429  PLP429     -0.1145
@<TRIPOS>BOND
     1    14    12    2
     2    13    12    1
     3    12    15    1
     4    12    11    1
     5    11    10    1
     6    10     8    1
     7     8     9    2
     8     8     6    1
     9     9     1    1
    10     7     6    1
    11     6     4    1
    12     1     2    2
    13     4     2    1
    14     4     5    1
    15     2     3    1
