@<TRIPOS>MOLECULE
3ath_AKG_A_1.pdb
 10 9 0 0 0
SMALL
GASTEIGER

@<TRIPOS>ATOM
      1  C1         0.5010    1.6410  -17.1060 C.2   430  AKG430      0.4219
      2  O1        -0.5570    1.7460  -17.6840 O.co2 430  AKG430     -0.2373
      3  O2         1.5070    2.2230  -17.5030 O.co2 430  AKG430     -0.2373
      4  C2         0.5670    0.8490  -15.8950 C.2   430  AKG430      0.2526
      5  O5         0.6380   -0.3690  -15.8930 O.2   430  AKG430     -0.2843
      6  C3         0.4890    1.6010  -14.6140 C.3   430  AKG430      0.0881
      7  C4         0.5060    3.0470  -15.0000 C.3   430  AKG430      0.1224
      8  C5         1.9360    3.4790  -14.9510 C.2   430  AKG430      0.3653
      9  O3         2.2000    4.6630  -14.9910 O.co2 430  AKG430     -0.2456
     10  O4         2.7710    2.5720  -14.8770 O.co2 430  AKG430     -0.2456
@<TRIPOS>BOND
     1     2     1   ar
     2     3     1   ar
     3     1     4    1
     4     4     5    2
     5     4     6    1
     6     7     8    1
     7     7     6    1
     8     9     8   ar
     9     8    10   ar
