@<TRIPOS>MOLECULE
3ati_SZ4_A_1.pdb
 10 10 0 0 0
SMALL
GASTEIGER

@<TRIPOS>ATOM
      1  N         -2.9810  -13.4170   18.8090 N.3     6  SZ46       -0.1262
      2  O         -2.7890  -17.2940   15.5400 O.3     6  SZ46       -0.4714
      3  C1        -1.7810  -13.1740   18.0390 C.3     6  SZ46        0.1357
      4  C2        -1.7690  -13.9950   16.7700 C.ar    6  SZ46       -0.0002
      5  C3        -1.2180  -13.4530   15.6120 C.ar    6  SZ46       -0.0026
      6  C4        -1.1900  -14.1930   14.4360 C.ar    6  SZ46        0.0028
      7  C5        -1.7220  -15.4810   14.4160 C.ar    6  SZ46        0.0369
      8  C6        -2.2700  -16.0270   15.5760 C.ar    6  SZ46        0.1385
      9  C7        -2.6500  -18.1770   16.6530 C.3     6  SZ46        0.2525
     10  C8        -2.2970  -15.2860   16.7530 C.ar    6  SZ46        0.0341
@<TRIPOS>BOND
     1     7     6   ar
     2     7     8   ar
     3     6     5   ar
     4     2     8    1
     5     2     9    1
     6     8    10   ar
     7     5     4   ar
     8    10     4   ar
     9     4     3    1
    10     3     1    1
