@<TRIPOS>MOLECULE
3atj_HEM_A_1.pdb
 43 50 0 0 0
SMALL
GASTEIGER

@<TRIPOS>ATOM
      1 FE         -1.9160    0.5960   31.3990 Fe    350  HEM350      0.0000
      2  CHA        1.4020    1.4180   31.8400 C.2   350  HEM350      0.0000
      3  CHB       -2.7630    2.6030   34.0860 C.2   350  HEM350      0.0000
      4  CHC       -5.2120   -0.0900   30.8580 C.2   350  HEM350      0.0000
      5  CHD       -1.0540   -1.1640   28.5420 C.2   350  HEM350      0.0000
      6  NA        -0.9090    1.7570   32.6640 N.2   350  HEM350      0.0000
      7  C1A        0.4620    1.9970   32.6950 C.2   350  HEM350      0.0000
      8  C2A        0.8060    2.8600   33.8340 C.2   350  HEM350      0.0000
      9  C3A       -0.3380    3.1490   34.4910 C.2   350  HEM350      0.0000
     10  C4A       -1.4130    2.5020   33.7460 C.2   350  HEM350      0.0000
     11  CMA       -0.4670    3.9540   35.7710 C.3   350  HEM350      0.0000
     12  CAA        2.1970    3.3710   34.1950 C.3   350  HEM350      0.0000
     13  CBA        2.4610    4.7360   33.5730 C.3   350  HEM350      0.0000
     14  CGA        3.8490    5.2590   33.8810 C.2   350  HEM350      0.0000
     15  O1A        4.3170    6.1610   33.1610 O.co2 350  HEM350      0.0000
     16  O2A        4.4720    4.7660   34.8430 O.co2 350  HEM350      0.0000
     17  NB        -3.6150    1.1220   32.3050 N.ar  350  HEM350      0.0000
     18  C1B       -3.7890    1.9500   33.4190 C.ar  350  HEM350      0.0000
     19  C2B       -5.1720    1.9620   33.8530 C.ar  350  HEM350      0.0000
     20  C3B       -5.8620    1.1360   33.0120 C.ar  350  HEM350      0.0000
     21  C4B       -4.9000    0.6680   32.0010 C.ar  350  HEM350      0.0000
     22  CMB       -5.7650    2.8100   34.9690 C.3   350  HEM350      0.0000
     23  CAB       -7.2280    0.8490   33.1150 C.3   350  HEM350      0.0000
     24  CBB       -7.7910   -0.4810   33.0750 C.3   350  HEM350      0.0000
     25  NC        -2.9200   -0.3330   29.9630 N.2   350  HEM350      0.0000
     26  C1C       -4.2970   -0.5360   29.8980 C.2   350  HEM350      0.0000
     27  C2C       -4.6580   -1.2720   28.6940 C.2   350  HEM350      0.0000
     28  C3C       -3.5020   -1.5130   28.0050 C.2   350  HEM350      0.0000
     29  C4C       -2.4170   -0.9680   28.8170 C.2   350  HEM350      0.0000
     30  CMC       -6.0720   -1.7040   28.2980 C.3   350  HEM350      0.0000
     31  CAC       -3.3650   -2.0550   26.7250 C.3   350  HEM350      0.0000
     32  CBC       -3.9340   -3.3240   26.3040 C.3   350  HEM350      0.0000
     33  ND        -0.1910    0.1400   30.4470 N.ar  350  HEM350      0.0000
     34  C1D       -0.0040   -0.6820   29.3260 C.ar  350  HEM350      0.0000
     35  C2D        1.4100   -0.9830   29.1290 C.ar  350  HEM350      0.0000
     36  C3D        2.1040   -0.2030   30.0240 C.ar  350  HEM350      0.0000
     37  C4D        1.1060    0.5050   30.8290 C.ar  350  HEM350      0.0000
     38  CMD        1.9760   -2.0500   28.1970 C.3   350  HEM350      0.0000
     39  CAD        3.6190    0.0120   30.1120 C.3   350  HEM350      0.0000
     40  CBD        4.0660    1.0800   29.1270 C.3   350  HEM350      0.0000
     41  CGD        5.5730    1.2770   29.1060 C.2   350  HEM350      0.0000
     42  O1D        6.0500    2.1310   28.3290 O.co2 350  HEM350      0.0000
     43  O2D        6.2770    0.5800   29.8660 O.co2 350  HEM350      0.0000
@<TRIPOS>BOND
     1    32    31    1
     2    31    28    1
     3    28    27    2
     4    28    29    1
     5    38    35    1
     6    30    27    1
     7    42    41   ar
     8     5    29    1
     9     5    34    2
    10    27    26    1
    11    29    25    2
    12    41    40    1
    13    41    43   ar
    14    40    39    1
    15    35    34   ar
    16    35    36   ar
    17    34    33   ar
    18    26    25    1
    19    26     4    2
    20    25     1    1
    21    36    39    1
    22    36    37   ar
    23    33    37   ar
    24    33     1    1
    25    37     2    2
    26     4    21    1
    27     1    17    1
    28     1     6    1
    29     2     7    1
    30    21    17   ar
    31    21    20   ar
    32    17    18   ar
    33     6     7    2
    34     6    10    1
    35     7     8    1
    36    20    23    1
    37    20    19   ar
    38    24    23    1
    39    15    14   ar
    40    18    19   ar
    41    18     3    1
    42    13    14    1
    43    13    12    1
    44    10     3    2
    45    10     9    1
    46     8    12    1
    47     8     9    2
    48    19    22    1
    49    14    16   ar
    50     9    11    1
