@<TRIPOS>MOLECULE
3atj_BHO_A_1.pdb
 10 10 0 0 0
SMALL
GASTEIGER

@<TRIPOS>ATOM
      1  C1        -3.0080    6.6940   33.1280 C.ar  353  BHO353      0.0227
      2  C2        -3.9820    7.6780   33.5110 C.ar  353  BHO353      0.0019
      3  C3        -3.6660    8.6090   34.5170 C.ar  353  BHO353      0.0001
      4  C4        -2.4420    8.5310   35.1970 C.ar  353  BHO353      0.0000
      5  C5        -1.5080    7.5340   34.8660 C.ar  353  BHO353      0.0001
      6  C6        -1.7190    6.7040   33.7530 C.ar  353  BHO353      0.0019
      7  C         -3.3200    5.7060   32.0690 C.2   353  BHO353      0.1101
      8  O1        -2.3710    4.9120   31.6870 O.2   353  BHO353     -0.5359
      9  N         -4.5080    5.6070   31.5640 N.am  353  BHO353     -0.1984
     10  O2        -4.7980    4.5280   30.6820 O.3   353  BHO353     -0.4024
@<TRIPOS>BOND
     1    10     9    1
     2     9     7   am
     3     8     7    2
     4     7     1    1
     5     1     2   ar
     6     1     6   ar
     7     2     3   ar
     8     6     5   ar
     9     3     4   ar
    10     5     4   ar
