@<TRIPOS>MOLECULE
3atm_TSS_A_1.pdb
 12 13 0 0 0
SMALL
GASTEIGER

@<TRIPOS>ATOM
      1  N1        -1.8380  -12.6490   18.0740 N.3     5  TSS5       -0.1310
      2  CA        -2.0560  -13.3430   16.8190 C.3     5  TSS5        0.1140
      3  CB        -0.8540  -14.2220   16.5320 C.3     5  TSS5        0.0485
      4  CG        -1.1600  -15.2300   15.4610 C.2     5  TSS5       -0.0004
      5  CD1       -0.6320  -15.2810   14.1750 C.2     5  TSS5        0.0946
      6  NE1       -1.1360  -16.3510   13.4940 N.2     5  TSS5       -0.2442
      7  CE2       -1.9910  -17.0560   14.2530 C.2     5  TSS5        0.0804
      8  CD2       -2.0630  -16.3910   15.5620 C.2     5  TSS5        0.0113
      9  CZ2       -2.7590  -18.1980   14.0540 C.2     5  TSS5        0.0148
     10  CH2       -3.5630  -18.6740   15.0920 C.2     5  TSS5       -0.0199
     11  CZ3       -3.6180  -18.0290   16.3360 C.3     5  TSS5        0.0521
     12  CE3       -2.8660  -16.8790   16.5810 C.2     5  TSS5       -0.0202
@<TRIPOS>BOND
     1     6     5    1
     2     6     7    2
     3     9     7    1
     4     9    10    2
     5     5     4    2
     6     7     8    1
     7    10    11    1
     8     4     8    1
     9     4     3    1
    10     8    12    2
    11    11    12    1
    12     3     2    1
    13     2     1    1
