@<TRIPOS>MOLECULE
3att_ATP_A_1.pdb
 31 33 0 0 0
SMALL
GASTEIGER

@<TRIPOS>ATOM
      1  PG         4.5640   34.2230   69.6660 P.3   510  ATP510      0.5373
      2  O1G        5.3070   33.7840   68.3550 O.2   510  ATP510     -0.2221
      3  O2G        5.4440   34.9230   70.6950 O.3   510  ATP510     -0.1143
      4  O3G        3.1420   34.7700   69.5160 O.3   510  ATP510     -0.1143
      5  PB         3.3410   31.9800   71.0900 P.3   510  ATP510      0.2277
      6  O1B        1.8740   32.0840   71.2860 O.3   510  ATP510     -0.4368
      7  O2B        3.4170   30.7530   70.2140 O.2   510  ATP510     -0.5168
      8  O3B        4.3050   32.6720   70.0640 O.3   510  ATP510     -0.2258
      9  PA         5.5990   31.2100   72.7390 P.3   510  ATP510      0.2189
     10  O1A        5.6840   29.7050   72.9970 O.3   510  ATP510     -0.4371
     11  O2A        6.6080   31.9260   71.8480 O.2   510  ATP510     -0.5170
     12  O3A        4.0860   31.6080   72.4480 O.3   510  ATP510     -0.2700
     13  O5'        5.6890   31.9160   74.1730 O.3   510  ATP510     -0.3112
     14  C5'        5.2270   33.2630   74.2680 C.3   510  ATP510      0.1813
     15  C4'        5.9470   33.9980   75.3920 C.3   510  ATP510      0.1821
     16  O4'        5.2790   33.4990   76.5660 O.3   510  ATP510     -0.3135
     17  C3'        7.3800   33.5810   75.6080 C.3   510  ATP510      0.2184
     18  O3'        8.2990   34.4760   75.0180 O.3   510  ATP510     -0.2174
     19  C2'        7.5240   33.6530   77.1380 C.3   510  ATP510      0.2570
     20  O2'        7.7290   34.9820   77.6050 O.3   510  ATP510     -0.2130
     21  C1'        6.1600   33.2710   77.6470 C.3   510  ATP510      0.3186
     22  N9         6.2350   31.7910   77.8930 N.pl3 510  ATP510     -0.1439
     23  C8         5.7930   30.8180   77.0700 C.3   510  ATP510      0.3377
     24  N7         6.0260   29.5890   77.6040 N.2   510  ATP510     -0.2095
     25  C5         6.6290   29.7660   78.8100 C.2   510  ATP510      0.2526
     26  C6         7.1430   28.9180   79.9060 C.2   510  ATP510      0.4393
     27  N6         7.0510   27.5540   79.9260 N.pl3 510  ATP510      0.2180
     28  N1         7.6940   29.5610   80.9610 N.2   510  ATP510      0.0021
     29  C2         7.8030   30.9050   81.0820 C.3   510  ATP510      0.5254
     30  N3         7.3330   31.7280   80.1210 N.2   510  ATP510     -0.0055
     31  C4         6.7650   31.2310   78.9850 C.2   510  ATP510      0.3518
@<TRIPOS>BOND
     1     2     1    2
     2     4     1    1
     3     1     8    1
     4     1     3    1
     5     8     5    1
     6     7     5    2
     7     5     6    1
     8     5    12    1
     9    11     9    2
    10    12     9    1
    11     9    10    1
    12     9    13    1
    13    13    14    1
    14    14    15    1
    15    18    17    1
    16    15    17    1
    17    15    16    1
    18    17    19    1
    19    16    21    1
    20    23    24    1
    21    23    22    1
    22    19    20    1
    23    19    21    1
    24    24    25    2
    25    21    22    1
    26    22    31    1
    27    25    31    1
    28    25    26    1
    29    31    30    2
    30    26    27    1
    31    26    28    2
    32    30    29    1
    33    28    29    1
