@<TRIPOS>MOLECULE
3atu_ADP_A_1.pdb
 27 29 0 0 0
SMALL
GASTEIGER

@<TRIPOS>ATOM
      1  PB         4.4130   12.6730   17.9280 P.3   1452  ADP1452     0.5373
      2  O1B        4.5700   12.6760   19.4350 O.3   1452  ADP1452    -0.1143
      3  O2B        3.5980   11.5420   17.3770 O.3   1452  ADP1452    -0.1143
      4  O3B        5.7420   12.8540   17.2080 O.2   1452  ADP1452    -0.2221
      5  PA         3.0880   14.8160   16.3540 P.3   1452  ADP1452     0.2231
      6  O1A        3.0910   13.9140   15.1350 O.2   1452  ADP1452    -0.5169
      7  O2A        1.8780   15.5580   16.7670 O.3   1452  ADP1452    -0.4370
      8  O3A        3.5410   14.0040   17.6960 O.3   1452  ADP1452    -0.2261
      9  O5'        4.3500   15.8110   16.1740 O.3   1452  ADP1452    -0.3111
     10  C5'        4.5800   16.8560   17.1470 C.3   1452  ADP1452     0.1813
     11  C4'        5.5840   17.8700   16.6370 C.3   1452  ADP1452     0.1821
     12  O4'        5.0050   18.4930   15.4950 O.3   1452  ADP1452    -0.3135
     13  C3'        5.9250   18.9500   17.6560 C.3   1452  ADP1452     0.2184
     14  O3'        7.3690   19.1390   17.6160 O.3   1452  ADP1452    -0.2174
     15  C2'        5.1880   20.1620   17.1130 C.3   1452  ADP1452     0.2570
     16  O2'        5.7110   21.4340   17.5040 O.3   1452  ADP1452    -0.2130
     17  C1'        5.2840   19.8750   15.6160 C.3   1452  ADP1452     0.3186
     18  N9         4.3090   20.6000   14.8200 N.pl3 1452  ADP1452    -0.1439
     19  C8         2.9450   20.5710   14.9080 C.3   1452  ADP1452     0.3377
     20  N7         2.4170   21.3960   13.9730 N.2   1452  ADP1452    -0.2095
     21  C5         3.4470   21.9300   13.2790 C.2   1452  ADP1452     0.2526
     22  C6         3.5720   22.8970   12.1870 C.2   1452  ADP1452     0.4393
     23  N6         2.4460   23.4110   11.6480 N.pl3 1452  ADP1452     0.2180
     24  N1         4.8210   23.1980   11.7440 N.2   1452  ADP1452     0.0021
     25  C2         5.9260   22.6690   12.3000 C.3   1452  ADP1452     0.5254
     26  N3         5.8910   21.7690   13.3180 N.2   1452  ADP1452    -0.0055
     27  C4         4.6810   21.4140   13.8400 C.2   1452  ADP1452     0.3518
@<TRIPOS>BOND
     1    23    22    1
     2    24    22    2
     3    24    25    1
     4    22    21    1
     5    25    26    1
     6    21    27    1
     7    21    20    2
     8    26    27    2
     9    27    18    1
    10    20    19    1
    11    18    19    1
    12    18    17    1
    13     6     5    2
    14    12    17    1
    15    12    11    1
    16    17    15    1
    17     9     5    1
    18     9    10    1
    19     5     7    1
    20     5     8    1
    21    11    10    1
    22    11    13    1
    23    15    16    1
    24    15    13    1
    25     4     1    2
    26     3     1    1
    27    14    13    1
    28     8     1    1
    29     1     2    1
