@<TRIPOS>MOLECULE
3atv_ADP_A_1.pdb
 27 29 0 0 0
SMALL
GASTEIGER

@<TRIPOS>ATOM
      1  PB        -4.5050   18.9420   18.2000 P.3   1452  ADP1452     0.5373
      2  O1B       -3.8370   19.6500   19.3680 O.3   1452  ADP1452    -0.1143
      3  O2B       -5.2460   19.8030   17.2230 O.2   1452  ADP1452    -0.2221
      4  O3B       -5.4110   17.8230   18.6840 O.3   1452  ADP1452    -0.1143
      5  PA        -2.9810   17.0400   16.4270 P.3   1452  ADP1452     0.2231
      6  O1A       -2.8260   17.6630   15.0510 O.2   1452  ADP1452    -0.5169
      7  O2A       -1.8230   16.2640   16.9970 O.3   1452  ADP1452    -0.4370
      8  O3A       -3.2240   18.2120   17.5050 O.3   1452  ADP1452    -0.2261
      9  O5'       -4.3060   16.1420   16.3600 O.3   1452  ADP1452    -0.3111
     10  C5'       -4.5510   15.1020   17.3070 C.3   1452  ADP1452     0.1813
     11  C4'       -5.5480   14.0970   16.7460 C.3   1452  ADP1452     0.1821
     12  O4'       -4.9160   13.4330   15.6450 O.3   1452  ADP1452    -0.3135
     13  C3'       -5.8800   12.9800   17.7220 C.3   1452  ADP1452     0.2184
     14  O3'       -7.2800   12.7420   17.6200 O.3   1452  ADP1452    -0.2174
     15  C2'       -5.1240   11.7650   17.1790 C.3   1452  ADP1452     0.2570
     16  O2'       -5.6730   10.4840   17.4940 O.3   1452  ADP1452    -0.2130
     17  C1'       -5.2210   12.0620   15.6920 C.3   1452  ADP1452     0.3186
     18  N9        -4.2420   11.3250   14.8860 N.pl3 1452  ADP1452    -0.1439
     19  C8        -2.8950   11.3910   14.9950 C.3   1452  ADP1452     0.3377
     20  N7        -2.2980   10.5880   14.0810 N.2   1452  ADP1452    -0.2095
     21  C5        -3.2920    9.9900   13.3810 C.2   1452  ADP1452     0.2526
     22  C6        -3.3390    9.0270   12.2840 C.2   1452  ADP1452     0.4393
     23  N6        -2.1730    8.5330   11.7770 N.pl3 1452  ADP1452     0.2180
     24  N1        -4.5700    8.6830   11.8270 N.2   1452  ADP1452     0.0021
     25  C2        -5.7080    9.1800   12.3520 C.3   1452  ADP1452     0.5254
     26  N3        -5.7460   10.0740   13.3590 N.2   1452  ADP1452    -0.0055
     27  C4        -4.5670   10.4960   13.9020 C.2   1452  ADP1452     0.3518
@<TRIPOS>BOND
     1    23    22    1
     2    24    22    2
     3    24    25    1
     4    22    21    1
     5    25    26    1
     6    26    27    2
     7    21    27    1
     8    21    20    2
     9    27    18    1
    10    20    19    1
    11    18    19    1
    12    18    17    1
    13     6     5    2
    14    12    17    1
    15    12    11    1
    16    17    15    1
    17     9     5    1
    18     9    10    1
    19     5     7    1
    20     5     8    1
    21    11    10    1
    22    11    13    1
    23    15    16    1
    24    15    13    1
    25     3     1    2
    26     8     1    1
    27    14    13    1
    28     1     4    1
    29     1     2    1
