@<TRIPOS>MOLECULE
3aty_FMN_A_1.pdb
 31 33 0 0 0
SMALL
GASTEIGER

@<TRIPOS>ATOM
      1  N1        16.6680   -5.2040   -3.1200 N.2   500  FMN500     -0.2890
      2  C2        17.1480   -3.9180   -3.1160 C.1   500  FMN500      0.3669
      3  O2        18.1270   -3.5870   -2.4130 O.2   500  FMN500     -0.1744
      4  N3        16.5230   -2.9400   -3.9110 N.2   500  FMN500     -0.2300
      5  C4        15.4150   -3.2240   -4.7370 C.1   500  FMN500      0.2513
      6  O4        14.9050   -2.2550   -5.3960 O.2   500  FMN500     -0.2057
      7  C4A       14.9090   -4.5460   -4.7680 C.2   500  FMN500      0.2700
      8  N5        13.8420   -4.8780   -5.5430 N.2   500  FMN500     -0.3878
      9  C5A       13.3500   -6.1850   -5.5290 C.2   500  FMN500      0.1320
     10  C6        12.2110   -6.5590   -6.3240 C.2   500  FMN500      0.0250
     11  C7        11.6590   -7.8580   -6.3290 C.2   500  FMN500     -0.0238
     12  C7M       10.4640   -8.1600   -7.1800 C.3   500  FMN500      0.0308
     13  C8        12.2860   -8.8720   -5.4790 C.2   500  FMN500     -0.0280
     14  C8M       11.7790  -10.3060   -5.3970 C.3   500  FMN500      0.0304
     15  C9        13.3940   -8.5430   -4.6970 C.2   500  FMN500     -0.0041
     16  C9A       13.9600   -7.1960   -4.6920 C.3   500  FMN500      0.1497
     17  N10       15.0900   -6.8210   -3.8890 N.pl3 500  FMN500     -0.2691
     18  C10       15.6000   -5.5010   -3.9040 C.2   500  FMN500      0.2416
     19  C1'       15.7160   -7.8060   -2.9920 C.3   500  FMN500      0.1294
     20  C2'       14.8440   -7.7930   -1.7100 C.3   500  FMN500      0.2044
     21  O2'       15.0090   -6.5390   -1.0030 O.3   500  FMN500     -0.2185
     22  C3'       15.1680   -8.8900   -0.7220 C.3   500  FMN500      0.2164
     23  O3'       16.5450   -8.7350   -0.2600 O.3   500  FMN500     -0.2175
     24  C4'       15.0010  -10.3220   -1.3240 C.3   500  FMN500      0.2147
     25  O4'       13.6150  -10.4240   -1.7800 O.3   500  FMN500     -0.2176
     26  C5'       15.2930  -11.4360   -0.3630 C.3   500  FMN500      0.1892
     27  O5'       14.4590  -11.2810    0.8030 O.3   500  FMN500     -0.2674
     28  P         13.1320  -12.3090    1.0200 P.3   500  FMN500      0.5327
     29  O1P       13.6810  -13.7170    1.0670 O.3   500  FMN500     -0.1145
     30  O2P       12.5600  -11.8120    2.3190 O.3   500  FMN500     -0.1145
     31  O3P       12.1960  -12.0960   -0.1800 O.2   500  FMN500     -0.2224
@<TRIPOS>BOND
     1    12    11    1
     2    11    10    2
     3    11    13    1
     4    10     9    1
     5     8     9    2
     6     8     7    2
     7     9    16    1
     8    13    14    1
     9    13    15    2
    10     6     5    2
    11     7     5    1
    12     7    18    1
    13     5     4    2
    14    15    16    1
    15    16    17    1
    16     4     2    2
    17    18    17    1
    18    18     1    2
    19    17    19    1
    20     1     2    2
    21     2     3    2
    22    19    20    1
    23    25    24    1
    24    20    21    1
    25    20    22    1
    26    24    22    1
    27    24    26    1
    28    22    23    1
    29    26    27    1
    30    31    28    2
    31    27    28    1
    32    28    29    1
    33    28    30    1
