@<TRIPOS>MOLECULE
3atz_FMN_A_1.pdb
 31 33 0 0 0
SMALL
GASTEIGER

@<TRIPOS>ATOM
      1  N1         4.2530    4.2540   54.0580 N.2   501  FMN501     -0.2890
      2  C2         3.5420    3.1630   54.4980 C.1   501  FMN501      0.3669
      3  O2         4.1120    2.1070   54.8120 O.2   501  FMN501     -0.1744
      4  N3         2.1340    3.2330   54.5920 N.2   501  FMN501     -0.2300
      5  C4         1.4110    4.4010   54.2590 C.1   501  FMN501      0.2513
      6  O4         0.1390    4.3530   54.3690 O.2   501  FMN501     -0.2057
      7  C4A        2.1340    5.5550   53.8150 C.2   501  FMN501      0.2700
      8  N5         1.5080    6.7180   53.4870 N.2   501  FMN501     -0.3878
      9  C5A        2.2500    7.8210   53.0440 C.2   501  FMN501      0.1320
     10  C6         1.6050    9.0630   52.6840 C.2   501  FMN501      0.0250
     11  C7         2.3050   10.2000   52.2150 C.2   501  FMN501     -0.0238
     12  C7M        1.5440   11.4420   51.8620 C.3   501  FMN501      0.0308
     13  C8         3.7620   10.1060   52.0880 C.2   501  FMN501     -0.0280
     14  C8M        4.6340   11.2620   51.5880 C.3   501  FMN501      0.0304
     15  C9         4.4160    8.9180   52.4290 C.2   501  FMN501     -0.0041
     16  C9A        3.6890    7.7420   52.9150 C.3   501  FMN501      0.1497
     17  N10        4.3310    6.5030   53.2710 N.pl3 501  FMN501     -0.2691
     18  C10        3.5860    5.3860   53.7330 C.2   501  FMN501      0.2416
     19  C1'        5.7830    6.3540   53.1210 C.3   501  FMN501      0.1294
     20  C2'        5.9770    5.9750   51.6300 C.3   501  FMN501      0.2044
     21  O2'        5.4330    4.6640   51.3610 O.3   501  FMN501     -0.2185
     22  C3'        7.4070    5.9400   51.1630 C.3   501  FMN501      0.2164
     23  O3'        8.1230    4.8890   51.8820 O.3   501  FMN501     -0.2175
     24  C4'        8.1450    7.3090   51.3650 C.3   501  FMN501      0.2147
     25  O4'        7.3670    8.3050   50.6320 O.3   501  FMN501     -0.2176
     26  C5'        9.5640    7.3220   50.8760 C.3   501  FMN501      0.1892
     27  O5'        9.5600    6.8810   49.5030 O.3   501  FMN501     -0.2674
     28  P          9.7890    8.0080   48.2710 P.3   501  FMN501      0.5327
     29  O1P       11.1420    8.6360   48.5130 O.3   501  FMN501     -0.1145
     30  O2P        9.7070    7.1610   47.0320 O.2   501  FMN501     -0.2224
     31  O3P        8.6530    9.0420   48.3740 O.3   501  FMN501     -0.1145
@<TRIPOS>BOND
     1    30    28    2
     2    28    31    1
     3    28    29    1
     4    28    27    1
     5    27    26    1
     6    25    24    1
     7    26    24    1
     8    22    24    1
     9    22    20    1
    10    22    23    1
    11    21    20    1
    12    14    13    1
    13    20    19    1
    14    12    11    1
    15    13    11    1
    16    13    15    2
    17    11    10    2
    18    15    16    1
    19    10     9    1
    20    16     9    1
    21    16    17    1
    22     9     8    2
    23    19    17    1
    24    17    18    1
    25     8     7    2
    26    18     7    1
    27    18     1    2
    28     7     5    1
    29     1     2    2
    30     5     6    2
    31     5     4    2
    32     2     4    2
    33     2     3    2
