@<TRIPOS>MOLECULE
3au2_DGT_A_1.pdb
 31 33 0 0 0
SMALL
GASTEIGER

@<TRIPOS>ATOM
      1  PG        17.7920    2.3220   -3.9590 P.3   576  DGT576      0.5373
      2  O1G       18.9860    2.9820   -4.6170 O.3   576  DGT576     -0.1143
      3  O2G       17.0470    1.3370   -4.8100 O.2   576  DGT576     -0.2221
      4  O3G       18.1140    1.7570   -2.5910 O.3   576  DGT576     -0.1143
      5  O3B       16.7000    3.4910   -3.6590 O.3   576  DGT576     -0.2258
      6  PB        16.8560    5.0790   -3.8340 P.3   576  DGT576      0.2277
      7  O1B       15.6270    5.7240   -3.2800 O.3   576  DGT576     -0.4368
      8  O2B       18.1910    5.5460   -3.3160 O.2   576  DGT576     -0.5168
      9  O3A       16.8030    5.2400   -5.4450 O.3   576  DGT576     -0.2700
     10  PA        17.7810    5.8610   -6.5520 P.3   576  DGT576      0.2189
     11  O1A       19.2170    5.7620   -6.1580 O.3   576  DGT576     -0.4371
     12  O2A       17.3400    5.2330   -7.8320 O.2   576  DGT576     -0.5170
     13  O5'       17.3170    7.3830   -6.6620 O.3   576  DGT576     -0.3112
     14  C5'       17.5970    8.2980   -5.5820 C.3   576  DGT576      0.1812
     15  C4'       16.4580    9.2820   -5.4010 C.3   576  DGT576      0.1772
     16  O4'       16.3060    9.9930   -6.6240 O.3   576  DGT576     -0.3347
     17  C3'       15.1060    8.6450   -5.1610 C.3   576  DGT576      0.1857
     18  O3'       14.8910    8.3420   -3.7930 O.3   576  DGT576     -0.2203
     19  C2'       14.1430    9.7150   -5.6390 C.3   576  DGT576      0.0865
     20  C1'       14.9340   10.3870   -6.7610 C.3   576  DGT576      0.1981
     21  N9        14.4710   10.0000   -8.1220 N.pl3 576  DGT576     -0.2374
     22  C8        14.3680   10.8670   -9.1470 C.3   576  DGT576      0.2245
     23  N7        13.9630   10.2600  -10.2860 N.2   576  DGT576     -0.2322
     24  C5        13.7920    8.9550  -10.0040 C.2   576  DGT576      0.2182
     25  C6        13.3480    7.7600  -10.7560 C.1   576  DGT576      0.2372
     26  O6        13.0590    7.8200  -11.9760 O.2   576  DGT576     -0.2069
     27  N1        13.2900    6.5900  -10.0950 N.2   576  DGT576     -0.2485
     28  C2        13.5910    6.4770   -8.7820 C.1   576  DGT576      0.2531
     29  N2        13.5150    5.2600   -8.1770 N.pl3 576  DGT576     -0.0226
     30  N3        13.9870    7.5390   -8.0350 N.2   576  DGT576     -0.3074
     31  C4        14.1200    8.7790   -8.5850 C.2   576  DGT576      0.2299
@<TRIPOS>BOND
     1    26    25    2
     2    25    27    2
     3    25    24    1
     4    23    24    2
     5    23    22    1
     6    27    28    2
     7    24    31    1
     8    22    21    1
     9    28    29    1
    10    28    30    2
    11    31    21    1
    12    31    30    2
    13    21    20    1
    14    12    10    2
    15    20    16    1
    16    20    19    1
    17    13    10    1
    18    13    14    1
    19    16    15    1
    20    10    11    1
    21    10     9    1
    22    19    17    1
    23    14    15    1
    24     9     6    1
    25    15    17    1
    26    17    18    1
    27     3     1    2
    28     2     1    1
    29     1     5    1
    30     1     4    1
    31     6     5    1
    32     6     8    2
    33     6     7    1
