@<TRIPOS>MOLECULE
3au6_DG3_A_1.pdb
 30 32 0 0 0
SMALL
GASTEIGER

@<TRIPOS>ATOM
      1  PG         1.5300  -30.7990    1.8770 P.3   576  DG3576      0.5373
      2  O1G        0.0500  -30.5600    1.6300 O.3   576  DG3576     -0.1143
      3  O2G        1.8060  -31.7320    3.0160 O.3   576  DG3576     -0.1143
      4  O3G        2.2310  -31.1540    0.5950 O.2   576  DG3576     -0.2221
      5  O3B        2.1860  -29.4630    2.5280 O.3   576  DG3576     -0.2258
      6  PB         1.3550  -28.4640    3.5250 P.3   576  DG3576      0.2277
      7  O1B        2.1380  -28.1280    4.7860 O.3   576  DG3576     -0.4368
      8  O2B        0.9990  -27.2680    2.6870 O.2   576  DG3576     -0.5168
      9  O3A       -0.0040  -29.2610    3.9780 O.3   576  DG3576     -0.2700
     10  PA        -0.0950  -30.2830    5.2360 P.3   576  DG3576      0.2189
     11  O1A       -0.7300  -31.5300    4.7370 O.2   576  DG3576     -0.5170
     12  O2A        1.2020  -30.3100    6.0350 O.3   576  DG3576     -0.4371
     13  O5'       -1.1870  -29.6980    6.2460 O.3   576  DG3576     -0.3113
     14  C5'       -1.8120  -28.4150    6.1380 C.3   576  DG3576      0.1785
     15  C4'       -1.5000  -27.3580    7.2350 C.3   576  DG3576      0.1471
     16  O4'       -1.5030  -27.7820    8.6170 O.3   576  DG3576     -0.3374
     17  C3'       -0.1540  -26.6450    7.0610 C.3   576  DG3576      0.0366
     18  C2'        0.0450  -25.9600    8.4080 C.3   576  DG3576      0.0536
     19  C1'       -0.8200  -26.7670    9.3680 C.3   576  DG3576      0.1954
     20  N9         0.1160  -27.3560   10.3220 N.pl3 576  DG3576     -0.2375
     21  C8         0.8670  -28.4440   10.0860 C.3   576  DG3576      0.2245
     22  N7         1.6560  -28.7340   11.1520 N.2   576  DG3576     -0.2322
     23  C5         1.4030  -27.8090   12.0890 C.2   576  DG3576      0.2182
     24  C6         1.9010  -27.5340   13.4590 C.1   576  DG3576      0.2372
     25  O6         2.7700  -28.2730   14.0090 O.2   576  DG3576     -0.2069
     26  N1         1.3690  -26.4660   14.0950 N.2   576  DG3576     -0.2485
     27  C2         0.4370  -25.6570   13.5340 C.1   576  DG3576      0.2531
     28  N2        -0.0220  -24.6060   14.2590 N.pl3 576  DG3576     -0.0226
     29  N3        -0.0540  -25.8580   12.2770 N.2   576  DG3576     -0.3074
     30  C4         0.3880  -26.8940   11.5300 C.2   576  DG3576      0.2299
@<TRIPOS>BOND
     1     4     1    2
     2     2     1    1
     3     1     5    1
     4     1     3    1
     5     5     6    1
     6     8     6    2
     7     6     9    1
     8     6     7    1
     9     9    10    1
    10    11    10    2
    11    10    12    1
    12    10    13    1
    13    14    13    1
    14    14    15    1
    15    17    15    1
    16    17    18    1
    17    15    16    1
    18    18    19    1
    19    16    19    1
    20    19    20    1
    21    21    20    1
    22    21    22    1
    23    20    30    1
    24    22    23    2
    25    30    23    1
    26    30    29    2
    27    23    24    1
    28    29    27    2
    29    24    25    2
    30    24    26    2
    31    27    26    2
    32    27    28    1
