@<TRIPOS>MOLECULE
3au8_NDP_A_1.pdb
 48 52 0 0 0
SMALL
GASTEIGER

@<TRIPOS>ATOM
      1  PA        -4.4060   -2.9780   29.6390 P.3   501  NDP501      0.2189
      2  O1A       -4.9420   -2.4400   30.9060 O.3   501  NDP501     -0.4371
      3  O2A       -5.0130   -2.3900   28.4260 O.2   501  NDP501     -0.5170
      4  O5B       -4.5820   -4.5680   29.6690 O.3   501  NDP501     -0.3112
      5  C5B       -4.1760   -5.3240   30.7710 C.3   501  NDP501      0.1813
      6  C4B       -4.5130   -6.7750   30.4750 C.3   501  NDP501      0.1820
      7  O4B       -3.9670   -7.5790   31.5040 O.3   501  NDP501     -0.3136
      8  C3B       -6.0200   -7.0300   30.4850 C.3   501  NDP501      0.2157
      9  O3B       -6.3080   -8.0410   29.5450 O.3   501  NDP501     -0.2175
     10  C2B       -6.2800   -7.5360   31.8910 C.3   501  NDP501      0.2314
     11  O2B       -7.3770   -8.4060   31.9940 O.3   501  NDP501     -0.2630
     12  C1B       -5.0000   -8.3170   32.1220 C.3   501  NDP501      0.3158
     13  N9A       -4.7050   -8.5740   33.5390 N.pl3 501  NDP501     -0.1439
     14  C8A       -4.5580   -7.6680   34.5620 C.3   501  NDP501      0.3377
     15  N7A       -4.2660   -8.3700   35.6850 N.2   501  NDP501     -0.2095
     16  C5A       -4.2070   -9.6870   35.3830 C.2   501  NDP501      0.2526
     17  C6A       -3.9390  -10.8240   36.1300 C.2   501  NDP501      0.4393
     18  N6A       -3.8020  -10.7390   37.4530 N.pl3 501  NDP501      0.2180
     19  N1A       -3.9440  -12.0660   35.5210 N.2   501  NDP501      0.0021
     20  C2A       -4.2180  -12.1830   34.1700 C.3   501  NDP501      0.5254
     21  N3A       -4.4750  -11.0460   33.4340 N.2   501  NDP501     -0.0055
     22  C4A       -4.4730   -9.8250   34.0310 C.2   501  NDP501      0.3518
     23  O3        -2.8150   -2.7570   29.5970 O.3   501  NDP501     -0.2703
     24  PN        -2.0360   -2.6970   28.1850 P.3   501  NDP501      0.2189
     25  O1N       -2.1460   -1.3090   27.6630 O.3   501  NDP501     -0.4371
     26  O2N       -2.4260   -3.8390   27.3220 O.2   501  NDP501     -0.5170
     27  O5D       -0.4960   -2.9130   28.6550 O.3   501  NDP501     -0.3112
     28  C5D       -0.1000   -3.8640   29.6200 C.3   501  NDP501      0.1813
     29  C4D        1.4010   -3.6980   29.8680 C.3   501  NDP501      0.1799
     30  O4D        2.0730   -3.3360   28.6630 O.3   501  NDP501     -0.3327
     31  C3D        1.6710   -2.5840   30.8710 C.3   501  NDP501      0.2158
     32  O3D        2.6650   -3.0070   31.7860 O.3   501  NDP501     -0.2175
     33  C2D        2.1380   -1.4060   30.0140 C.3   501  NDP501      0.2309
     34  O2D        3.0420   -0.5390   30.6690 O.3   501  NDP501     -0.2158
     35  C1D        2.7760   -2.1040   28.8170 C.3   501  NDP501      0.2263
     36  N1N        2.8130   -1.2880   27.5770 N.pl3 501  NDP501     -0.2787
     37  C2N        1.6570   -0.9730   26.8920 C.3   501  NDP501      0.1244
     38  C3N        1.6670   -0.5310   25.5610 C.2   501  NDP501      0.0544
     39  C7N        0.3760   -0.2010   24.8490 C.2   501  NDP501      0.2818
     40  O7N        0.4020    0.1800   23.4890 O.2   501  NDP501     -0.2670
     41  N7N       -0.7800   -0.2720   25.5110 N.am  501  NDP501     -0.0839
     42  C4N        2.9760   -0.3820   24.8050 C.2   501  NDP501      0.0033
     43  C5N        4.1690   -0.7480   25.6440 C.2   501  NDP501      0.0157
     44  C6N        4.0360   -1.1680   26.9660 C.2   501  NDP501      0.0633
     45  P2B       -8.8710   -7.8260   32.2470 P.3   501  NDP501      0.5328
     46  O1X       -9.4880   -7.3900   30.9440 O.2   501  NDP501     -0.2224
     47  O2X       -9.6340   -8.9690   32.8550 O.3   501  NDP501     -0.1145
     48  O3X       -8.7480   -6.6350   33.1640 O.3   501  NDP501     -0.1145
@<TRIPOS>BOND
     1    40    39    2
     2    42    38    2
     3    42    43    1
     4    39    41   am
     5    39    38    1
     6    38    37    1
     7    43    44    2
     8    37    36    1
     9    44    36    1
    10    26    24    2
    11    36    35    1
    12    25    24    1
    13    24    27    1
    14    24    23    1
    15     3     1    2
    16    27    28    1
    17    30    35    1
    18    30    29    1
    19    35    33    1
    20     9     8    1
    21    23     1    1
    22    28    29    1
    23     1     4    1
    24     1     2    1
    25     4     5    1
    26    29    31    1
    27    33    34    1
    28    33    31    1
    29     6     8    1
    30     6     5    1
    31     6     7    1
    32     8    10    1
    33    31    32    1
    34    46    45    2
    35     7    12    1
    36    10    11    1
    37    10    12    1
    38    11    45    1
    39    12    13    1
    40    45    47    1
    41    45    48    1
    42    21    22    2
    43    21    20    1
    44    13    22    1
    45    13    14    1
    46    22    16    1
    47    20    19    1
    48    14    15    1
    49    16    15    2
    50    16    17    1
    51    19    17    2
    52    17    18    1
