@<TRIPOS>MOLECULE
3au9_NDP_A_1.pdb
 48 52 0 0 0
SMALL
GASTEIGER

@<TRIPOS>ATOM
      1  PA         2.8960  -26.0430   12.4930 P.3   501  NDP501      0.2189
      2  O1A        3.1660  -26.7070   11.1900 O.2   501  NDP501     -0.5170
      3  O2A        3.7980  -26.4640   13.5730 O.3   501  NDP501     -0.4371
      4  O5B        1.3800  -26.3100   12.9630 O.3   501  NDP501     -0.3112
      5  C5B        0.3140  -26.0530   12.0830 C.3   501  NDP501      0.1813
      6  C4B       -0.9870  -26.4280   12.7810 C.3   501  NDP501      0.1820
      7  O4B       -2.0640  -26.0210   11.9560 O.3   501  NDP501     -0.3136
      8  C3B       -1.0940  -27.9400   12.9470 C.3   501  NDP501      0.2157
      9  O3B       -1.6680  -28.2240   14.2020 O.3   501  NDP501     -0.2175
     10  C2B       -2.0360  -28.3540   11.8380 C.3   501  NDP501      0.2314
     11  O2B       -2.8220  -29.4650   12.1920 O.3   501  NDP501     -0.2630
     12  C1B       -2.9250  -27.1290   11.7550 C.3   501  NDP501      0.3158
     13  N9A       -3.7190  -27.0400   10.5150 N.pl3 501  NDP501     -0.1439
     14  C8A       -3.2820  -26.9890    9.2110 C.3   501  NDP501      0.3377
     15  N7A       -4.3730  -26.8820    8.4080 N.2   501  NDP501     -0.2095
     16  C5A       -5.4890  -26.8660    9.1790 C.2   501  NDP501      0.2526
     17  C6A       -6.8530  -26.7810    8.8900 C.2   501  NDP501      0.4393
     18  N6A       -7.2950  -26.9560    7.6520 N.pl3 501  NDP501      0.2180
     19  N1A       -7.7640  -26.7840    9.9280 N.2   501  NDP501      0.0021
     20  C2A       -7.3450  -26.8670   11.2410 C.3   501  NDP501      0.5254
     21  N3A       -5.9970  -26.9570   11.5200 N.2   501  NDP501     -0.0055
     22  C4A       -5.0880  -26.9600   10.5060 C.2   501  NDP501      0.3518
     23  O3         2.9770  -24.4590   12.2120 O.3   501  NDP501     -0.2703
     24  PN         3.5040  -23.3810   13.2990 P.3   501  NDP501      0.2189
     25  O1N        4.9860  -23.3230   13.2870 O.2   501  NDP501     -0.5170
     26  O2N        2.7680  -23.6030   14.5540 O.3   501  NDP501     -0.4371
     27  O5D        2.9650  -22.0410   12.5860 O.3   501  NDP501     -0.3112
     28  C5D        1.6010  -21.6690   12.6970 C.3   501  NDP501      0.1813
     29  C4D        1.4140  -20.2390   12.2120 C.3   501  NDP501      0.1799
     30  O4D        1.9850  -19.3570   13.1620 O.3   501  NDP501     -0.3327
     31  C3D        2.1370  -20.0120   10.8920 C.3   501  NDP501      0.2158
     32  O3D        1.2930  -19.3050   10.0250 O.3   501  NDP501     -0.2175
     33  C2D        3.3400  -19.1420   11.2390 C.3   501  NDP501      0.2309
     34  O2D        3.6090  -18.1620   10.2570 O.3   501  NDP501     -0.2158
     35  C1D        2.9160  -18.4850   12.5390 C.3   501  NDP501      0.2263
     36  N1N        4.0910  -18.2650   13.3880 N.pl3 501  NDP501     -0.2787
     37  C2N        4.6570  -19.3310   14.0370 C.3   501  NDP501      0.1244
     38  C3N        5.6340  -19.1580   14.9950 C.2   501  NDP501      0.0544
     39  C7N        6.2170  -20.3460   15.6850 C.2   501  NDP501      0.2818
     40  O7N        6.9860  -20.0890   16.8200 O.2   501  NDP501     -0.2670
     41  N7N        5.9730  -21.5910   15.2680 N.am  501  NDP501     -0.0839
     42  C4N        6.1160  -17.7740   15.3890 C.2   501  NDP501      0.0033
     43  C5N        5.4120  -16.6870   14.6330 C.2   501  NDP501      0.0157
     44  C6N        4.4420  -16.9750   13.6760 C.2   501  NDP501      0.0633
     45  P2B       -2.2050  -30.9450   12.0880 P.3   501  NDP501      0.5328
     46  O1X       -1.3430  -31.1530   13.3060 O.3   501  NDP501     -0.1145
     47  O2X       -3.3700  -31.9180   12.0790 O.3   501  NDP501     -0.1145
     48  O3X       -1.4620  -31.0880   10.7850 O.2   501  NDP501     -0.2224
@<TRIPOS>BOND
     1    18    17    1
     2    15    16    2
     3    15    14    1
     4    17    16    1
     5    17    19    2
     6    16    22    1
     7    14    13    1
     8    19    20    1
     9    32    31    1
    10    34    33    1
    11    22    13    1
    12    22    21    2
    13    13    12    1
    14    48    45    2
    15    31    33    1
    16    31    29    1
    17     2     1    2
    18    33    35    1
    19    20    21    1
    20    12    10    1
    21    12     7    1
    22    10    11    1
    23    10     8    1
    24     7     6    1
    25    47    45    1
    26     5     6    1
    27     5     4    1
    28    45    11    1
    29    45    46    1
    30    29    28    1
    31    29    30    1
    32    23     1    1
    33    23    24    1
    34     1     4    1
    35     1     3    1
    36    35    30    1
    37    35    36    1
    38    27    28    1
    39    27    24    1
    40     6     8    1
    41     8     9    1
    42    25    24    2
    43    24    26    1
    44    36    44    1
    45    36    37    1
    46    44    43    2
    47    37    38    1
    48    43    42    1
    49    38    42    2
    50    38    39    1
    51    41    39   am
    52    39    40    2
