@<TRIPOS>MOLECULE
3au9_FOM_A_1.pdb
 11 10 0 0 0
SMALL
GASTEIGER

@<TRIPOS>ATOM
      1  O2         8.7260  -15.1120   13.3880 O.3   701  FOM701     -0.4195
      2  N1         9.3150  -15.7060   14.5070 N.am  701  FOM701     -0.2796
      3  C1         8.8850  -15.4510   15.6650 C.2   701  FOM701      0.1130
      4  O1         8.1700  -14.4610   15.7820 O.2   701  FOM701     -0.5358
      5  C2        10.4480  -16.5910   14.3080 C.3   701  FOM701      0.0985
      6  C3        11.6180  -15.6140   14.2170 C.3   701  FOM701      0.0297
      7  C4        12.6590  -16.1330   13.2660 C.3   701  FOM701      0.0607
      8  PA1       13.7460  -15.0050   12.5840 P.3   701  FOM701      0.1172
      9  OP1       14.0420  -14.0080   13.6800 O.3   701  FOM701     -0.3571
     10  OP2       12.9830  -14.4500   11.4100 O.2   701  FOM701     -0.4601
     11  OP3       14.9280  -15.8540   12.2090 O.3   701  FOM701     -0.3571
@<TRIPOS>BOND
     1    10     8    2
     2    11     8    1
     3     8     7    1
     4     8     9    1
     5     7     6    1
     6     1     2    1
     7     6     5    1
     8     5     2    1
     9     2     3   am
    10     3     4    2
