@<TRIPOS>MOLECULE
3aua_F98_A_1.pdb
 12 11 0 0 0
SMALL
GASTEIGER

@<TRIPOS>ATOM
      1  C1         8.8040  -15.2650   15.1250 C.2   701  F98701      0.0682
      2  N1         9.2060  -15.5980   13.9590 N.am  701  F98701     -0.2799
      3  O1         7.9700  -14.3860   15.2820 O.2   701  F98701     -0.5413
      4  C2        10.2200  -16.5800   13.5720 C.3   701  F98701      0.1238
      5  O2         8.6650  -14.9280   12.8740 O.3   701  F98701     -0.4195
      6  C3        11.5040  -15.7510   13.6960 C.2   701  F98701     -0.0014
      7  C4        12.4640  -15.8300   12.5330 C.2   701  F98701      0.0286
      8  C11        9.3670  -15.9620   16.3340 C.3   701  F98701      0.0561
      9  PA1       13.8490  -14.7990   12.5410 P.3   701  F98701      0.1394
     10  OP1       14.0280  -14.3340   13.9720 O.3   701  F98701     -0.3542
     11  OP2       13.4700  -13.6900   11.6200 O.2   701  F98701     -0.4557
     12  OP3       14.9970  -15.6510   12.0280 O.3   701  F98701     -0.3542
@<TRIPOS>BOND
     1    11     9    2
     2    12     9    1
     3     7     9    1
     4     7     6    2
     5     9    10    1
     6     5     2    1
     7     4     6    1
     8     4     2    1
     9     2     1   am
    10     1     3    2
    11     1     8    1
