@<TRIPOS>MOLECULE
3aua_NDP_A_1.pdb
 48 52 0 0 0
SMALL
GASTEIGER

@<TRIPOS>ATOM
      1  PA         2.9180  -25.8970   12.3340 P.3   501  NDP501      0.2189
      2  O1A        3.3250  -26.4050   11.0050 O.2   501  NDP501     -0.5170
      3  O2A        3.7680  -26.2840   13.4750 O.3   501  NDP501     -0.4371
      4  O5B        1.4070  -26.3640   12.6430 O.3   501  NDP501     -0.3112
      5  C5B        0.3140  -25.8970   11.8960 C.3   501  NDP501      0.1813
      6  C4B       -0.9580  -26.2740   12.6390 C.3   501  NDP501      0.1820
      7  O4B       -2.0990  -25.8960   11.8800 O.3   501  NDP501     -0.3136
      8  C3B       -1.0660  -27.7820   12.8700 C.3   501  NDP501      0.2157
      9  O3B       -1.7030  -27.9670   14.1170 O.3   501  NDP501     -0.2175
     10  C2B       -1.9920  -28.2450   11.7600 C.3   501  NDP501      0.2314
     11  O2B       -2.7380  -29.3920   12.0990 O.3   501  NDP501     -0.2630
     12  C1B       -2.9110  -27.0450   11.6540 C.3   501  NDP501      0.3158
     13  N9A       -3.6400  -26.9770   10.3830 N.pl3 501  NDP501     -0.1439
     14  C8A       -3.1590  -26.9790    9.0980 C.3   501  NDP501      0.3377
     15  N7A       -4.2200  -26.8620    8.2630 N.2   501  NDP501     -0.2095
     16  C5A       -5.3600  -26.7800    8.9970 C.2   501  NDP501      0.2526
     17  C6A       -6.7100  -26.6570    8.6600 C.2   501  NDP501      0.4393
     18  N6A       -7.1270  -26.9050    7.4170 N.pl3 501  NDP501      0.2180
     19  N1A       -7.6510  -26.5880    9.6680 N.2   501  NDP501      0.0021
     20  C2A       -7.2550  -26.6490   10.9930 C.3   501  NDP501      0.5254
     21  N3A       -5.9150  -26.7740   11.3270 N.2   501  NDP501     -0.0055
     22  C4A       -4.9960  -26.8380   10.3340 C.2   501  NDP501      0.3518
     23  O3         2.9080  -24.2920   12.1340 O.3   501  NDP501     -0.2703
     24  PN         3.4080  -23.2000   13.2070 P.3   501  NDP501      0.2189
     25  O1N        4.8670  -23.0650   13.1410 O.2   501  NDP501     -0.5170
     26  O2N        2.7620  -23.4350   14.5140 O.3   501  NDP501     -0.4371
     27  O5D        2.8040  -21.9190   12.4650 O.3   501  NDP501     -0.3112
     28  C5D        1.4200  -21.6150   12.4140 C.3   501  NDP501      0.1813
     29  C4D        1.2650  -20.1540   11.9720 C.3   501  NDP501      0.1799
     30  O4D        1.8600  -19.2980   12.9360 O.3   501  NDP501     -0.3327
     31  C3D        1.9730  -19.8530   10.6620 C.3   501  NDP501      0.2158
     32  O3D        1.1720  -18.9890    9.8920 O.3   501  NDP501     -0.2175
     33  C2D        3.2320  -19.1320   11.0940 C.3   501  NDP501      0.2309
     34  O2D        3.6400  -18.2280   10.1340 O.3   501  NDP501     -0.2158
     35  C1D        2.7980  -18.4100   12.3530 C.3   501  NDP501      0.2263
     36  N1N        3.9230  -18.1320   13.2870 N.pl3 501  NDP501     -0.2787
     37  C2N        4.5110  -19.1880   13.9330 C.3   501  NDP501      0.1244
     38  C3N        5.5340  -19.0250   14.8650 C.2   501  NDP501      0.0544
     39  C7N        6.1170  -20.2300   15.5460 C.2   501  NDP501      0.2818
     40  O7N        6.9290  -20.0050   16.6590 O.2   501  NDP501     -0.2670
     41  N7N        5.8480  -21.4820   15.1720 N.am  501  NDP501     -0.0839
     42  C4N        6.0300  -17.6280   15.2220 C.2   501  NDP501      0.0033
     43  C5N        5.3000  -16.5390   14.4770 C.2   501  NDP501      0.0157
     44  C6N        4.2950  -16.8460   13.5540 C.2   501  NDP501      0.0633
     45  P2B       -2.1470  -30.8820   11.8820 P.3   501  NDP501      0.5328
     46  O1X       -1.2410  -31.2020   13.0470 O.3   501  NDP501     -0.1145
     47  O2X       -3.3330  -31.8360   11.8420 O.3   501  NDP501     -0.1145
     48  O3X       -1.3710  -30.9410   10.5940 O.2   501  NDP501     -0.2224
@<TRIPOS>BOND
     1    18    17    1
     2    15    16    2
     3    15    14    1
     4    17    16    1
     5    17    19    2
     6    16    22    1
     7    14    13    1
     8    19    20    1
     9    32    31    1
    10    34    33    1
    11    22    13    1
    12    22    21    2
    13    13    12    1
    14    48    45    2
    15    31    33    1
    16    31    29    1
    17    20    21    1
    18     2     1    2
    19    33    35    1
    20    12    10    1
    21    12     7    1
    22    10    11    1
    23    10     8    1
    24    47    45    1
    25     7     6    1
    26    45    11    1
    27    45    46    1
    28     5     6    1
    29     5     4    1
    30    29    28    1
    31    29    30    1
    32    23     1    1
    33    23    24    1
    34     1     4    1
    35     1     3    1
    36    35    30    1
    37    35    36    1
    38    28    27    1
    39    27    24    1
    40     6     8    1
    41     8     9    1
    42    25    24    2
    43    24    26    1
    44    36    44    1
    45    36    37    1
    46    44    43    2
    47    37    38    1
    48    43    42    1
    49    38    42    2
    50    38    39    1
    51    41    39   am
    52    39    40    2
