@<TRIPOS>MOLECULE
3aun_YR4_A_1.pdb
 34 35 0 0 0
SMALL
GASTEIGER

@<TRIPOS>ATOM
      1  C1       -11.1230   11.2190   -9.5060 C.ar    1  YR41       -0.0009
      2  C2        -9.9970   11.7650  -10.1350 C.ar    1  YR41        0.0363
      3  C3        -9.4020   11.0520  -11.1770 C.ar    1  YR41        0.1344
      4  C4       -10.0220    9.7670  -11.6310 C.ar    1  YR41        0.0118
      5  C5       -11.1310    9.2920  -10.9730 C.ar    1  YR41       -0.0052
      6  C6       -11.7010    9.9800   -9.8860 C.ar    1  YR41       -0.0191
      7  C7       -12.9580    9.4110   -9.2440 C.3     1  YR41        0.0377
      8  C8       -13.1970    9.7720   -7.7670 C.ar    1  YR41       -0.0191
      9  C9       -12.1000    9.8520   -6.8870 C.ar    1  YR41       -0.0009
     10  C10      -14.4990   10.0190   -7.2610 C.ar    1  YR41       -0.0052
     11  C11      -14.7050   10.3430   -5.9200 C.ar    1  YR41        0.0118
     12  C12      -13.5300   10.4030   -5.0240 C.ar    1  YR41        0.1346
     13  C13      -12.2500   10.1620   -5.5420 C.ar    1  YR41        0.0363
     14  C14      -13.0570    7.8720   -9.3620 C.3     1  YR41        0.0081
     15  C15      -12.0210    7.0290   -8.6240 C.3     1  YR41        0.0007
     16  C16      -14.1090    9.9330  -10.1330 C.3     1  YR41        0.0081
     17  C17      -14.2460   11.4540  -10.1670 C.3     1  YR41        0.0007
     18  C18       -9.4160    8.9660  -12.7720 C.3     1  YR41        0.0342
     19  C19      -16.0820   10.6190   -5.3540 C.3     1  YR41        0.0342
     20  O20      -13.7010   10.7170   -3.7020 O.3     1  YR41       -0.4730
     21  O21       -8.3210   11.5550  -11.8400 O.3     1  YR41       -0.4767
     22  C22      -12.5800   11.0480   -2.8860 C.3     1  YR41        0.2380
     23  C23      -13.0580   11.2910   -1.4490 C.3     1  YR41        0.1952
     24  C24      -11.9120   11.7370   -0.5360 C.3     1  YR41        0.0318
     25  O25      -14.1720   12.2220   -1.4250 O.3     1  YR41       -0.2191
     26  C26      -12.4480   11.5930    0.8800 C.3     1  YR41        0.0027
     27  C27      -11.4930   13.1830   -0.7970 C.3     1  YR41        0.0027
     28  C28      -10.6750   10.8500   -0.6630 C.3     1  YR41        0.0027
     29  C29       -8.6690   12.1540  -13.1060 C.3     1  YR41        0.2013
     30  C30       -7.4620   12.2870  -14.0180 C.3     1  YR41        0.0818
     31  C31       -9.4440   13.4790  -12.9130 C.3     1  YR41        0.2253
     32  C32       -7.3570   11.0330  -14.9070 C.3     1  YR41        0.1859
     33  O33       -8.5690   14.4440  -12.3610 O.3     1  YR41       -0.2164
     34  O34       -8.4980   10.8940  -15.7820 O.3     1  YR41       -0.2203
@<TRIPOS>BOND
     1    34    32    1
     2    32    30    1
     3    30    29    1
     4    29    31    1
     5    29    21    1
     6    31    33    1
     7    18     4    1
     8    21     3    1
     9     4     3   ar
    10     4     5   ar
    11     3     2   ar
    12     5     6   ar
    13    17    16    1
    14     2     1   ar
    15    16     7    1
    16     6     1   ar
    17     6     7    1
    18    14     7    1
    19    14    15    1
    20     7     8    1
    21     8    10   ar
    22     8     9   ar
    23    10    11   ar
    24     9    13   ar
    25    11    19    1
    26    11    12   ar
    27    13    12   ar
    28    12    20    1
    29    20    22    1
    30    22    23    1
    31    23    25    1
    32    23    24    1
    33    27    24    1
    34    28    24    1
    35    24    26    1
