@<TRIPOS>MOLECULE
3auo_DG3_A_1.pdb
 30 32 0 0 0
SMALL
GASTEIGER

@<TRIPOS>ATOM
      1  PG        33.9070  -30.6090  -17.8630 P.3   576  DG3576      0.5373
      2  O1G       35.2900  -30.3600  -18.3940 O.3   576  DG3576     -0.1143
      3  O2G       32.9310  -31.0150  -18.9350 O.2   576  DG3576     -0.2221
      4  O3G       33.8560  -31.5040  -16.6590 O.3   576  DG3576     -0.1143
      5  O3B       33.3860  -29.1990  -17.2970 O.3   576  DG3576     -0.2258
      6  PB        34.2810  -27.8640  -17.3150 P.3   576  DG3576      0.2277
      7  O1B       33.4350  -26.7710  -16.7210 O.2   576  DG3576     -0.5168
      8  O2B       35.6260  -28.1380  -16.6950 O.3   576  DG3576     -0.4368
      9  O3A       34.4170  -27.5740  -18.9040 O.3   576  DG3576     -0.2700
     10  PA        35.7910  -27.4960  -19.7580 P.3   576  DG3576      0.2189
     11  O1A       36.8530  -28.3500  -19.1000 O.3   576  DG3576     -0.4371
     12  O2A       35.3840  -27.7290  -21.1890 O.2   576  DG3576     -0.5170
     13  O5'       36.2950  -25.9710  -19.6810 O.3   576  DG3576     -0.3113
     14  C5'       37.1500  -25.5560  -18.6240 C.3   576  DG3576      0.1785
     15  C4'       36.9430  -24.0810  -18.3040 C.3   576  DG3576      0.1471
     16  O4'       37.0130  -23.2680  -19.4730 O.3   576  DG3576     -0.3374
     17  C3'       35.5860  -23.8440  -17.6540 C.3   576  DG3576      0.0366
     18  C2'       35.0520  -22.5760  -18.2880 C.3   576  DG3576      0.0536
     19  C1'       35.9950  -22.2710  -19.4440 C.3   576  DG3576      0.1954
     20  N9        35.2370  -22.2590  -20.7180 N.pl3 576  DG3576     -0.2375
     21  C8        34.8310  -23.3240  -21.4360 C.3   576  DG3576      0.2245
     22  N7        34.1600  -22.9240  -22.5500 N.2   576  DG3576     -0.2322
     23  C5        34.1230  -21.5780  -22.5370 C.2   576  DG3576      0.2182
     24  C6        33.5710  -20.5040  -23.3950 C.1   576  DG3576      0.2372
     25  O6        32.9520  -20.7880  -24.4420 O.2   576  DG3576     -0.2069
     26  N1        33.7560  -19.2300  -23.0230 N.2   576  DG3576     -0.2485
     27  C2        34.4130  -18.9070  -21.8950 C.1   576  DG3576      0.2531
     28  N2        34.5700  -17.6090  -21.5520 N.pl3 576  DG3576     -0.0226
     29  N3        34.9410  -19.8340  -21.0650 N.2   576  DG3576     -0.3074
     30  C4        34.8330  -21.1530  -21.3290 C.2   576  DG3576      0.2299
@<TRIPOS>BOND
     1    25    24    2
     2    24    26    2
     3    24    23    1
     4    26    27    2
     5    22    23    2
     6    22    21    1
     7    23    30    1
     8    27    28    1
     9    27    29    2
    10    21    20    1
    11    30    29    2
    12    30    20    1
    13    12    10    2
    14    20    19    1
    15    10    13    1
    16    10    11    1
    17    10     9    1
    18    13    14    1
    19    16    19    1
    20    16    15    1
    21    19    18    1
    22     3     1    2
    23     9     6    1
    24    14    15    1
    25     2     1    1
    26    15    17    1
    27    18    17    1
    28     1     5    1
    29     1     4    1
    30     6     5    1
    31     6     7    2
    32     6     8    1
