@<TRIPOS>MOLECULE
3auq_CA9_A_1.pdb
 30 32 0 0 0
SMALL
GASTEIGER

@<TRIPOS>ATOM
      1  C1       -13.1120   -3.3470   32.9570 C.2     1  CA91        0.0151
      2  C2       -12.5430   -0.5620   33.3090 C.3     1  CA91        0.0050
      3  C3       -13.2680   -1.3110   34.4270 C.3     1  CA91        0.0263
      4  C4       -13.7100   -2.6830   33.9640 C.2     1  CA91       -0.0222
      5  C5       -11.4540   -1.3800   32.6230 C.3     1  CA91        0.0047
      6  C6       -11.9220   -2.7820   32.1990 C.3     1  CA91        0.0298
      7  C7       -12.1850   -2.7340   30.6950 C.3     1  CA91        0.0050
      8  C8       -11.3340   -1.5920   30.1510 C.3     1  CA91        0.0004
      9  C9       -11.0600   -0.6470   31.3280 C.3     1  CA91        0.0003
     10  C10      -10.2870   -1.5460   33.5990 C.3     1  CA91        0.0004
     11  C12       -9.6800    0.0520   31.2850 C.3     1  CA91        0.0000
     12  C13       -9.7140    1.2440   30.3270 C.3     1  CA91        0.0000
     13  C14       -8.4760   -0.8400   30.9650 C.3     1  CA91        0.0001
     14  C15       -7.2300   -0.3630   31.7160 C.3     1  CA91        0.0025
     15  C16       -6.0330   -1.2840   31.4830 C.3     1  CA91        0.0304
     16  C17       -4.7280   -0.7990   32.1130 C.3     1  CA91        0.1268
     17  C18       -4.8760   -0.5300   33.6040 C.3     1  CA91        0.0329
     18  C19       -3.6350   -1.8340   31.8930 C.3     1  CA91        0.0329
     19  O20       -4.3150    0.4150   31.4760 O.3     1  CA91       -0.2257
     20  C21      -13.5510   -4.4940   32.6670 C.1     1  CA91       -0.0647
     21  C22      -13.9080   -5.5870   32.3730 C.1     1  CA91       -0.0646
     22  C23      -14.2840   -6.7510   32.0620 C.2     1  CA91        0.0204
     23  C24      -15.2460   -7.4740   32.9890 C.3     1  CA91        0.0674
     24  C25      -15.8800   -8.7200   32.3620 C.3     1  CA91        0.1597
     25  C26      -14.9190   -9.5490   31.4980 C.3     1  CA91        0.0655
     26  C27      -14.2010   -8.6970   30.4350 C.3     1  CA91        0.1767
     27  C28      -13.8140   -7.3130   30.9310 C.2     1  CA91        0.0102
     28  O29      -17.0060   -8.3240   31.5640 O.3     1  CA91       -0.2227
     29  O30      -13.0540   -9.3800   29.9070 O.3     1  CA91       -0.2182
     30  C31      -13.9720  -10.3990   32.3490 C.3     1  CA91        0.0056
@<TRIPOS>BOND
     1    29    26    1
     2     8     7    1
     3     8     9    1
     4    12    11    1
     5    26    27    1
     6    26    25    1
     7     7     6    1
     8    27    22    2
     9    13    11    1
    10    13    14    1
    11    11     9    1
    12     9     5    1
    13    19    16    1
    14    15    14    1
    15    15    16    1
    16    25    30    1
    17    25    24    1
    18    28    24    1
    19    18    16    1
    20    22    21    1
    21    22    23    1
    22    16    17    1
    23     6     5    1
    24     6     1    1
    25    24    23    1
    26    21    20    3
    27     5     2    1
    28     5    10    1
    29    20     1    1
    30     1     4    2
    31     2     3    1
    32     4     3    1
