@<TRIPOS>MOLECULE
3aur_CA9_A_1.pdb
 30 32 0 0 0
SMALL
GASTEIGER

@<TRIPOS>ATOM
      1  C1        13.2150   -3.2510  -32.9170 C.2     1  CA91        0.0151
      2  C2        12.4690   -0.4790  -33.3290 C.3     1  CA91        0.0050
      3  C3        13.0130   -1.3010  -34.5050 C.3     1  CA91        0.0263
      4  C4        13.6290   -2.6210  -34.0340 C.2     1  CA91       -0.0222
      5  C5        11.4800   -1.3040  -32.5250 C.3     1  CA91        0.0047
      6  C6        12.1740   -2.5720  -32.0260 C.3     1  CA91        0.0298
      7  C7        12.5920   -2.3110  -30.5580 C.3     1  CA91        0.0050
      8  C8        11.3260   -1.6000  -30.0660 C.3     1  CA91        0.0004
      9  C9        11.0260   -0.5870  -31.2070 C.3     1  CA91        0.0003
     10  C10       10.3210   -1.7090  -33.4510 C.3     1  CA91        0.0004
     11  C12        9.6210    0.1130  -31.1560 C.3     1  CA91        0.0000
     12  C13        9.6260    1.2040  -30.0870 C.3     1  CA91        0.0000
     13  C14        8.3650   -0.7740  -30.9850 C.3     1  CA91        0.0001
     14  C15        7.1650   -0.1420  -31.7440 C.3     1  CA91        0.0025
     15  C16        5.9680   -1.0260  -31.5610 C.3     1  CA91        0.0304
     16  C17        4.6330   -0.4920  -32.0180 C.3     1  CA91        0.1268
     17  C18        4.6110   -0.1310  -33.5090 C.3     1  CA91        0.0329
     18  C19        3.6460   -1.6000  -31.8160 C.3     1  CA91        0.0329
     19  O20        4.2800    0.6040  -31.1610 O.3     1  CA91       -0.2257
     20  C21       13.6450   -4.4600  -32.6300 C.1     1  CA91       -0.0647
     21  C22       13.9410   -5.5970  -32.3060 C.1     1  CA91       -0.0646
     22  C23       14.2260   -6.8210  -31.9590 C.2     1  CA91        0.0204
     23  C24       15.1810   -7.6550  -32.8120 C.3     1  CA91        0.0674
     24  C25       15.7630   -8.9090  -32.1380 C.3     1  CA91        0.1597
     25  C26       14.7280   -9.6760  -31.2780 C.3     1  CA91        0.0655
     26  C27       14.1800   -8.7030  -30.2180 C.3     1  CA91        0.1767
     27  C28       13.7350   -7.3510  -30.8210 C.2     1  CA91        0.0102
     28  O29       16.8350   -8.4430  -31.3080 O.3     1  CA91       -0.2227
     29  O30       13.1010   -9.2700  -29.4610 O.3     1  CA91       -0.2182
     30  C31       13.6430  -10.3280  -32.1580 C.3     1  CA91        0.0056
@<TRIPOS>BOND
     1     3     4    1
     2     3     2    1
     3     4     1    2
     4    17    16    1
     5    10     5    1
     6     2     5    1
     7     1    20    1
     8     1     6    1
     9    23    24    1
    10    23    22    1
    11    20    21    3
    12     5     6    1
    13     5     9    1
    14    21    22    1
    15    30    25    1
    16    24    28    1
    17    24    25    1
    18     6     7    1
    19    16    18    1
    20    16    15    1
    21    16    19    1
    22    22    27    2
    23    14    15    1
    24    14    13    1
    25    25    26    1
    26     9    11    1
    27     9     8    1
    28    11    13    1
    29    11    12    1
    30    27    26    1
    31     7     8    1
    32    26    29    1
