@<TRIPOS>MOLECULE
3aut_NAI_B_1.pdb
 44 48 0 0 0
SMALL
GASTEIGER

@<TRIPOS>ATOM
      1  PA       -30.3000  -32.2790   -9.6020 P.3   301  NAI301      0.2189
      2  O1A      -30.6170  -31.2160   -8.5590 O.3   301  NAI301     -0.4371
      3  O2A      -31.0110  -33.6170   -9.5900 O.2   301  NAI301     -0.5170
      4  O5B      -28.7080  -32.5490   -9.6040 O.3   301  NAI301     -0.3112
      5  C5B      -27.7610  -31.5800   -9.1490 C.3   301  NAI301      0.1813
      6  C4B      -26.8370  -32.3040   -8.1840 C.3   301  NAI301      0.1821
      7  O4B      -25.8660  -31.4010   -7.6520 O.3   301  NAI301     -0.3135
      8  C3B      -27.6140  -32.8900   -7.0010 C.3   301  NAI301      0.2184
      9  O3B      -27.4530  -34.3160   -6.9600 O.3   301  NAI301     -0.2174
     10  C2B      -27.0120  -32.2250   -5.7770 C.3   301  NAI301      0.2570
     11  O2B      -26.8540  -33.1250   -4.6760 O.3   301  NAI301     -0.2130
     12  C1B      -25.6570  -31.7770   -6.2920 C.3   301  NAI301      0.3186
     13  N9A      -25.0930  -30.6960   -5.4550 N.pl3 301  NAI301     -0.1439
     14  C8A      -25.6390  -29.4990   -5.1740 C.3   301  NAI301      0.3377
     15  N7A      -24.7900  -28.8170   -4.3710 N.2   301  NAI301     -0.2095
     16  C5A      -23.7150  -29.6070   -4.1510 C.2   301  NAI301      0.2526
     17  C6A      -22.5420  -29.4540   -3.4210 C.2   301  NAI301      0.4393
     18  N6A      -22.3230  -28.2990   -2.7380 N.pl3 301  NAI301      0.2180
     19  N1A      -21.6290  -30.4630   -3.4130 N.2   301  NAI301      0.0021
     20  C2A      -21.8440  -31.6060   -4.0920 C.3   301  NAI301      0.5254
     21  N3A      -22.9720  -31.7850   -4.8010 N.2   301  NAI301     -0.0055
     22  C4A      -23.9130  -30.7960   -4.8410 C.2   301  NAI301      0.3518
     23  O3       -30.5400  -31.6040  -11.0560 O.3   301  NAI301     -0.2703
     24  PN       -29.8570  -32.0990  -12.4440 P.3   301  NAI301      0.2189
     25  O1N      -29.4820  -33.5630  -12.3720 O.3   301  NAI301     -0.4371
     26  O2N      -30.7790  -31.5940  -13.5230 O.2   301  NAI301     -0.5170
     27  O5D      -28.4900  -31.2260  -12.5170 O.3   301  NAI301     -0.3112
     28  C5D      -27.3520  -31.6450  -13.2790 C.3   301  NAI301      0.1813
     29  C4D      -26.5450  -30.4610  -13.8400 C.3   301  NAI301      0.1796
     30  O4D      -26.9890  -30.1430  -15.1620 O.3   301  NAI301     -0.3354
     31  C3D      -26.6460  -29.1660  -13.0380 C.3   301  NAI301      0.2155
     32  O3D      -25.3720  -28.5200  -13.0400 O.3   301  NAI301     -0.2176
     33  C2D      -27.5940  -28.3000  -13.8200 C.3   301  NAI301      0.2271
     34  O2D      -27.2240  -26.9380  -13.6100 O.3   301  NAI301     -0.2161
     35  C1D      -27.3700  -28.7670  -15.2560 C.3   301  NAI301      0.2096
     36  N1N      -28.5200  -28.6290  -16.1940 N.3   301  NAI301     -0.2482
     37  C2N      -29.7840  -28.8700  -15.6640 C.3   301  NAI301      0.0834
     38  C3N      -30.8650  -28.6600  -16.4530 C.3   301  NAI301      0.0959
     39  C7N      -32.1480  -29.3560  -16.2550 C.2   301  NAI301      0.2616
     40  O7N      -33.1430  -29.0030  -16.8930 O.2   301  NAI301     -0.2716
     41  N7N      -32.1800  -30.3470  -15.3640 N.am  301  NAI301     -0.0878
     42  C4N      -30.7890  -27.6500  -17.5860 C.3   301  NAI301      0.0120
     43  C5N      -29.4020  -27.0700  -17.7190 C.3   301  NAI301      0.0179
     44  C6N      -28.4750  -27.3980  -16.8170 C.3   301  NAI301      0.0743
@<TRIPOS>BOND
     1    43    42    1
     2    43    44    1
     3    42    38    1
     4    40    39    2
     5    44    36    1
     6    38    39    1
     7    38    37    1
     8    39    41   am
     9    36    37    1
    10    36    35    1
    11    35    30    1
    12    35    33    1
    13    30    29    1
    14    29    28    1
    15    29    31    1
    16    33    34    1
    17    33    31    1
    18    26    24    2
    19    28    27    1
    20    32    31    1
    21    27    24    1
    22    24    25    1
    23    24    23    1
    24    23     1    1
    25     4     1    1
    26     4     5    1
    27     1     3    2
    28     1     2    1
    29     5     6    1
    30     6     7    1
    31     6     8    1
    32     7    12    1
    33     8     9    1
    34     8    10    1
    35    12    10    1
    36    12    13    1
    37    10    11    1
    38    13    14    1
    39    13    22    1
    40    14    15    1
    41    22    21    2
    42    22    16    1
    43    21    20    1
    44    15    16    2
    45    16    17    1
    46    20    19    1
    47    17    19    2
    48    17    18    1
