@<TRIPOS>MOLECULE
3auu_BGC_A_1.pdb
 12 12 0 0 0
SMALL
GASTEIGER

@<TRIPOS>ATOM
      1  C2        -6.3650   -7.4660  -20.2810 C.3   262  BGC262      0.2434
      2  C3        -5.0920   -6.9190  -20.9210 C.3   262  BGC262      0.2199
      3  C4        -4.8090   -7.6950  -22.2140 C.3   262  BGC262      0.2144
      4  C5        -6.0270   -7.6110  -23.1430 C.3   262  BGC262      0.1836
      5  C6        -5.8360   -8.4330  -24.4180 C.3   262  BGC262      0.2142
      6  C1        -7.5140   -7.3690  -21.2800 C.3   262  BGC262      0.3024
      7  O1        -8.6600   -7.9620  -20.7160 O.3   262  BGC262     -0.1869
      8  O2        -6.6700   -6.7400  -19.1130 O.3   262  BGC262     -0.2148
      9  O3        -4.0260   -7.0130  -20.0090 O.3   262  BGC262     -0.2174
     10  O4        -3.6590   -7.2020  -22.8750 O.3   262  BGC262     -0.2176
     11  O5        -7.1880   -8.0630  -22.4650 O.3   262  BGC262     -0.3236
     12  O6        -5.3890   -9.7340  -24.1010 O.3   262  BGC262     -0.2176
@<TRIPOS>BOND
     1     5    12    1
     2     5     4    1
     3     4    11    1
     4     4     3    1
     5    10     3    1
     6    11     6    1
     7     3     2    1
     8     6     7    1
     9     6     1    1
    10     2     1    1
    11     2     9    1
    12     1     8    1
