@<TRIPOS>MOLECULE
3aux_ADP_A_1.pdb
 27 29 0 0 0
SMALL
GASTEIGER

@<TRIPOS>ATOM
      1  PB        86.1780  -48.5450   -3.0150 P.3   1006  ADP1006     0.5373
      2  O1B       87.0020  -48.9090   -1.8660 O.3   1006  ADP1006    -0.1143
      3  O2B       84.6420  -48.5910   -2.6480 O.3   1006  ADP1006    -0.1143
      4  O3B       86.3910  -49.5710   -4.2270 O.2   1006  ADP1006    -0.2221
      5  PA        88.1050  -47.0700   -3.8190 P.3   1006  ADP1006     0.2231
      6  O1A       88.8000  -47.0510   -2.4910 O.3   1006  ADP1006    -0.4370
      7  O2A       88.5550  -48.3930   -4.6530 O.2   1006  ADP1006    -0.5169
      8  O3A       86.5480  -47.0520   -3.4960 O.3   1006  ADP1006    -0.2261
      9  O5'       88.5560  -45.6900   -4.5430 O.3   1006  ADP1006    -0.3111
     10  C5'       89.8890  -45.9670   -4.9900 C.3   1006  ADP1006     0.1813
     11  C4'       90.4930  -44.8440   -5.8180 C.3   1006  ADP1006     0.1821
     12  O4'       90.7620  -43.6460   -5.0510 O.3   1006  ADP1006    -0.3135
     13  C3'       91.8370  -45.3010   -6.3760 C.3   1006  ADP1006     0.2184
     14  O3'       91.6480  -45.8530   -7.6860 O.3   1006  ADP1006    -0.2174
     15  C2'       92.7200  -44.0640   -6.3780 C.3   1006  ADP1006     0.2570
     16  O2'       93.1660  -43.7390   -7.7100 O.3   1006  ADP1006    -0.2130
     17  C1'       91.8380  -42.9640   -5.7700 C.3   1006  ADP1006     0.3186
     18  N9        92.6630  -42.1800   -4.8630 N.pl3 1006  ADP1006    -0.1439
     19  C8        93.2810  -42.6210   -3.7220 C.3   1006  ADP1006     0.3377
     20  N7        93.9330  -41.6480   -3.1630 N.2   1006  ADP1006    -0.2095
     21  C5        93.7800  -40.5270   -3.9040 C.2   1006  ADP1006     0.2526
     22  C6        94.2340  -39.1860   -3.8060 C.2   1006  ADP1006     0.4393
     23  N6        95.0390  -38.7890   -2.7510 N.pl3 1006  ADP1006     0.2180
     24  N1        93.8650  -38.3070   -4.7690 N.2   1006  ADP1006     0.0021
     25  C2        93.0830  -38.6700   -5.8030 C.3   1006  ADP1006     0.5254
     26  N3        92.6350  -39.9160   -5.9280 N.2   1006  ADP1006    -0.0055
     27  C4        92.9540  -40.8610   -5.0100 C.2   1006  ADP1006     0.3518
@<TRIPOS>BOND
     1    16    15    1
     2    14    13    1
     3    15    13    1
     4    15    17    1
     5    13    11    1
     6    26    25    1
     7    26    27    2
     8    11    12    1
     9    11    10    1
    10    25    24    1
    11    17    12    1
    12    17    18    1
    13    27    18    1
    14    27    21    1
    15    10     9    1
    16    18    19    1
    17    24    22    2
    18     7     5    2
    19     9     5    1
    20     4     1    2
    21    21    22    1
    22    21    20    2
    23     5     8    1
    24     5     6    1
    25    22    23    1
    26    19    20    1
    27     8     1    1
    28     1     3    1
    29     1     2    1
