@<TRIPOS>MOLECULE
3auy_ADP_A_1.pdb
 27 29 0 0 0
SMALL
GASTEIGER

@<TRIPOS>ATOM
      1  PB       -90.8330   12.3990  -21.2360 P.3   1006  ADP1006     0.5373
      2  O1B      -91.1080   12.4780  -19.7650 O.3   1006  ADP1006    -0.1143
      3  O2B      -89.5700   12.9850  -21.7250 O.3   1006  ADP1006    -0.1143
      4  O3B      -92.0950   13.0490  -22.0340 O.2   1006  ADP1006    -0.2221
      5  PA       -91.1250    9.5100  -20.7680 P.3   1006  ADP1006     0.2231
      6  O1A      -90.0810    9.4300  -19.7570 O.3   1006  ADP1006    -0.4370
      7  O2A      -92.5430    9.4500  -20.3610 O.2   1006  ADP1006    -0.5169
      8  O3A      -90.7620   10.8760  -21.5910 O.3   1006  ADP1006    -0.2261
      9  O5'      -90.7980    8.3060  -21.7150 O.3   1006  ADP1006    -0.3111
     10  C5'      -91.4960    7.9050  -22.8360 C.3   1006  ADP1006     0.1813
     11  C4'      -90.5900    7.2640  -23.8620 C.3   1006  ADP1006     0.1821
     12  O4'      -89.9340    6.0780  -23.2650 O.3   1006  ADP1006    -0.3135
     13  C3'      -91.3550    6.8380  -25.0570 C.3   1006  ADP1006     0.2184
     14  O3'      -90.6410    7.7180  -25.9140 O.3   1006  ADP1006    -0.2174
     15  C2'      -91.0520    5.3730  -25.2160 C.3   1006  ADP1006     0.2570
     16  O2'      -90.5430    5.0390  -26.4730 O.3   1006  ADP1006    -0.2130
     17  C1'      -90.0410    4.9490  -24.1510 C.3   1006  ADP1006     0.3186
     18  N9       -90.4930    3.7220  -23.4190 N.pl3 1006  ADP1006    -0.1439
     19  C8       -91.6390    3.5290  -22.6600 C.3   1006  ADP1006     0.3377
     20  N7       -91.7770    2.3320  -22.1290 N.2   1006  ADP1006    -0.2095
     21  C5       -90.6260    1.6660  -22.5590 C.2   1006  ADP1006     0.2526
     22  C6       -90.1340    0.3200  -22.3550 C.2   1006  ADP1006     0.4393
     23  N6       -90.8200   -0.5450  -21.6160 N.pl3 1006  ADP1006     0.2180
     24  N1       -88.9210   -0.0670  -22.9270 N.2   1006  ADP1006     0.0021
     25  C2       -88.2210    0.8190  -23.6860 C.3   1006  ADP1006     0.5254
     26  N3       -88.5780    2.1260  -23.9670 N.2   1006  ADP1006    -0.0055
     27  C4       -89.8210    2.4910  -23.3640 C.2   1006  ADP1006     0.3518
@<TRIPOS>BOND
     1    16    15    1
     2    14    13    1
     3    15    13    1
     4    15    17    1
     5    13    11    1
     6    17    18    1
     7    17    12    1
     8    26    25    1
     9    26    27    2
    10    11    12    1
    11    11    10    1
    12    25    24    1
    13    18    27    1
    14    18    19    1
    15    27    21    1
    16    24    22    2
    17    10     9    1
    18    19    20    1
    19    21    22    1
    20    21    20    2
    21    22    23    1
    22     4     1    2
    23     3     1    1
    24     9     5    1
    25     8     1    1
    26     8     5    1
    27     1     2    1
    28     5     7    2
    29     5     6    1
