@<TRIPOS>MOLECULE
3av0_AGS_B_1.pdb
 31 33 0 0 0
SMALL
GASTEIGER

@<TRIPOS>ATOM
      1  PG        33.3420   13.3540   40.9020 P.3   1006  AGS1006     0.4340
      2  S1G       34.6160   15.0150   40.5620 S.3   1006  AGS1006     0.0416
      3  O2G       33.2890   13.1220   42.5420 O.3   1006  AGS1006    -0.1305
      4  O3G       33.8530   12.1350   40.2770 O.2   1006  AGS1006    -0.2423
      5  PB        31.3640   13.1330   38.7980 P.3   1006  AGS1006     0.2262
      6  O1B       30.4730   14.3220   38.1150 O.3   1006  AGS1006    -0.4369
      7  O2B       32.4030   12.7310   37.8710 O.2   1006  AGS1006    -0.5168
      8  O3B       31.8210   13.5980   40.3090 O.3   1006  AGS1006    -0.2405
      9  PA        29.6610   10.8090   38.2280 P.3   1006  AGS1006     0.2189
     10  O1A       29.9670   10.9210   36.6210 O.2   1006  AGS1006    -0.5170
     11  O2A       30.1330    9.4870   38.6460 O.3   1006  AGS1006    -0.4371
     12  O3A       30.4220   11.8540   39.2400 O.3   1006  AGS1006    -0.2701
     13  O5'       28.1100   11.0550   38.6780 O.3   1006  AGS1006    -0.3112
     14  C5'       28.0410   11.0170   40.0570 C.3   1006  AGS1006     0.1813
     15  C4'       26.6680   11.4660   40.4790 C.3   1006  AGS1006     0.1821
     16  O4'       25.6780   10.7550   39.7250 O.3   1006  AGS1006    -0.3135
     17  C3'       26.5520   11.0930   41.9390 C.3   1006  AGS1006     0.2184
     18  O3'       26.0190   12.1800   42.6570 O.3   1006  AGS1006    -0.2174
     19  C2'       25.5690   10.0040   41.9780 C.3   1006  AGS1006     0.2570
     20  O2'       24.7170   10.3200   43.0380 O.3   1006  AGS1006    -0.2130
     21  C1'       24.7690   10.1800   40.7060 C.3   1006  AGS1006     0.3186
     22  N9        24.4490    8.8120   40.3560 N.pl3 1006  AGS1006    -0.1439
     23  C8        25.4130    7.6910   40.2380 C.3   1006  AGS1006     0.3377
     24  N7        24.6490    6.5050   39.8850 N.2   1006  AGS1006    -0.2095
     25  C5        23.2360    6.8780   39.8090 C.2   1006  AGS1006     0.2526
     26  C6        22.0040    6.0680   39.5080 C.2   1006  AGS1006     0.4393
     27  N6        22.1040    4.6420   39.2480 N.pl3 1006  AGS1006     0.2180
     28  N1        20.7180    6.7330   39.5170 N.2   1006  AGS1006     0.0021
     29  C2        20.6230    8.2050   39.8230 C.3   1006  AGS1006     0.5254
     30  N3        21.8330    9.0030   40.1280 N.2   1006  AGS1006    -0.0055
     31  C4        23.1270    8.3190   40.1120 C.2   1006  AGS1006     0.3518
@<TRIPOS>BOND
     1    10     9    2
     2     7     5    2
     3     6     5    1
     4     9    11    1
     5     9    13    1
     6     9    12    1
     7    13    14    1
     8     5    12    1
     9     5     8    1
    10    27    26    1
    11    26    28    2
    12    26    25    1
    13    28    29    1
    14    16    15    1
    15    16    21    1
    16    25    24    2
    17    25    31    1
    18    29    30    1
    19    24    23    1
    20    14    15    1
    21    31    30    2
    22    31    22    1
    23    23    22    1
    24     4     1    2
    25     8     1    1
    26    22    21    1
    27    15    17    1
    28     2     1    1
    29    21    19    1
    30     1     3    1
    31    17    19    1
    32    17    18    1
    33    19    20    1
