@<TRIPOS>MOLECULE
3av5_SAH_A_1.pdb
 26 28 0 0 0
SMALL
GASTEIGER

@<TRIPOS>ATOM
      1  N         81.9220   14.0380   35.8930 N.3     1  SAH1       -0.1208
      2  CA        81.5340   13.9420   34.4640 C.3     1  SAH1        0.1952
      3  CB        80.4350   14.8770   33.9620 C.3     1  SAH1        0.0422
      4  CG        79.1360   14.4470   34.6620 C.3     1  SAH1        0.0597
      5  SD        77.6620   14.5870   33.5980 S.3     1  SAH1       -0.1375
      6  C         82.6800   13.7910   33.4980 C.2     1  SAH1        0.3819
      7  O         82.4970   12.9870   32.5830 O.co2   1  SAH1       -0.2441
      8  OXT       83.8230   14.4870   33.6020 O.co2   1  SAH1       -0.2441
      9  C5'       76.3000   14.3830   34.7540 C.3     1  SAH1        0.0899
     10  C4'       75.9410   12.9120   34.8620 C.3     1  SAH1        0.1630
     11  O4'       74.8140   12.8180   35.6950 O.3     1  SAH1       -0.3153
     12  C3'       75.4390   12.3180   33.5550 C.3     1  SAH1        0.2168
     13  O3'       76.4870   11.5490   32.9150 O.3     1  SAH1       -0.2175
     14  C2'       74.1230   11.5510   34.0020 C.3     1  SAH1        0.2569
     15  O2'       73.8270   10.2940   33.3390 O.3     1  SAH1       -0.2130
     16  C1'       74.3740   11.4720   35.5250 C.3     1  SAH1        0.3185
     17  N9        73.2510   11.4130   36.4220 N.pl3   1  SAH1       -0.1439
     18  C8        72.1470   12.1760   36.2850 C.3     1  SAH1        0.3377
     19  N7        71.3390   11.9550   37.2540 N.2     1  SAH1       -0.2095
     20  C5        71.8970   11.0820   38.1410 C.2     1  SAH1        0.2526
     21  C6        71.4590   10.5300   39.3880 C.2     1  SAH1        0.4393
     22  N6        70.1960   10.8790   39.9030 N.pl3   1  SAH1        0.2180
     23  N1        72.2790    9.6250   39.9900 N.2     1  SAH1        0.0021
     24  C2        73.4900    9.2850   39.4550 C.3     1  SAH1        0.5254
     25  N3        73.9190    9.8160   38.2850 N.2     1  SAH1       -0.0055
     26  C4        73.1610   10.7160   37.6070 C.2     1  SAH1        0.3518
@<TRIPOS>BOND
     1     7     6   ar
     2    13    12    1
     3    15    14    1
     4     6     8   ar
     5     6     2    1
     6    12    14    1
     7    12    10    1
     8     5     4    1
     9     5     9    1
    10     3     2    1
    11     3     4    1
    12    14    16    1
    13     2     1    1
    14     9    10    1
    15    10    11    1
    16    16    11    1
    17    16    17    1
    18    18    17    1
    19    18    19    1
    20    17    26    1
    21    19    20    2
    22    26    20    1
    23    26    25    2
    24    20    21    1
    25    25    24    1
    26    21    22    1
    27    21    23    2
    28    24    23    1
