@<TRIPOS>MOLECULE
3av6_SAM_A_1.pdb
 27 29 0 0 0
SMALL
GASTEIGER

@<TRIPOS>ATOM
      1  N         81.6720   14.7080   35.8950 N.3     1  SAM1       -0.1208
      2  CA        81.2360   14.0650   34.6220 C.3     1  SAM1        0.1952
      3  C         82.3920   13.8790   33.6540 C.2     1  SAM1        0.3819
      4  O         83.4390   14.5570   33.7560 O.co2   1  SAM1       -0.2441
      5  OXT       82.2700   13.0390   32.7530 O.co2   1  SAM1       -0.2441
      6  CB        80.1470   14.9160   33.9750 C.3     1  SAM1        0.0414
      7  CG        78.9600   15.1360   34.9240 C.3     1  SAM1        0.0503
      8  SD        77.5000   14.9030   33.8880 S.3     1  SAM1       -0.1761
      9  CE        77.2110   16.6060   33.3700 C.3     1  SAM1        0.0590
     10  C5'       75.9880   14.5520   34.8570 C.3     1  SAM1        0.0806
     11  C4'       75.7210   13.0330   34.9610 C.3     1  SAM1        0.1622
     12  O4'       74.9580   12.6770   36.1000 O.3     1  SAM1       -0.3153
     13  C3'       74.9920   12.4440   33.8030 C.3     1  SAM1        0.2168
     14  O3'       75.9700   11.5450   33.4300 O.3     1  SAM1       -0.2175
     15  C2'       73.7120   11.7820   34.4170 C.3     1  SAM1        0.2569
     16  O2'       73.1380   10.5780   33.8450 O.3     1  SAM1       -0.2130
     17  C1'       74.1730   11.5330   35.8290 C.3     1  SAM1        0.3185
     18  N9        73.0610   11.5610   36.7910 N.pl3   1  SAM1       -0.1439
     19  C8        71.8970   12.2830   36.7140 C.3     1  SAM1        0.3377
     20  N7        71.1360   12.0120   37.7420 N.2     1  SAM1       -0.2095
     21  C5        71.7800   11.1270   38.5780 C.2     1  SAM1        0.2526
     22  C6        71.4900   10.5100   39.8480 C.2     1  SAM1        0.4393
     23  N6        70.3120   10.7390   40.5400 N.pl3   1  SAM1        0.2180
     24  N1        72.4040    9.6620   40.3610 N.2     1  SAM1        0.0021
     25  C2        73.5600    9.3930   39.7060 C.3     1  SAM1        0.5254
     26  N3        73.8710    9.9660   38.5300 N.2     1  SAM1       -0.0055
     27  C4        73.0270   10.8310   37.9580 C.2     1  SAM1        0.3518
@<TRIPOS>BOND
     1     5     3   ar
     2     9     8    1
     3    14    13    1
     4     3     4   ar
     5     3     2    1
     6    13    15    1
     7    13    11    1
     8    16    15    1
     9     8    10    1
    10     8     7    1
    11     6     2    1
    12     6     7    1
    13    15    17    1
    14     2     1    1
    15    10    11    1
    16    11    12    1
    17    17    12    1
    18    17    18    1
    19    19    18    1
    20    19    20    1
    21    18    27    1
    22    20    21    2
    23    27    26    2
    24    27    21    1
    25    26    25    1
    26    21    22    1
    27    25    24    1
    28    22    24    2
    29    22    23    1
