@<TRIPOS>MOLECULE
3av7_KYN_A_1.pdb
 15 15 0 0 0
SMALL
GASTEIGER

@<TRIPOS>ATOM
      1  C          5.9070   -9.7090   14.7150 C.2   430  KYN430      0.3823
      2  N          5.0090  -11.4390   13.3240 N.3   430  KYN430     -0.1203
      3  OXT        6.5200   -8.9720   14.0230 O.co2 430  KYN430     -0.2440
      4  C1         2.9010   -9.8510   15.9440 C.2   430  KYN430      0.1764
      5  N1         1.7550   -7.1250   16.5810 N.pl3 430  KYN430     -0.1280
      6  O2         1.7570   -9.7190   15.5930 O.2   430  KYN430     -0.2912
      7  CA         4.6620  -10.4110   14.2370 C.3   430  KYN430      0.2020
      8  CB         3.8210  -10.9530   15.3880 C.3   430  KYN430      0.0997
      9  CG         2.8400   -7.5890   17.2460 C.ar  430  KYN430      0.0918
     10  CZ         5.0840   -8.5010   18.6720 C.ar  430  KYN430      0.0002
     11  CD1        3.4070   -6.8120   18.2320 C.ar  430  KYN430      0.0181
     12  CD2        3.4500   -8.9120   16.9740 C.ar  430  KYN430      0.0515
     13  CE1        4.5210   -7.2630   18.9190 C.ar  430  KYN430      0.0014
     14  CE2        4.5400   -9.3200   17.7080 C.ar  430  KYN430      0.0042
     15  O          6.3620   -9.8070   15.9030 O.co2 430  KYN430     -0.2440
@<TRIPOS>BOND
     1     2     7    1
     2     3     1   ar
     3     7     1    1
     4     7     8    1
     5     1    15   ar
     6     8     4    1
     7     6     4    2
     8     4    12    1
     9     5     9    1
    10    12     9   ar
    11    12    14   ar
    12     9    11   ar
    13    14    10   ar
    14    11    13   ar
    15    10    13   ar
