@<TRIPOS>MOLECULE
3av7_KYA_A_1.pdb
 14 15 0 0 0
SMALL
GASTEIGER

@<TRIPOS>ATOM
      1  N          1.5600   -6.3140   24.5160 N.2   431  KYA431     -0.3989
      2  C1         2.6470   -6.8920   22.4420 C.2   431  KYA431      0.0647
      3  O1         4.3080   -8.5410   22.3980 O.2   431  KYA431     -0.2864
      4  C2         1.6900   -6.1230   23.2000 C.2   431  KYA431      0.1166
      5  O2         2.1280   -8.4160   27.1610 O.co2 431  KYA431     -0.2377
      6  C3         3.4620   -7.8670   23.1300 C.2   431  KYA431      0.2006
      7  O3         2.1680   -6.2700   27.2460 O.co2 431  KYA431     -0.2377
      8  C4         2.7760   -6.6970   21.0840 C.2   431  KYA431      0.0051
      9  C5         0.9230   -5.2200   22.5000 C.3   431  KYA431      0.0850
     10  C6         3.2670   -8.0190   24.4900 C.2   431  KYA431      0.0809
     11  C7         2.3030   -7.2490   25.1430 C.2   431  KYA431      0.2134
     12  C8         2.0070   -5.7580   20.4230 C.2   431  KYA431     -0.0040
     13  C9         1.0970   -5.0300   21.1330 C.2   431  KYA431     -0.0187
     14  C10        2.1530   -7.3400   26.6100 C.2   431  KYA431      0.4169
@<TRIPOS>BOND
     1    12     8    1
     2    12    13    2
     3     8     2    2
     4    13     9    1
     5     3     6    1
     6     2     6    1
     7     2     4    1
     8     9     4    1
     9     6    10    2
    10     4     1    2
    11    10    11    1
    12     1    11    2
    13    11    14    1
    14    14     5   ar
    15    14     7   ar
