@<TRIPOS>MOLECULE
3av7_PMP_A_1.pdb
 16 16 0 0 0
SMALL
GASTEIGER

@<TRIPOS>ATOM
      1  N1        -0.9490  -13.3430    9.1940 N.ar  429  PMP429     -0.2452
      2  C2         0.0370  -13.9360    9.9630 C.ar  429  PMP429      0.0978
      3  C2A       -0.2760  -15.2050   10.7250 C.3   429  PMP429      0.0555
      4  C3         1.3310  -13.3270   10.0260 C.ar  429  PMP429      0.2063
      5  O3         2.2970  -13.9910   10.7520 O.3   429  PMP429     -0.2856
      6  C4         1.6040  -12.1250    9.3370 C.ar  429  PMP429      0.0369
      7  C4A        3.0670  -11.5530    9.2720 C.3   429  PMP429      0.1386
      8  N4A        3.7550  -12.1860    8.1090 N.3   429  PMP429     -0.1261
      9  C5         0.5050  -11.4930    8.6710 C.ar  429  PMP429      0.0275
     10  C6        -0.7460  -12.1120    8.6040 C.ar  429  PMP429      0.0965
     11  C5A        0.5820  -10.1200    8.0690 C.3   429  PMP429      0.1816
     12  O4P        1.3670  -10.1880    6.9350 O.3   429  PMP429     -0.2653
     13  P          1.3110   -9.1610    5.7200 P.3   429  PMP429      0.5329
     14  O1P        0.3810   -8.0890    6.0900 O.3   429  PMP429     -0.1145
     15  O2P        0.7710   -9.9970    4.5350 O.2   429  PMP429     -0.2224
     16  O3P        2.7450   -8.6380    5.5080 O.3   429  PMP429     -0.1145
@<TRIPOS>BOND
     1    15    13    2
     2    16    13    1
     3    13    14    1
     4    13    12    1
     5    12    11    1
     6    11     9    1
     7     8     7    1
     8    10     9   ar
     9    10     1   ar
    10     9     6   ar
    11     1     2   ar
    12     7     6    1
    13     6     4   ar
    14     2     4   ar
    15     2     3    1
    16     4     5    1
