@<TRIPOS>MOLECULE
3ave_FUC_A_1.pdb
 10 10 0 0 0
SMALL
GASTEIGER

@<TRIPOS>ATOM
      1  C1        -0.5270   16.0230   63.9890 C.3    11  FUC11       0.1776
      2  C2        -1.6140   15.8950   62.9200 C.3    11  FUC11       0.2141
      3  C3        -2.6720   14.9230   63.4430 C.3    11  FUC11       0.2172
      4  C4        -3.2480   15.4000   64.8010 C.3    11  FUC11       0.2116
      5  C5        -2.1120   15.6560   65.7900 C.3    11  FUC11       0.1483
      6  C6        -2.5530   16.2380   67.1290 C.3    11  FUC11       0.0349
      7  O2        -1.1240   15.5300   61.6410 O.3    11  FUC11      -0.2176
      8  O3        -3.6660   14.7460   62.4520 O.3    11  FUC11      -0.2175
      9  O4        -3.9640   16.6120   64.6990 O.3    11  FUC11      -0.2177
     10  O5        -1.1120   16.4970   65.2090 O.3    11  FUC11      -0.3508
@<TRIPOS>BOND
     1     7     2    1
     2     8     3    1
     3     2     3    1
     4     2     1    1
     5     3     4    1
     6     1    10    1
     7     9     4    1
     8     4     5    1
     9    10     5    1
    10     5     6    1
