@<TRIPOS>MOLECULE
3ave_MAN_A_1.pdb
 11 11 0 0 0
SMALL
GASTEIGER

@<TRIPOS>ATOM
      1  C1         4.5360   12.1060   55.8790 C.3     7  MAN7        0.1777
      2  C2         4.9850   13.4460   56.4220 C.3     7  MAN7        0.2141
      3  C3         3.9110   13.9870   57.3940 C.3     7  MAN7        0.2173
      4  C4         2.5080   14.0540   56.7700 C.3     7  MAN7        0.2142
      5  C5         2.1710   12.6590   56.2370 C.3     7  MAN7        0.1810
      6  C6         0.8570   12.6220   55.4640 C.3     7  MAN7        0.2141
      7  O2         5.0930   14.3360   55.3470 O.3     7  MAN7       -0.2176
      8  O3         4.3020   15.2500   57.8700 O.3     7  MAN7       -0.2175
      9  O4         1.5250   14.5020   57.6960 O.3     7  MAN7       -0.2176
     10  O5         3.2090   12.2060   55.3620 O.3     7  MAN7       -0.3481
     11  O6         0.7060   11.3400   54.8850 O.3     7  MAN7       -0.2176
@<TRIPOS>BOND
     1    11     6    1
     2     7     2    1
     3    10     1    1
     4    10     5    1
     5     6     5    1
     6     1     2    1
     7     5     4    1
     8     2     3    1
     9     4     3    1
    10     4     9    1
    11     3     8    1
