@<TRIPOS>MOLECULE
3ave_BMA_A_1.pdb
 11 11 0 0 0
SMALL
GASTEIGER

@<TRIPOS>ATOM
      1  C1         4.3310    8.3820   59.8100 C.3     3  BMA3        0.1777
      2  C2         4.3980    6.8990   59.4990 C.3     3  BMA3        0.2141
      3  C3         5.3910    6.6660   58.3470 C.3     3  BMA3        0.2173
      4  C4         5.1280    7.5160   57.1180 C.3     3  BMA3        0.2142
      5  C5         5.0220    8.9610   57.5400 C.3     3  BMA3        0.1810
      6  C6         4.6250    9.8250   56.3590 C.3     3  BMA3        0.2141
      7  O2         3.0780    6.4200   59.1610 O.3     3  BMA3       -0.2176
      8  O3         5.2640    5.3540   57.8480 O.3     3  BMA3       -0.2175
      9  O4         6.2290    7.3450   56.2070 O.3     3  BMA3       -0.2176
     10  O5         4.0910    9.1550   58.6260 O.3     3  BMA3       -0.3481
     11  O6         4.6900   11.1390   56.9140 O.3     3  BMA3       -0.2176
@<TRIPOS>BOND
     1     9     4    1
     2     6    11    1
     3     6     5    1
     4     4     5    1
     5     4     3    1
     6     5    10    1
     7     8     3    1
     8     3     2    1
     9    10     1    1
    10     7     2    1
    11     2     1    1
