@<TRIPOS>MOLECULE
3avo_PAU_A_1.pdb
 15 14 0 0 0
SMALL
GASTEIGER

@<TRIPOS>ATOM
      1  O2        41.9710   34.6440   10.4510 O.3   314  PAU314     -0.2203
      2  C1        42.3110   35.0880   12.8040 C.3   314  PAU314      0.0674
      3  C2        41.5870   35.5080   11.5240 C.3   314  PAU314      0.1849
      4  C3        42.5410   33.5760   12.7500 C.3   314  PAU314      0.0057
      5  C4        41.4290   35.4120   14.0110 C.3   314  PAU314      0.0057
      6  C5        43.6670   35.7900   12.9370 C.3   314  PAU314      0.2313
      7  O5'       44.5280   35.3890   11.8680 O.3   314  PAU314     -0.2131
      8  C6        43.5130   37.3140   12.9430 C.2   314  PAU314      0.2719
      9  O6'       42.4130   37.8460   13.0800 O.2   314  PAU314     -0.2706
     10  N         44.6460   38.0010   12.8110 N.am  314  PAU314     -0.2027
     11  C8        44.6550   39.4710   12.7900 C.3   314  PAU314      0.1270
     12  C9        46.0840   40.0020   12.6490 C.3   314  PAU314      0.1374
     13  C         46.9130   39.7200   13.9030 C.2   314  PAU314      0.3667
     14  OXT       47.8610   40.5000   14.1450 O.co2 314  PAU314     -0.2456
     15  O         46.5770   38.7370   14.5970 O.co2 314  PAU314     -0.2456
@<TRIPOS>BOND
     1     1     3    1
     2     3     2    1
     3     7     6    1
     4    12    11    1
     5    12    13    1
     6     4     2    1
     7    11    10    1
     8     2     6    1
     9     2     5    1
    10    10     8   am
    11     6     8    1
    12     8     9    2
    13    13    14   ar
    14    13    15   ar
