@<TRIPOS>MOLECULE
3avp_MV2_A_1.pdb
 14 13 0 0 0
SMALL
GASTEIGER

@<TRIPOS>ATOM
      1  C         43.2570   38.2920   61.0200 C.3   313  MV2313      0.1839
      2  N         44.3280   38.4130   58.4560 N.am  313  MV2313     -0.2032
      3  O         43.5950   37.3750   62.0670 O.3   313  MV2313     -0.2204
      4  C1        42.2970   35.4370   57.7270 C.3   313  MV2313      0.0674
      5  C2        42.6140   34.1110   57.0450 C.3   313  MV2313      0.1849
      6  O2        43.7090   33.4790   57.7170 O.3   313  MV2313     -0.2203
      7  C3        42.1690   35.2060   59.2260 C.3   313  MV2313      0.0057
      8  C4        40.9870   35.9790   57.1730 C.3   313  MV2313      0.0057
      9  C5        43.4240   36.4210   57.4480 C.3   313  MV2313      0.2313
     10  O5        44.6820   35.7950   57.7200 O.3   313  MV2313     -0.2131
     11  C6        43.2640   37.6250   58.3280 C.2   313  MV2313      0.2719
     12  O6        42.2030   37.8480   58.8870 O.2   313  MV2313     -0.2706
     13  C8        44.4270   39.6310   59.2460 C.3   313  MV2313      0.1179
     14  C9        44.4670   39.1590   60.6940 C.3   313  MV2313      0.0589
@<TRIPOS>BOND
     1     5     6    1
     2     5     4    1
     3     8     4    1
     4     9    10    1
     5     9     4    1
     6     9    11    1
     7     4     7    1
     8    11     2   am
     9    11    12    2
    10     2    13    1
    11    13    14    1
    12    14     1    1
    13     1     3    1
