@<TRIPOS>MOLECULE
3avq_MV1_A_1.pdb
 24 23 0 0 0
SMALL
GASTEIGER

@<TRIPOS>ATOM
      1  C         59.7010   38.4080   -1.0740 C.2   313  MV1313      0.2432
      2  N         58.7890   38.1860    1.7800 N.am  313  MV1313     -0.2028
      3  C1        61.2100   35.6260    2.6980 C.3   313  MV1313      0.0674
      4  C2        61.4700   34.6360    3.8410 C.3   313  MV1313      0.1849
      5  O2        62.7200   33.9680    3.6510 O.3   313  MV1313     -0.2203
      6  C3        62.4550   36.4860    2.4680 C.3   313  MV1313      0.0057
      7  C4        60.8830   34.8390    1.4260 C.3   313  MV1313      0.0057
      8  C5        59.9890   36.4920    3.0350 C.3   313  MV1313      0.2313
      9  C6        59.9710   37.8540    2.3150 C.2   313  MV1313      0.2719
     10  C8        58.6460   39.4510    1.0480 C.3   313  MV1313      0.1248
     11  C9        58.5230   39.1670   -0.4520 C.3   313  MV1313      0.1102
     12  N15       59.6620   37.0760   -1.0560 N.am  313  MV1313     -0.2054
     13  C16       60.7590   36.3200   -1.6740 C.3   313  MV1313      0.1151
     14  C17       60.2470   34.9710   -2.1940 C.3   313  MV1313      0.0234
     15  C18       61.0170   34.5860   -3.4590 C.3   313  MV1313      0.0018
     16  C19       60.9900   35.6660   -4.5470 C.3   313  MV1313      0.0001
     17  C20       59.6810   35.7440   -5.3420 C.3   313  MV1313      0.0000
     18  C21       58.4870   35.7160   -4.3870 C.3   313  MV1313      0.0000
     19  C22       57.5650   36.9360   -4.4420 C.3   313  MV1313      0.0000
     20  C23       56.5550   36.7860   -3.3010 C.3   313  MV1313      0.0000
     21  C24       56.0680   38.1230   -2.7380 C.3   313  MV1313      0.0000
     22  O25       60.5970   39.0280   -1.6430 O.2   313  MV1313     -0.2733
     23  O5'       58.8040   35.7800    2.6710 O.3   313  MV1313     -0.2131
     24  O6'       60.9560   38.5660    2.2520 O.2   313  MV1313     -0.2706
@<TRIPOS>BOND
     1    17    16    1
     2    17    18    1
     3    16    15    1
     4    19    18    1
     5    19    20    1
     6    15    14    1
     7    20    21    1
     8    14    13    1
     9    13    12    1
    10    22     1    2
    11     1    12   am
    12     1    11    1
    13    11    10    1
    14    10     2    1
    15     7     3    1
    16     2     9   am
    17    24     9    2
    18     9     8    1
    19     6     3    1
    20    23     8    1
    21     3     8    1
    22     3     4    1
    23     5     4    1
