@<TRIPOS>MOLECULE
3avt_GH3_A_1.pdb
 31 33 0 0 0
SMALL
GASTEIGER

@<TRIPOS>ATOM
      1  PG        51.4930   71.9830    2.6280 P.3   2502  GH32502     0.5373
      2  O1G       50.3730   71.3480    1.8290 O.2   2502  GH32502    -0.2221
      3  O2G       51.1590   72.0320    4.1130 O.3   2502  GH32502    -0.1143
      4  O3G       51.7530   73.4010    2.1850 O.3   2502  GH32502    -0.1143
      5  O3B       52.8150   71.2510    2.4040 O.3   2502  GH32502    -0.2258
      6  PB        52.9330   69.8430    1.7360 P.3   2502  GH32502     0.2277
      7  O1B       52.4320   70.0460    0.3140 O.2   2502  GH32502    -0.5168
      8  O2B       54.3670   69.3310    1.7490 O.3   2502  GH32502    -0.4368
      9  O3A       51.9080   68.8560    2.4680 O.3   2502  GH32502    -0.2700
     10  PA        51.7580   67.2900    2.0880 P.3   2502  GH32502     0.2189
     11  O1A       50.3490   66.7950    2.5650 O.3   2502  GH32502    -0.4371
     12  O2A       51.8120   67.1270    0.6010 O.2   2502  GH32502    -0.5170
     13  O5'       52.9270   66.4670    2.7810 O.3   2502  GH32502    -0.3113
     14  C5'       54.1790   66.3740    2.1560 C.3   2502  GH32502     0.1786
     15  C4'       55.1560   65.2940    2.4640 C.3   2502  GH32502     0.1497
     16  O4'       54.6280   63.9520    2.2520 O.3   2502  GH32502    -0.3353
     17  C3'       56.3140   65.3530    1.5420 C.3   2502  GH32502     0.0695
     18  C2'       56.0470   64.3900    0.4500 C.3   2502  GH32502     0.2010
     19  O2'       57.1070   63.5170    0.1490 O.3   2502  GH32502    -0.2185
     20  C1'       54.8040   63.6560    0.8760 C.3   2502  GH32502     0.2266
     21  N9        53.6540   63.9870    0.0780 N.pl3 2502  GH32502    -0.2354
     22  C8        52.4240   64.3710    0.2620 C.3   2502  GH32502     0.2246
     23  N7        51.8310   64.5190   -0.8260 N.2   2502  GH32502    -0.2322
     24  C5        52.5890   64.2530   -1.8800 C.2   2502  GH32502     0.2182
     25  C6        52.4420   64.2550   -3.2540 C.1   2502  GH32502     0.2372
     26  O6        51.2330   64.6070   -3.8280 O.2   2502  GH32502    -0.2069
     27  N1        53.5000   63.9040   -4.0280 N.2   2502  GH32502    -0.2485
     28  C2        54.6960   63.5530   -3.4850 C.1   2502  GH32502     0.2531
     29  N2        55.8160   63.1700   -4.3780 N.pl3 2502  GH32502    -0.0226
     30  N3        54.9010   63.5320   -2.1580 N.2   2502  GH32502    -0.3074
     31  C4        53.8940   63.8680   -1.3400 C.2   2502  GH32502     0.2300
@<TRIPOS>BOND
     1    29    28    1
     2    27    28    2
     3    27    25    2
     4    26    25    2
     5    28    30    2
     6    25    24    1
     7    30    31    2
     8    24    31    1
     9    24    23    2
    10    31    21    1
    11    23    22    1
    12    21    22    1
    13    21    20    1
    14    19    18    1
    15     7     6    2
    16    18    20    1
    17    18    17    1
    18    12    10    2
    19    20    16    1
    20    17    15    1
    21     6     8    1
    22     6     5    1
    23     6     9    1
    24     2     1    2
    25    10     9    1
    26    10    11    1
    27    10    13    1
    28    14    15    1
    29    14    13    1
    30     4     1    1
    31    16    15    1
    32     5     1    1
    33     1     3    1
