@<TRIPOS>MOLECULE
3avw_GH3_T_1.pdb
 31 33 0 0 0
SMALL
GASTEIGER

@<TRIPOS>ATOM
      1  PG       -52.1460   72.3080   -2.6320 P.3   2501  GH32501     0.5373
      2  O1G      -50.9130   72.3270   -1.7630 O.3   2501  GH32501    -0.1143
      3  O2G      -51.7990   71.6890   -3.9540 O.2   2501  GH32501    -0.2221
      4  O3G      -52.5890   73.7280   -2.9430 O.3   2501  GH32501    -0.1143
      5  O3B      -53.3180   71.6560   -1.8840 O.3   2501  GH32501    -0.2258
      6  PB       -53.8090   70.1830   -1.9820 P.3   2501  GH32501     0.2277
      7  O1B      -54.8020   69.8370   -0.8820 O.3   2501  GH32501    -0.4368
      8  O2B      -54.5200   69.9710   -3.2860 O.2   2501  GH32501    -0.5168
      9  O3A      -52.4610   69.4000   -1.7140 O.3   2501  GH32501    -0.2700
     10  PA       -52.0570   67.9810   -2.3480 P.3   2501  GH32501     0.2189
     11  O1A      -51.9510   68.1430   -3.8990 O.2   2501  GH32501    -0.5170
     12  O2A      -50.7620   67.5680   -1.6970 O.3   2501  GH32501    -0.4371
     13  O5'      -53.1790   66.9390   -2.0930 O.3   2501  GH32501    -0.3113
     14  C5'      -53.5410   66.0030   -3.0390 C.3   2501  GH32501     0.1786
     15  C4'      -54.8110   65.3050   -2.7370 C.3   2501  GH32501     0.1497
     16  O4'      -54.5390   64.0060   -2.1390 O.3   2501  GH32501    -0.3353
     17  C3'      -55.6360   66.0270   -1.7460 C.3   2501  GH32501     0.0695
     18  C2'      -55.9210   65.0690   -0.6650 C.3   2501  GH32501     0.2010
     19  O2'      -57.1490   64.4500   -0.8380 O.3   2501  GH32501    -0.2185
     20  C1'      -54.9010   64.0040   -0.7790 C.3   2501  GH32501     0.2266
     21  N9       -53.8300   64.1870    0.1320 N.pl3 2501  GH32501    -0.2354
     22  C8       -52.6130   64.6300    0.1300 C.3   2501  GH32501     0.2246
     23  N7       -52.0840   64.5340    1.2460 N.2   2501  GH32501    -0.2322
     24  C5       -52.8930   63.9940    2.1280 C.2   2501  GH32501     0.2182
     25  C6       -52.8000   63.6880    3.4530 C.1   2501  GH32501     0.2372
     26  O6       -51.5990   63.9900    4.0630 O.2   2501  GH32501    -0.2069
     27  N1       -53.8630   63.1140    4.0950 N.2   2501  GH32501    -0.2485
     28  C2       -55.0270   62.8550    3.4180 C.1   2501  GH32501     0.2531
     29  N2       -56.1500   62.2230    4.1670 N.pl3 2501  GH32501    -0.0226
     30  N3       -55.1760   63.1390    2.0990 N.2   2501  GH32501    -0.3074
     31  C4       -54.1470   63.6910    1.4460 C.2   2501  GH32501     0.2300
@<TRIPOS>BOND
     1     3     1    2
     2    11    10    2
     3     8     6    2
     4    14    15    1
     5    14    13    1
     6     4     1    1
     7    15    16    1
     8    15    17    1
     9     1     5    1
    10     1     2    1
    11    10    13    1
    12    10     9    1
    13    10    12    1
    14    16    20    1
    15     6     5    1
    16     6     9    1
    17     6     7    1
    18    17    18    1
    19    19    18    1
    20    20    18    1
    21    20    21    1
    22    22    21    1
    23    22    23    1
    24    21    31    1
    25    23    24    2
    26    31    30    2
    27    31    24    1
    28    30    28    2
    29    24    25    1
    30    28    27    2
    31    28    29    1
    32    25    26    2
    33    25    27    2
