@<TRIPOS>MOLECULE
3avx_GH3_A_1.pdb
 31 33 0 0 0
SMALL
GASTEIGER

@<TRIPOS>ATOM
      1  PG       -51.7850  -72.0970    2.5770 P.3   2501  GH32501     0.5373
      2  O1G      -51.5780  -71.6660    4.1000 O.3   2501  GH32501    -0.1143
      3  O2G      -51.9060  -73.5370    2.6010 O.3   2501  GH32501    -0.1143
      4  O3G      -50.5430  -71.7420    1.7030 O.2   2501  GH32501    -0.2221
      5  O3B      -52.9820  -71.4940    1.7810 O.3   2501  GH32501    -0.2258
      6  PB       -53.6070  -70.0010    1.8850 P.3   2501  GH32501     0.2277
      7  O1B      -54.6800  -69.8670    0.8380 O.2   2501  GH32501    -0.5168
      8  O2B      -54.3060  -69.8040    3.3120 O.3   2501  GH32501    -0.4368
      9  O3A      -52.5510  -68.9750    1.4120 O.3   2501  GH32501    -0.2700
     10  PA       -51.6480  -67.9670    2.2580 P.3   2501  GH32501     0.2189
     11  O1A      -51.4200  -68.5560    3.5830 O.3   2501  GH32501    -0.4371
     12  O2A      -50.2760  -67.8110    1.4960 O.2   2501  GH32501    -0.5170
     13  O5'      -52.4100  -66.5870    2.4630 O.3   2501  GH32501    -0.3113
     14  C5'      -53.7960  -66.6020    2.4660 C.3   2501  GH32501     0.1786
     15  C4'      -54.5390  -65.4270    2.7660 C.3   2501  GH32501     0.1497
     16  O4'      -53.9730  -64.2060    2.1800 O.3   2501  GH32501    -0.3353
     17  C3'      -55.8560  -65.5780    2.1320 C.3   2501  GH32501     0.0695
     18  C2'      -55.7340  -64.9110    0.8450 C.3   2501  GH32501     0.2010
     19  O2'      -56.9230  -64.3430    0.5080 O.3   2501  GH32501    -0.2185
     20  C1'      -54.6530  -63.8990    0.9910 C.3   2501  GH32501     0.2266
     21  N9       -53.7260  -63.9880   -0.1350 N.pl3 2501  GH32501    -0.2354
     22  C8       -52.5120  -64.4600   -0.1020 C.3   2501  GH32501     0.2246
     23  N7       -51.9100  -64.4640   -1.1790 N.2   2501  GH32501    -0.2322
     24  C5       -52.6410  -63.9890   -2.1500 C.2   2501  GH32501     0.2182
     25  C6       -52.4940  -63.7670   -3.5060 C.1   2501  GH32501     0.2372
     26  O6       -51.2790  -64.1030   -4.1220 O.2   2501  GH32501    -0.2069
     27  N1       -53.5390  -63.2240   -4.2010 N.2   2501  GH32501    -0.2485
     28  C2       -54.7420  -62.9000   -3.6080 C.1   2501  GH32501     0.2531
     29  N2       -55.7650  -62.3440   -4.3840 N.pl3 2501  GH32501    -0.0226
     30  N3       -54.9100  -63.1150   -2.2620 N.2   2501  GH32501    -0.3074
     31  C4       -53.9190  -63.6350   -1.5170 C.2   2501  GH32501     0.2300
@<TRIPOS>BOND
     1    29    28    1
     2    27    28    2
     3    27    25    2
     4    26    25    2
     5    28    30    2
     6    25    24    1
     7    30    31    2
     8    24    31    1
     9    24    23    2
    10    31    21    1
    11    23    22    1
    12    21    22    1
    13    21    20    1
    14    19    18    1
    15     7     6    2
    16    18    20    1
    17    18    17    1
    18    20    16    1
    19     9     6    1
    20     9    10    1
    21    12    10    2
    22     4     1    2
    23     5     6    1
    24     5     1    1
    25     6     8    1
    26    17    15    1
    27    16    15    1
    28    10    13    1
    29    10    11    1
    30    13    14    1
    31    14    15    1
    32     1     3    1
    33     1     2    1
