@<TRIPOS>MOLECULE
3avy_CH1_A_1.pdb
 28 29 0 0 0
SMALL
GASTEIGER

@<TRIPOS>ATOM
      1  N1       -14.7980  -63.2420    1.2090 N.am  2501  CH12501    -0.1779
      2  C2       -14.0660  -62.3190    1.8950 C.1   2501  CH12501     0.2756
      3  N3       -14.1770  -62.2530    3.2470 N.2   2501  CH12501    -0.3024
      4  C4       -14.9990  -63.0940    3.9310 C.2   2501  CH12501     0.2346
      5  C5       -15.7330  -64.0450    3.2310 C.2   2501  CH12501     0.0687
      6  C6       -15.6140  -64.1070    1.8580 C.2   2501  CH12501     0.0836
      7  O2       -13.3120  -61.5400    1.3140 O.2   2501  CH12501    -0.1925
      8  N4       -15.0740  -62.9600    5.3690 N.pl3 2501  CH12501    -0.0921
      9  C1'      -14.6100  -63.2900   -0.2500 C.3   2501  CH12501     0.2373
     10  C2'      -13.3470  -63.9440   -0.4550 C.3   2501  CH12501     0.2019
     11  O2'      -12.2850  -63.0100   -0.3370 O.3   2501  CH12501    -0.2185
     12  C3'      -13.4390  -64.5860   -1.7710 C.3   2501  CH12501     0.0695
     13  C4'      -14.8250  -64.5670   -2.1280 C.3   2501  CH12501     0.1498
     14  O4'      -15.5240  -64.0740   -0.9850 O.3   2501  CH12501    -0.3347
     15  C5'      -15.3160  -65.9190   -2.6130 C.3   2501  CH12501     0.1786
     16  O5'      -16.2020  -66.6970   -1.8530 O.3   2501  CH12501    -0.3113
     17  PA       -17.5740  -67.1960   -2.4280 P.3   2501  CH12501     0.2189
     18  O1A      -17.5720  -66.8530   -3.8800 O.2   2501  CH12501    -0.5170
     19  O2A      -18.7280  -66.5170   -1.7800 O.3   2501  CH12501    -0.4371
     20  O3A      -17.6550  -68.7720   -2.3080 O.3   2501  CH12501    -0.2700
     21  PB       -16.4700  -69.6890   -1.7560 P.3   2501  CH12501     0.2277
     22  O1B      -16.4970  -69.5320   -0.2450 O.3   2501  CH12501    -0.4368
     23  O2B      -15.0940  -69.2950   -2.2670 O.2   2501  CH12501    -0.5168
     24  O3B      -16.7660  -71.2420   -2.0490 O.3   2501  CH12501    -0.2258
     25  PG       -18.1390  -71.9170   -2.5540 P.3   2501  CH12501     0.5373
     26  O1G      -19.2060  -71.5520   -1.5240 O.3   2501  CH12501    -0.1143
     27  O2G      -18.6030  -71.3490   -3.9090 O.2   2501  CH12501    -0.2221
     28  O3G      -17.9880  -73.4250   -2.7370 O.3   2501  CH12501    -0.1143
@<TRIPOS>BOND
     1    27    25    2
     2    18    17    2
     3    28    25    1
     4    15    13    1
     5    15    16    1
     6    25    24    1
     7    25    26    1
     8    17    20    1
     9    17    16    1
    10    17    19    1
    11    20    21    1
    12    23    21    2
    13    13    12    1
    14    13    14    1
    15    24    21    1
    16    12    10    1
    17    21    22    1
    18    14     9    1
    19    10    11    1
    20    10     9    1
    21     9     1    1
    22     1     6    1
    23     1     2   am
    24     7     2    2
    25     6     5    2
    26     2     3    2
    27     5     4    1
    28     3     4    2
    29     4     8    1
