@<TRIPOS>MOLECULE
3aw8_AMP_A_1.pdb
 23 25 0 0 0
SMALL
GASTEIGER

@<TRIPOS>ATOM
      1  P         25.7160   15.5690  -30.5970 P.3   370  AMP370      0.5327
      2  O1P       25.7570   15.7860  -29.1260 O.3   370  AMP370     -0.1145
      3  O2P       27.2090   15.7000  -31.2030 O.3   370  AMP370     -0.1145
      4  O3P       24.7580   16.6720  -31.2740 O.2   370  AMP370     -0.2224
      5  O5'       25.1200   14.0910  -30.9200 O.3   370  AMP370     -0.2675
      6  C5'       26.0010   13.1050  -30.3500 C.3   370  AMP370      0.1860
      7  C4'       25.6240   11.7060  -30.8760 C.3   370  AMP370      0.1823
      8  O4'       25.8510   11.5980  -32.3200 O.3   370  AMP370     -0.3135
      9  C3'       26.4590   10.6020  -30.2020 C.3   370  AMP370      0.2184
     10  O3'       25.6330    9.4740  -29.8850 O.3   370  AMP370     -0.2174
     11  C2'       27.5570   10.2600  -31.2190 C.3   370  AMP370      0.2570
     12  O2'       27.8630    8.8590  -31.1990 O.3   370  AMP370     -0.2130
     13  C1'       26.9970   10.7200  -32.5840 C.3   370  AMP370      0.3186
     14  N9        28.0360   11.4410  -33.3610 N.pl3 370  AMP370     -0.1439
     15  C8        28.2840   12.7910  -33.3450 C.3   370  AMP370      0.3377
     16  N7        29.2660   13.0850  -34.1470 N.2   370  AMP370     -0.2095
     17  C5        29.7170   11.9580  -34.7330 C.2   370  AMP370      0.2526
     18  C6        30.7390   11.6540  -35.6730 C.2   370  AMP370      0.4393
     19  N6        31.5370   12.6580  -36.1950 N.pl3 370  AMP370      0.2180
     20  N1        30.9170   10.3660  -36.0480 N.2   370  AMP370      0.0021
     21  C2        30.1550    9.3790  -35.5550 C.3   370  AMP370      0.5254
     22  N3        29.1840    9.6240  -34.6700 N.2   370  AMP370     -0.0055
     23  C4        28.9330   10.8790  -34.2360 C.2   370  AMP370      0.3518
@<TRIPOS>BOND
     1    19    18    1
     2    20    18    2
     3    20    21    1
     4    18    17    1
     5    21    22    1
     6    17    23    1
     7    17    16    2
     8    22    23    2
     9    23    14    1
    10    16    15    1
    11    14    15    1
    12    14    13    1
    13    13     8    1
    14    13    11    1
    15     8     7    1
    16     4     1    2
    17    11    12    1
    18    11     9    1
    19     3     1    1
    20     5     1    1
    21     5     6    1
    22     7     6    1
    23     7     9    1
    24     1     2    1
    25     9    10    1
