@<TRIPOS>MOLECULE
3aw9_GDU_A_1.pdb
 36 38 0 0 0
SMALL
GASTEIGER

@<TRIPOS>ATOM
      1  N1       -28.6460   24.7080   -9.4370 N.am  801  GDU801     -0.1766
      2  C2       -29.0010   26.0590   -9.3740 C.1   801  GDU801      0.2845
      3  N3       -30.2730   26.4900   -9.7990 N.2   801  GDU801     -0.2452
      4  C4       -31.2030   25.5440  -10.2850 C.1   801  GDU801      0.2182
      5  C5       -30.8660   24.1810  -10.3430 C.2   801  GDU801      0.1242
      6  C6       -29.5980   23.7590   -9.9270 C.2   801  GDU801      0.0929
      7  O2       -28.1800   26.8680   -8.9550 O.2   801  GDU801     -0.1918
      8  O4       -32.3150   25.9370  -10.6480 O.2   801  GDU801     -0.2085
      9  C1D      -27.2780   24.3380   -8.9400 C.3   801  GDU801      0.2401
     10  C2D      -27.3570   23.1920   -7.9040 C.3   801  GDU801      0.2319
     11  O2D      -27.0530   23.6950   -6.6020 O.3   801  GDU801     -0.2157
     12  C3D      -26.3200   22.1540   -8.3470 C.3   801  GDU801      0.2158
     13  C4D      -25.9300   22.5670   -9.7660 C.3   801  GDU801      0.1799
     14  O4D      -26.3430   23.9440   -9.9760 O.3   801  GDU801     -0.3320
     15  O3D      -25.1600   22.1780   -7.5170 O.3   801  GDU801     -0.2175
     16  C5D      -26.6620   21.6530  -10.7290 C.3   801  GDU801      0.1813
     17  O5D      -25.9330   20.4320  -10.7980 O.3   801  GDU801     -0.3112
     18  PA       -26.4730   19.1810  -11.6480 P.3   801  GDU801      0.2189
     19  O1A      -25.7990   17.9900  -11.1170 O.3   801  GDU801     -0.4371
     20  O2A      -26.3700   19.5050  -13.0840 O.2   801  GDU801     -0.5170
     21  O3A      -28.0720   19.2110  -11.3270 O.3   801  GDU801     -0.2703
     22  PB       -28.6790   18.3950  -10.1080 P.3   801  GDU801      0.2208
     23  O1B      -30.1060   18.7590  -10.0730 O.2   801  GDU801     -0.5170
     24  O2B      -27.8250   18.6340   -8.9300 O.3   801  GDU801     -0.4371
     25  O3B      -28.4840   16.8510  -10.6580 O.3   801  GDU801     -0.2857
     26  C1'      -28.3590   15.6270   -9.8720 C.3   801  GDU801      0.2742
     27  C2'      -27.0760   14.7720  -10.1260 C.3   801  GDU801      0.2409
     28  C3'      -27.1000   13.9060  -11.4100 C.3   801  GDU801      0.2198
     29  C4'      -28.4840   13.3430  -11.7660 C.3   801  GDU801      0.2144
     30  C5'      -29.5720   14.3960  -11.5350 C.3   801  GDU801      0.1835
     31  C6'      -30.9610   13.9090  -11.9490 C.3   801  GDU801      0.2142
     32  O2'      -25.9130   15.5970  -10.1890 O.3   801  GDU801     -0.2149
     33  O3'      -26.1730   12.8220  -11.2680 O.3   801  GDU801     -0.2174
     34  O4'      -28.7420   12.1520  -11.0080 O.3   801  GDU801     -0.2176
     35  O5'      -29.5300   14.8080  -10.1390 O.3   801  GDU801     -0.3254
     36  O6'      -31.8920   14.9800  -11.7750 O.3   801  GDU801     -0.2176
@<TRIPOS>BOND
     1    20    18    2
     2    31    36    1
     3    31    30    1
     4    29    30    1
     5    29    28    1
     6    29    34    1
     7    18    21    1
     8    18    19    1
     9    18    17    1
    10    30    35    1
    11    28    33    1
    12    28    27    1
    13    21    22    1
    14    17    16    1
    15    16    13    1
    16    25    22    1
    17    25    26    1
    18     8     4    2
    19     5     4    1
    20     5     6    2
    21     4     3    2
    22    32    27    1
    23    35    26    1
    24    27    26    1
    25    22    23    2
    26    22    24    1
    27    14    13    1
    28    14     9    1
    29     6     1    1
    30     3     2    2
    31    13    12    1
    32     1     2   am
    33     1     9    1
    34     2     7    2
    35     9    10    1
    36    12    10    1
    37    12    15    1
    38    10    11    1
