@<TRIPOS>MOLECULE
3aw9_NAD_A_1.pdb
 44 48 0 0 0
SMALL
GASTEIGER

@<TRIPOS>ATOM
      1  PA       -37.0920   11.4380  -17.0700 P.3   901  NAD901      0.2189
      2  O1A      -37.0380   12.1210  -18.3970 O.2   901  NAD901     -0.5170
      3  O2A      -38.0380   11.9240  -16.0540 O.3   901  NAD901     -0.4371
      4  O5B      -37.4130    9.8680  -17.3480 O.3   901  NAD901     -0.3112
      5  C5B      -38.0430    9.0130  -16.4220 C.3   901  NAD901      0.1813
      6  C4B      -39.2840    8.3670  -17.0100 C.3   901  NAD901      0.1821
      7  O4B      -39.7920    7.4760  -15.9520 O.3   901  NAD901     -0.3135
      8  C3B      -40.3690    9.4180  -17.2400 C.3   901  NAD901      0.2184
      9  O3B      -40.8520    9.3300  -18.5990 O.3   901  NAD901     -0.2174
     10  C2B      -41.4380    9.0340  -16.1990 C.3   901  NAD901      0.2570
     11  O2B      -42.7580    9.1880  -16.6910 O.3   901  NAD901     -0.2130
     12  C1B      -41.2050    7.5520  -15.9720 C.3   901  NAD901      0.3186
     13  N9A      -41.7900    7.0680  -14.6530 N.pl3 901  NAD901     -0.1439
     14  C8A      -41.6500    7.6670  -13.4530 C.3   901  NAD901      0.3377
     15  N7A      -42.2960    6.9820  -12.5150 N.2   901  NAD901     -0.2095
     16  C5A      -42.8340    5.9180  -13.1040 C.2   901  NAD901      0.2526
     17  C6A      -43.5970    4.8510  -12.6450 C.2   901  NAD901      0.4393
     18  N6A      -43.9300    4.7590  -11.3630 N.pl3 901  NAD901      0.2180
     19  N1A      -44.0150    3.9210  -13.5190 N.2   901  NAD901      0.0021
     20  C2A      -43.6970    4.0130  -14.8010 C.3   901  NAD901      0.5254
     21  N3A      -42.9700    5.0150  -15.2670 N.2   901  NAD901     -0.0055
     22  C4A      -42.5200    5.9730  -14.4560 C.2   901  NAD901      0.3518
     23  O3       -35.6290   11.3650  -16.3910 O.3   901  NAD901     -0.2703
     24  PN       -34.2650   11.0340  -17.1100 P.3   901  NAD901      0.2189
     25  O1N      -33.3910   12.2170  -16.9650 O.3   901  NAD901     -0.4371
     26  O2N      -34.5540   10.4570  -18.4250 O.2   901  NAD901     -0.5170
     27  O5D      -33.5630    9.8880  -16.2470 O.3   901  NAD901     -0.3112
     28  C5D      -34.0700    8.5160  -16.3060 C.3   901  NAD901      0.1813
     29  C4D      -33.2310    7.5620  -15.4510 C.3   901  NAD901      0.1799
     30  O4D      -31.8370    7.9770  -15.5250 O.3   901  NAD901     -0.3327
     31  C3D      -33.6720    7.7260  -13.9850 C.3   901  NAD901      0.2158
     32  O3D      -33.4670    6.5010  -13.2530 O.3   901  NAD901     -0.2175
     33  C2D      -32.7030    8.7840  -13.5120 C.3   901  NAD901      0.2309
     34  O2D      -32.6790    8.8210  -12.0720 O.3   901  NAD901     -0.2158
     35  C1D      -31.4100    8.2300  -14.1650 C.3   901  NAD901      0.2263
     36  N1N      -30.3300    9.2310  -14.2480 N.pl3 901  NAD901     -0.2787
     37  C2N      -30.4350   10.3310  -15.1310 C.3   901  NAD901      0.1244
     38  C3N      -29.4130   11.2700  -15.1900 C.2   901  NAD901      0.0544
     39  C7N      -29.5000   12.4790  -16.1150 C.2   901  NAD901      0.2818
     40  O7N      -28.5970   13.3070  -16.1000 O.2   901  NAD901     -0.2670
     41  N7N      -30.6010   12.5760  -16.8620 N.am  901  NAD901     -0.0839
     42  C4N      -28.3050   11.1510  -14.3560 C.2   901  NAD901      0.0033
     43  C5N      -28.2090   10.0750  -13.4700 C.2   901  NAD901      0.0157
     44  C6N      -29.2200    9.1120  -13.4220 C.2   901  NAD901      0.0633
@<TRIPOS>BOND
     1     9     8    1
     2    26    24    2
     3     2     1    2
     4     4     1    1
     5     4     5    1
     6     8     6    1
     7     8    10    1
     8    24    25    1
     9    24    23    1
    10    24    27    1
    11     1    23    1
    12     1     3    1
    13     6     5    1
    14     6     7    1
    15    41    39   am
    16    11    10    1
    17    28    27    1
    18    28    29    1
    19    10    12    1
    20    39    40    2
    21    39    38    1
    22    12     7    1
    23    12    13    1
    24    30    29    1
    25    30    35    1
    26    29    31    1
    27    21    20    1
    28    21    22    2
    29    38    37    1
    30    38    42    2
    31    37    36    1
    32    20    19    1
    33    13    22    1
    34    13    14    1
    35    22    16    1
    36    42    43    1
    37    36    35    1
    38    36    44    1
    39    35    33    1
    40    31    33    1
    41    31    32    1
    42    19    17    2
    43    33    34    1
    44    43    44    2
    45    14    15    1
    46    16    17    1
    47    16    15    2
    48    17    18    1
