@<TRIPOS>MOLECULE
3awh_FMN_A_1.pdb
 31 33 0 0 0
SMALL
GASTEIGER

@<TRIPOS>ATOM
      1  N1        -6.5170   -0.9210  -20.1840 N.2   123  FMN123     -0.2887
      2  C2        -5.7710   -1.0950  -19.0280 C.1   123  FMN123      0.3669
      3  O2        -5.9590   -2.0710  -18.3120 O.2   123  FMN123     -0.1744
      4  N3        -4.7970   -0.1690  -18.6660 N.2   123  FMN123     -0.2300
      5  C4        -4.5530    0.9520  -19.4470 C.1   123  FMN123      0.2513
      6  O4        -3.6820    1.7400  -19.0810 O.2   123  FMN123     -0.2057
      7  C4A       -5.3030    1.1400  -20.6060 C.2   123  FMN123      0.2703
      8  N5        -5.0830    2.2600  -21.4060 N.2   123  FMN123     -0.3882
      9  C5A       -5.6690    2.3270  -22.6730 C.2   123  FMN123      0.1277
     10  C6        -5.2640    3.3400  -23.5410 C.3   123  FMN123      0.0820
     11  C7        -5.8400    3.4250  -24.8060 C.2   123  FMN123     -0.0408
     12  C7M       -5.4010    4.5150  -25.7780 C.3   123  FMN123      0.0265
     13  C8        -6.8150    2.5080  -25.2010 C.2   123  FMN123     -0.0280
     14  C8M       -7.4570    2.6010  -26.5910 C.3   123  FMN123      0.0304
     15  C9        -7.2240    1.5060  -24.3300 C.2   123  FMN123      0.0123
     16  C9A       -6.6550    1.4150  -23.0570 C.2   123  FMN123      0.0793
     17  N10       -7.0260    0.3830  -22.1670 N.pl3 123  FMN123     -0.2545
     18  C10       -6.2850    0.2150  -20.9770 C.2   123  FMN123      0.2449
     19  C1'       -7.9580   -0.6880  -22.5740 C.3   123  FMN123      0.1336
     20  C2'       -7.1550   -1.9180  -23.0530 C.3   123  FMN123      0.2048
     21  O2'       -6.5420   -1.6230  -24.3300 O.3   123  FMN123     -0.2185
     22  C3'       -8.0240   -3.1760  -23.1890 C.3   123  FMN123      0.2165
     23  O3'       -9.0500   -2.9280  -24.1650 O.3   123  FMN123     -0.2175
     24  C4'       -8.6610   -3.6460  -21.8540 C.3   123  FMN123      0.2147
     25  O4'       -7.7310   -3.5520  -20.7730 O.3   123  FMN123     -0.2176
     26  C5'       -9.1850   -5.0800  -21.9540 C.3   123  FMN123      0.1892
     27  O5'       -8.0790   -5.9550  -22.1420 O.3   123  FMN123     -0.2674
     28  P         -8.2570   -7.4950  -22.5740 P.3   123  FMN123      0.5327
     29  O1P       -8.9010   -7.4640  -24.0130 O.2   123  FMN123     -0.2224
     30  O2P       -9.3730   -8.0820  -21.5820 O.3   123  FMN123     -0.1145
     31  O3P       -6.9320   -8.1690  -22.5080 O.3   123  FMN123     -0.1145
@<TRIPOS>BOND
     1    14    13    1
     2    12    11    1
     3    13    11    2
     4    13    15    1
     5    11    10    1
     6    21    20    1
     7    15    16    2
     8    23    22    1
     9    29    28    2
    10    10     9    1
    11    22    20    1
    12    22    24    1
    13    16     9    1
    14    16    17    1
    15    20    19    1
    16     9     8    2
    17    28    31    1
    18    28    27    1
    19    28    30    1
    20    19    17    1
    21    17    18    1
    22    27    26    1
    23    26    24    1
    24    24    25    1
    25     8     7    2
    26    18     7    1
    27    18     1    2
    28     7     5    1
    29     1     2    2
    30     5     6    2
    31     5     4    2
    32     2     4    2
    33     2     3    2
