@<TRIPOS>MOLECULE
3awj_COA_A_1.pdb
 48 50 0 0 0
SMALL
GASTEIGER

@<TRIPOS>ATOM
      1  N1A       -0.1940   59.3050   49.2170 N.2   500  COA500      0.0021
      2  C2A        0.9250   59.6530   49.8270 C.3   500  COA500      0.5254
      3  N3A        0.9640   59.8810   51.1280 N.2   500  COA500     -0.0055
      4  C4A       -0.1450   59.7660   51.8730 C.2   500  COA500      0.3518
      5  C5A       -1.3390   59.4050   51.2670 C.2   500  COA500      0.2526
      6  C6A       -1.3410   59.1710   49.8980 C.2   500  COA500      0.4393
      7  N6A       -2.4620   58.8200   49.2740 N.pl3 500  COA500      0.2180
      8  N7A       -2.2700   59.3600   52.2150 N.2   500  COA500     -0.2095
      9  C8A       -1.6910   59.6790   53.3700 C.3   500  COA500      0.3377
     10  N9A       -0.3990   59.9270   53.1670 N.pl3 500  COA500     -0.1439
     11  C1B        0.5830   60.3190   54.2030 C.3   500  COA500      0.3185
     12  C2B        0.2650   61.6940   54.7920 C.3   500  COA500      0.2543
     13  O2B        0.8260   62.7180   53.9660 O.3   500  COA500     -0.2131
     14  C3B        1.0100   61.5750   56.1180 C.3   500  COA500      0.1928
     15  O3B        2.4210   61.6010   55.8860 O.3   500  COA500     -0.2673
     16  P3B        3.4030   62.3150   56.9450 P.3   500  COA500      0.5327
     17  O7A        2.4970   63.3870   57.7350 O.3   500  COA500     -0.1145
     18  O8A        4.4700   63.1570   56.0820 O.2   500  COA500     -0.2224
     19  O9A        4.0510   61.3470   57.8570 O.3   500  COA500     -0.1145
     20  C4B        0.5290   60.1820   56.5220 C.3   500  COA500      0.1795
     21  O4B        0.6230   59.4040   55.3140 O.3   500  COA500     -0.3136
     22  C5B       -0.9560   60.2660   56.8820 C.3   500  COA500      0.1812
     23  O5B       -1.1430   61.0910   58.0330 O.3   500  COA500     -0.3112
     24  P1A       -2.5940   61.7090   58.3530 P.3   500  COA500      0.2189
     25  O1A       -2.3960   62.8250   59.3060 O.3   500  COA500     -0.4371
     26  O2A       -3.2710   61.9950   57.0690 O.2   500  COA500     -0.5170
     27  O3A       -3.3320   60.4950   59.1120 O.3   500  COA500     -0.2703
     28  P2A       -4.6010   59.7480   58.4600 P.3   500  COA500      0.2188
     29  O4A       -5.6530   59.6840   59.4990 O.3   500  COA500     -0.4371
     30  O5A       -4.9280   60.4010   57.1730 O.2   500  COA500     -0.5170
     31  O6A       -4.0410   58.2610   58.1890 O.3   500  COA500     -0.3138
     32  CBP       -4.3790   57.1050   56.0460 C.3   500  COA500      0.0645
     33  CCP       -3.4340   57.9120   56.9410 C.3   500  COA500      0.1519
     34  CDP       -4.7990   55.8280   56.7760 C.3   500  COA500      0.0056
     35  CEP       -3.6520   56.7290   54.7540 C.3   500  COA500      0.0056
     36  CAP       -5.6190   57.9390   55.7160 C.3   500  COA500      0.2312
     37  OAP       -5.2160   59.1740   55.1180 O.3   500  COA500     -0.2131
     38  C9P       -6.5290   57.1940   54.7360 C.2   500  COA500      0.2719
     39  O9P       -7.2800   56.2970   55.1140 O.2   500  COA500     -0.2706
     40  N8P       -6.4510   57.6230   53.4800 N.am  500  COA500     -0.2028
     41  C7P       -7.2460   57.0430   52.3880 C.3   500  COA500      0.1248
     42  C6P       -6.5010   55.8420   51.8030 C.3   500  COA500      0.1102
     43  C5P       -7.1470   55.3810   50.4950 C.2   500  COA500      0.2432
     44  O5P       -7.2900   56.1600   49.5550 O.2   500  COA500     -0.2733
     45  N4P       -7.5310   54.1080   50.4690 N.am  500  COA500     -0.2044
     46  C3P       -8.1540   53.5160   49.2780 C.3   500  COA500      0.1276
     47  C2P       -7.0710   52.7990   48.4690 C.3   500  COA500      0.0920
     48  S1P       -7.6900   52.0920   46.8990 S.3   500  COA500     -0.0802
@<TRIPOS>BOND
     1    48    47    1
     2    47    46    1
     3     1     2    1
     4     1     6    2
     5     7     6    1
     6    46    45    1
     7    44    43    2
     8     2     3    1
     9     6     5    1
    10    45    43   am
    11    43    42    1
    12     3     4    2
    13     5     4    1
    14     5     8    2
    15    42    41    1
    16     4    10    1
    17     8     9    1
    18    41    40    1
    19    10     9    1
    20    10    11    1
    21    40    38   am
    22    13    12    1
    23    11    12    1
    24    11    21    1
    25    38    39    2
    26    38    36    1
    27    35    32    1
    28    12    14    1
    29    37    36    1
    30    21    20    1
    31    36    32    1
    32    15    14    1
    33    15    16    1
    34    32    34    1
    35    32    33    1
    36    18    16    2
    37    14    20    1
    38    20    22    1
    39    22    23    1
    40    33    31    1
    41    16    17    1
    42    16    19    1
    43    26    24    2
    44    30    28    2
    45    23    24    1
    46    31    28    1
    47    24    27    1
    48    24    25    1
    49    28    27    1
    50    28    29    1
