@<TRIPOS>MOLECULE
3awm_PLM_A_1.pdb
 18 17 0 0 0
SMALL
GASTEIGER

@<TRIPOS>ATOM
      1  C1        42.7000    3.2350   17.2050 C.2   601  PLM601      0.3649
      2  O1        42.7030    3.5580   18.4240 O.co2 601  PLM601     -0.2457
      3  O2        43.7100    2.9630   16.5190 O.co2 601  PLM601     -0.2457
      4  C2        41.3470    2.9090   16.5940 C.3   601  PLM601      0.1141
      5  C3        41.4490    2.7760   15.0800 C.3   601  PLM601      0.0118
      6  C4        40.0680    2.8370   14.4310 C.3   601  PLM601      0.0006
      7  C5        39.4980    1.4360   14.2290 C.3   601  PLM601      0.0000
      8  C6        37.9660    1.4650   14.2110 C.3   601  PLM601      0.0000
      9  C7        37.3910    0.0480   14.2550 C.3   601  PLM601      0.0000
     10  C8        37.6010   -0.5870   15.6310 C.3   601  PLM601      0.0000
     11  C9        36.3080   -1.1980   16.1540 C.3   601  PLM601      0.0000
     12  CA        36.5950   -2.3660   17.0930 C.3   601  PLM601      0.0000
     13  CB        35.4680   -3.3980   17.0430 C.3   601  PLM601      0.0000
     14  CC        35.9090   -4.7220   17.6750 C.3   601  PLM601      0.0000
     15  CD        34.7500   -5.7260   17.7120 C.3   601  PLM601      0.0000
     16  CE        35.1330   -6.9800   18.5120 C.3   601  PLM601      0.0000
     17  CF        34.0820   -8.0850   18.3390 C.3   601  PLM601      0.0000
     18  CG        34.7400   -9.4120   17.9450 C.3   601  PLM601      0.0000
@<TRIPOS>BOND
     1     8     7    1
     2     8     9    1
     3     7     6    1
     4     9    10    1
     5     6     5    1
     6     5     4    1
     7    10    11    1
     8    11    12    1
     9     3     1   ar
    10     4     1    1
    11    13    12    1
    12    13    14    1
    13     1     2   ar
    14    14    15    1
    15    15    16    1
    16    18    17    1
    17    17    16    1
