@<TRIPOS>MOLECULE
3awm_HEM_A_1.pdb
 43 50 0 0 0
SMALL
GASTEIGER

@<TRIPOS>ATOM
      1  CHA       41.0870    8.3830   21.6060 C.2   501  HEM501      0.0000
      2  CHB       39.4630    8.4240   17.0120 C.2   501  HEM501      0.0000
      3  CHC       44.0130    8.8630   15.4570 C.2   501  HEM501      0.0000
      4  CHD       45.6670    8.6700   19.9570 C.2   501  HEM501      0.0000
      5  C1A       40.2670    8.3990   20.4900 C.ar  501  HEM501      0.0000
      6  C2A       38.8260    8.3210   20.5310 C.ar  501  HEM501      0.0000
      7  C3A       38.3750    8.3560   19.2610 C.ar  501  HEM501      0.0000
      8  C4A       39.5230    8.4310   18.3860 C.ar  501  HEM501      0.0000
      9  CMA       36.9090    8.2890   18.8040 C.3   501  HEM501      0.0000
     10  CAA       38.0100    8.1290   21.8100 C.3   501  HEM501      0.0000
     11  CBA       37.2700    9.3410   22.3590 C.3   501  HEM501      0.0000
     12  CGA       36.6220    8.9790   23.6810 C.2   501  HEM501      0.0000
     13  O1A       35.7710    9.7890   24.1320 O.co2 501  HEM501      0.0000
     14  O2A       36.9540    7.9300   24.3080 O.co2 501  HEM501      0.0000
     15  C1B       40.5690    8.4000   16.1950 C.2   501  HEM501      0.0000
     16  C2B       40.5430    8.2200   14.7780 C.2   501  HEM501      0.0000
     17  C3B       41.8120    8.3170   14.3440 C.2   501  HEM501      0.0000
     18  C4B       42.6700    8.5860   15.4960 C.2   501  HEM501      0.0000
     19  CMB       39.2740    7.9350   13.9420 C.3   501  HEM501      0.0000
     20  CAB       42.2450    8.1520   12.8870 C.2   501  HEM501      0.0000
     21  CBB       43.3730    7.5290   12.5110 C.2   501  HEM501      0.0000
     22  C1C       44.8660    9.0090   16.5210 C.ar  501  HEM501      0.0000
     23  C2C       46.2790    9.2990   16.4870 C.ar  501  HEM501      0.0000
     24  C3C       46.7670    9.2450   17.7410 C.ar  501  HEM501      0.0000
     25  C4C       45.6410    8.9060   18.5990 C.ar  501  HEM501      0.0000
     26  CMC       47.0520    9.6120   15.1980 C.3   501  HEM501      0.0000
     27  CAC       48.2530    9.5070   18.1310 C.2   501  HEM501      0.0000
     28  CBC       48.6240    9.8710   19.3550 C.2   501  HEM501      0.0000
     29  C1D       44.5980    8.4780   20.7800 C.2   501  HEM501      0.0000
     30  C2D       44.7030    8.2260   22.2140 C.2   501  HEM501      0.0000
     31  C3D       43.3010    8.1700   22.7090 C.2   501  HEM501      0.0000
     32  C4D       42.4620    8.3660   21.5490 C.2   501  HEM501      0.0000
     33  CMD       45.9710    8.0630   23.0730 C.3   501  HEM501      0.0000
     34  CAD       42.8230    7.9430   24.1540 C.3   501  HEM501      0.0000
     35  CBD       42.6330    9.3540   24.7900 C.3   501  HEM501      0.0000
     36  CGD       41.9760    9.2490   26.1550 C.2   501  HEM501      0.0000
     37  O1D       42.0330   10.2290   26.9500 O.co2 501  HEM501      0.0000
     38  O2D       41.3840    8.1710   26.4650 O.co2 501  HEM501      0.0000
     39  NA        40.6830    8.4710   19.1530 N.ar  501  HEM501      0.0000
     40  NB        41.8750    8.6260   16.6170 N.2   501  HEM501      0.0000
     41  NC        44.5080    8.8100   17.8130 N.ar  501  HEM501      0.0000
     42  ND        43.2530    8.5530   20.4140 N.2   501  HEM501      0.0000
     43 FE         42.5510    8.7000   18.5200 Fe    501  HEM501      0.0000
@<TRIPOS>BOND
     1    21    20    2
     2    20    17    1
     3    19    16    1
     4    17    16    2
     5    17    18    1
     6    16    15    1
     7    26    23    1
     8     3    18    2
     9     3    22    1
    10    18    40    1
    11    15    40    2
    12    15     2    1
    13    23    22   ar
    14    23    24   ar
    15    22    41   ar
    16    40    43    1
    17     2     8    2
    18    24    27    1
    19    24    25   ar
    20    41    43    1
    21    41    25   ar
    22    27    28    2
    23     8    39   ar
    24     8     7   ar
    25    43    39    1
    26    43    42    1
    27    25     4    1
    28     9     7    1
    29    39     5   ar
    30     7     6   ar
    31     4    29    2
    32    42    29    1
    33    42    32    2
    34     5     6   ar
    35     5     1    2
    36     6    10    1
    37    29    30    1
    38    32     1    1
    39    32    31    1
    40    10    11    1
    41    30    31    2
    42    30    33    1
    43    11    12    1
    44    31    34    1
    45    12    13   ar
    46    12    14   ar
    47    34    35    1
    48    35    36    1
    49    36    38   ar
    50    36    37   ar
