@<TRIPOS>MOLECULE
3awn_PLP_A_1.pdb
 15 15 0 0 0
SMALL
GASTEIGER

@<TRIPOS>ATOM
      1  N1        -5.6490   72.0860   18.4470 N.ar  401  PLP401     -0.2452
      2  C2        -6.2120   70.8110   18.4370 C.ar  401  PLP401      0.0978
      3  C2A       -7.7050   70.6660   18.4170 C.3   401  PLP401      0.0555
      4  C3        -5.3800   69.6720   18.4570 C.ar  401  PLP401      0.2049
      5  O3        -5.9160   68.4070   18.4500 O.3   401  PLP401     -0.2857
      6  C4        -3.9870   69.8120   18.4920 C.ar  401  PLP401      0.0182
      7  C4A       -3.0840   68.6150   18.5120 C.3   401  PLP401      0.0342
      8  C5        -3.4180   71.0800   18.4880 C.ar  401  PLP401      0.0261
      9  C6        -4.2600   72.2070   18.4770 C.ar  401  PLP401      0.0965
     10  C5A       -1.9080   71.2030   18.5180 C.3   401  PLP401      0.1815
     11  O4P       -1.3870   71.3840   17.2210 O.3   401  PLP401     -0.2653
     12  P          0.0140   70.7160   16.7150 P.3   401  PLP401      0.5329
     13  O1P        1.2200   71.2620   17.4550 O.3   401  PLP401     -0.1145
     14  O2P        0.1980   71.0180   15.2420 O.2   401  PLP401     -0.2224
     15  O3P       -0.1150   69.2440   16.9910 O.3   401  PLP401     -0.1145
@<TRIPOS>BOND
     1    14    12    2
     2    12    15    1
     3    12    11    1
     4    12    13    1
     5    11    10    1
     6     3     2    1
     7     2     1   ar
     8     2     4   ar
     9     1     9   ar
    10     5     4    1
    11     4     6   ar
    12     9     8   ar
    13     8     6   ar
    14     8    10    1
    15     6     7    1
