@<TRIPOS>MOLECULE
3awo_PLP_A_1.pdb
 15 15 0 0 0
SMALL
GASTEIGER

@<TRIPOS>ATOM
      1  N1        -5.6920   72.0350   18.2900 N.ar  401  PLP401     -0.2452
      2  C2        -6.1950   70.7530   18.3010 C.ar  401  PLP401      0.0978
      3  C2A       -7.6780   70.5550   18.2910 C.3   401  PLP401      0.0555
      4  C3        -5.3230   69.6610   18.3140 C.ar  401  PLP401      0.2049
      5  O3        -5.8080   68.3750   18.3190 O.3   401  PLP401     -0.2857
      6  C4        -3.9470   69.8920   18.3160 C.ar  401  PLP401      0.0182
      7  C4A       -2.9710   68.7680   18.3290 C.3   401  PLP401      0.0342
      8  C5        -3.4370   71.1830   18.3080 C.ar  401  PLP401      0.0261
      9  C6        -4.3230   72.2560   18.3010 C.ar  401  PLP401      0.0965
     10  C5A       -1.9330   71.3880   18.3150 C.3   401  PLP401      0.1815
     11  O4P       -1.4020   71.2420   17.0130 O.3   401  PLP401     -0.2653
     12  P         -0.0120   70.4570   16.7350 P.3   401  PLP401      0.5329
     13  O1P        1.1150   71.1910   17.4250 O.3   401  PLP401     -0.1145
     14  O2P        0.2420   70.4380   15.2560 O.2   401  PLP401     -0.2224
     15  O3P       -0.0820   69.0570   17.2880 O.3   401  PLP401     -0.1145
@<TRIPOS>BOND
     1    14    12    2
     2    12    11    1
     3    12    15    1
     4    12    13    1
     5    11    10    1
     6     1     2   ar
     7     1     9   ar
     8     3     2    1
     9     2     4   ar
    10     9     8   ar
    11     8    10    1
    12     8     6   ar
    13     4     6   ar
    14     4     5    1
    15     6     7    1
