@<TRIPOS>MOLECULE
3awp_HEM_A_1.pdb
 43 50 0 0 0
SMALL
GASTEIGER

@<TRIPOS>ATOM
      1  CHA       41.0620    8.3750   21.5830 C.2   501  HEM501      0.0000
      2  CHB       39.4350    8.2920   17.0330 C.2   501  HEM501      0.0000
      3  CHC       43.9870    8.8680   15.4560 C.2   501  HEM501      0.0000
      4  CHD       45.6480    8.5850   19.9740 C.2   501  HEM501      0.0000
      5  C1A       40.2450    8.3460   20.4910 C.ar  501  HEM501      0.0000
      6  C2A       38.8070    8.2320   20.5460 C.ar  501  HEM501      0.0000
      7  C3A       38.3500    8.2150   19.2850 C.ar  501  HEM501      0.0000
      8  C4A       39.4910    8.3120   18.4020 C.ar  501  HEM501      0.0000
      9  CMA       36.8770    8.0820   18.8380 C.3   501  HEM501      0.0000
     10  CAA       38.0010    8.0860   21.8410 C.3   501  HEM501      0.0000
     11  CBA       37.3580    9.3640   22.3740 C.3   501  HEM501      0.0000
     12  CGA       36.7180    9.0160   23.7120 C.2   501  HEM501      0.0000
     13  O1A       35.8740    9.8220   24.1760 O.co2 501  HEM501      0.0000
     14  O2A       37.0340    7.9530   24.3310 O.co2 501  HEM501      0.0000
     15  C1B       40.5460    8.3030   16.2090 C.2   501  HEM501      0.0000
     16  C2B       40.5410    8.1000   14.7840 C.2   501  HEM501      0.0000
     17  C3B       41.7950    8.2500   14.3340 C.2   501  HEM501      0.0000
     18  C4B       42.6460    8.5570   15.4810 C.2   501  HEM501      0.0000
     19  CMB       39.2970    7.7560   13.9410 C.3   501  HEM501      0.0000
     20  CAB       42.2430    8.0890   12.8730 C.2   501  HEM501      0.0000
     21  CBB       43.3680    7.4410   12.5060 C.2   501  HEM501      0.0000
     22  C1C       44.8270    8.9680   16.5370 C.ar  501  HEM501      0.0000
     23  C2C       46.2430    9.2620   16.5130 C.ar  501  HEM501      0.0000
     24  C3C       46.6980    9.1710   17.7810 C.ar  501  HEM501      0.0000
     25  C4C       45.5750    8.8120   18.6140 C.ar  501  HEM501      0.0000
     26  CMC       47.0300    9.5990   15.2250 C.3   501  HEM501      0.0000
     27  CAC       48.1110    9.3710   18.3810 C.2   501  HEM501      0.0000
     28  CBC       49.1300    9.8770   17.7030 C.2   501  HEM501      0.0000
     29  C1D       44.5740    8.4020   20.7990 C.2   501  HEM501      0.0000
     30  C2D       44.6750    8.1720   22.2170 C.2   501  HEM501      0.0000
     31  C3D       43.2560    8.1180   22.7130 C.2   501  HEM501      0.0000
     32  C4D       42.4300    8.3410   21.5480 C.2   501  HEM501      0.0000
     33  CMD       45.9670    7.9990   23.0500 C.3   501  HEM501      0.0000
     34  CAD       42.7880    7.9120   24.1670 C.3   501  HEM501      0.0000
     35  CBD       42.6540    9.3410   24.7780 C.3   501  HEM501      0.0000
     36  CGD       42.0300    9.2600   26.1610 C.2   501  HEM501      0.0000
     37  O1D       42.0600   10.2620   26.9480 O.co2 501  HEM501      0.0000
     38  O2D       41.4840    8.1710   26.4810 O.co2 501  HEM501      0.0000
     39  NA        40.6430    8.3930   19.1670 N.ar  501  HEM501      0.0000
     40  NB        41.8410    8.5710   16.6040 N.2   501  HEM501      0.0000
     41  NC        44.4420    8.7220   17.8380 N.ar  501  HEM501      0.0000
     42  ND        43.2420    8.5000   20.4320 N.2   501  HEM501      0.0000
     43 FE         42.5430    8.5910   18.5180 Fe    501  HEM501      0.0000
@<TRIPOS>BOND
     1    21    20    2
     2    20    17    1
     3    19    16    1
     4    17    16    2
     5    17    18    1
     6    16    15    1
     7    26    23    1
     8     3    18    2
     9     3    22    1
    10    18    40    1
    11    15    40    2
    12    15     2    1
    13    23    22   ar
    14    23    24   ar
    15    22    41   ar
    16    40    43    1
    17     2     8    2
    18    28    27    2
    19    24    27    1
    20    24    25   ar
    21    41    43    1
    22    41    25   ar
    23     8    39   ar
    24     8     7   ar
    25    43    39    1
    26    43    42    1
    27    25     4    1
    28     9     7    1
    29    39     5   ar
    30     7     6   ar
    31     4    29    2
    32    42    29    1
    33    42    32    2
    34     5     6   ar
    35     5     1    2
    36     6    10    1
    37    29    30    1
    38    32     1    1
    39    32    31    1
    40    10    11    1
    41    30    31    2
    42    30    33    1
    43    11    12    1
    44    31    34    1
    45    12    13   ar
    46    12    14   ar
    47    34    35    1
    48    35    36    1
    49    36    38   ar
    50    36    37   ar
