@<TRIPOS>MOLECULE
3awq_HEM_A_1.pdb
 43 50 0 0 0
SMALL
GASTEIGER

@<TRIPOS>ATOM
      1  CHA       40.8310    8.2610   21.5260 C.2   501  HEM501      0.0000
      2  CHB       39.2580    8.1990   16.9670 C.2   501  HEM501      0.0000
      3  CHC       43.8090    8.7860   15.3830 C.2   501  HEM501      0.0000
      4  CHD       45.4630    8.5450   19.9280 C.2   501  HEM501      0.0000
      5  C1A       40.0040    8.2420   20.4310 C.ar  501  HEM501      0.0000
      6  C2A       38.5580    8.1530   20.4730 C.ar  501  HEM501      0.0000
      7  C3A       38.1130    8.1500   19.2040 C.ar  501  HEM501      0.0000
      8  C4A       39.2780    8.2190   18.3350 C.ar  501  HEM501      0.0000
      9  CMA       36.6570    8.0410   18.7070 C.3   501  HEM501      0.0000
     10  CAA       37.7490    8.0030   21.7680 C.3   501  HEM501      0.0000
     11  CBA       37.0350    9.2590   22.2640 C.3   501  HEM501      0.0000
     12  CGA       36.3840    8.8490   23.5790 C.2   501  HEM501      0.0000
     13  O1A       35.5300    9.6360   24.0470 O.co2 501  HEM501      0.0000
     14  O2A       36.7130    7.7680   24.1780 O.co2 501  HEM501      0.0000
     15  C1B       40.3530    8.2280   16.1400 C.2   501  HEM501      0.0000
     16  C2B       40.3200    8.0580   14.7000 C.2   501  HEM501      0.0000
     17  C3B       41.5880    8.1990   14.2680 C.2   501  HEM501      0.0000
     18  C4B       42.4530    8.4840   15.4100 C.2   501  HEM501      0.0000
     19  CMB       39.0560    7.7560   13.8230 C.3   501  HEM501      0.0000
     20  CAB       42.0410    8.1120   12.7980 C.2   501  HEM501      0.0000
     21  CBB       43.0300    7.3280   12.4160 C.2   501  HEM501      0.0000
     22  C1C       44.6590    8.9060   16.4570 C.ar  501  HEM501      0.0000
     23  C2C       46.0830    9.2080   16.4260 C.ar  501  HEM501      0.0000
     24  C3C       46.5490    9.1460   17.6910 C.ar  501  HEM501      0.0000
     25  C4C       45.4390    8.7890   18.5610 C.ar  501  HEM501      0.0000
     26  CMC       46.9240    9.5690   15.1790 C.3   501  HEM501      0.0000
     27  CAC       48.0340    9.3960   18.0680 C.2   501  HEM501      0.0000
     28  CBC       48.3590    9.9020   19.2590 C.2   501  HEM501      0.0000
     29  C1D       44.3680    8.3380   20.7540 C.2   501  HEM501      0.0000
     30  C2D       44.4470    8.0720   22.1760 C.2   501  HEM501      0.0000
     31  C3D       43.0170    7.9840   22.6590 C.2   501  HEM501      0.0000
     32  C4D       42.2000    8.2170   21.4980 C.2   501  HEM501      0.0000
     33  CMD       45.7230    7.8720   23.0300 C.3   501  HEM501      0.0000
     34  CAD       42.5470    7.7340   24.0910 C.3   501  HEM501      0.0000
     35  CBD       42.4500    9.1720   24.7050 C.3   501  HEM501      0.0000
     36  CGD       41.7680    9.1240   26.0720 C.2   501  HEM501      0.0000
     37  O1D       41.8300   10.1240   26.8400 O.co2 501  HEM501      0.0000
     38  O2D       41.1390    8.0700   26.4060 O.co2 501  HEM501      0.0000
     39  NA        40.4090    8.2840   19.1180 N.ar  501  HEM501      0.0000
     40  NB        41.6620    8.4860   16.5350 N.2   501  HEM501      0.0000
     41  NC        44.3140    8.6930   17.7820 N.ar  501  HEM501      0.0000
     42  ND        43.0290    8.4490   20.3910 N.2   501  HEM501      0.0000
     43 FE         42.3470    8.5460   18.4550 Fe    501  HEM501      0.0000
@<TRIPOS>BOND
     1    21    20    2
     2    20    17    1
     3    19    16    1
     4    17    16    2
     5    17    18    1
     6    16    15    1
     7    26    23    1
     8     3    18    2
     9     3    22    1
    10    18    40    1
    11    15    40    2
    12    15     2    1
    13    23    22   ar
    14    23    24   ar
    15    22    41   ar
    16    40    43    1
    17     2     8    2
    18    24    27    1
    19    24    25   ar
    20    41    43    1
    21    41    25   ar
    22    27    28    2
    23     8    39   ar
    24     8     7   ar
    25    43    39    1
    26    43    42    1
    27    25     4    1
    28     9     7    1
    29    39     5   ar
    30     7     6   ar
    31     4    29    2
    32    42    29    1
    33    42    32    2
    34     5     6   ar
    35     5     1    2
    36     6    10    1
    37    29    30    1
    38    32     1    1
    39    32    31    1
    40    10    11    1
    41    30    31    2
    42    30    33    1
    43    11    12    1
    44    31    34    1
    45    12    13   ar
    46    12    14   ar
    47    34    35    1
    48    35    36    1
    49    36    38   ar
    50    36    37   ar
