@<TRIPOS>MOLECULE
3ax4_XMM_A_1.pdb
 23 25 0 0 0
SMALL
GASTEIGER

@<TRIPOS>ATOM
      1  O2        26.3290    9.8690   22.1580 O.3   242  XMM242     -0.2149
      2  C2        25.4810    9.9340   23.2990 C.3   242  XMM242      0.2406
      3  C3        24.4930   10.9590   23.2140 C.3   242  XMM242      0.2198
      4  O3        24.9650   12.1870   22.6680 O.3   242  XMM242     -0.2174
      5  C4        23.1490   10.5550   22.7770 C.3   242  XMM242      0.2144
      6  O4        22.1450   11.2980   23.4330 O.3   242  XMM242     -0.2176
      7  C5        22.8550    9.1470   22.8050 C.3   242  XMM242      0.1835
      8  O5        23.9410    8.2920   22.7750 O.3   242  XMM242     -0.3256
      9  C6        21.6920    8.6900   21.9110 C.3   242  XMM242      0.2142
     10  O6        22.0060    8.2290   20.6320 O.3   242  XMM242     -0.2176
     11  C1        24.9540    8.6760   23.6650 C.3   242  XMM242      0.2697
     12  O1        24.5350    8.5670   25.0260 O.3   242  XMM242     -0.3244
     13  C7        24.1320    7.2210   25.2760 C.3   242  XMM242      0.1662
     14  C8        24.9740    6.2950   25.7960 C.2   242  XMM242      0.0311
     15  C9        24.1290    5.1540   26.2300 C.2   242  XMM242      0.0573
     16  N1        22.7890    5.4970   26.0020 N.2   242  XMM242     -0.2716
     17  C11       22.7360    6.8410   25.6930 C.3   242  XMM242      0.1592
     18  C10       26.4500    6.2260   25.9350 C.2   242  XMM242      0.0630
     19 CL         27.5160    7.5910   25.4310 Cl    242  XMM242     -0.0820
     20  C13       27.0400    5.0760   26.4820 C.2   242  XMM242      0.0410
     21 BR         28.9820    5.0230   26.6450 Br    242  XMM242     -0.0485
     22  C14       26.1890    3.9290   26.9180 C.2   242  XMM242     -0.0123
     23  C12       24.7320    3.9940   26.7790 C.3   242  XMM242      0.0716
@<TRIPOS>BOND
     1    10     9    1
     2     9     7    1
     3     1     2    1
     4     4     3    1
     5     8     7    1
     6     8    11    1
     7     5     7    1
     8     5     3    1
     9     5     6    1
    10     3     2    1
    11     2    11    1
    12    11    12    1
    13    12    13    1
    14    13    17    1
    15    13    14    1
    16    19    18    1
    17    17    16    1
    18    14    18    2
    19    14    15    1
    20    18    20    1
    21    16    15    2
    22    15    23    1
    23    20    21    1
    24    20    22    2
    25    23    22    1
