@<TRIPOS>MOLECULE
3ax6_ADP_A_1.pdb
 27 29 0 0 0
SMALL
GASTEIGER

@<TRIPOS>ATOM
      1  PB        18.9200  -10.4990   26.1740 P.3   381  ADP381      0.5373
      2  O1B       19.6280   -9.1910   26.0820 O.3   381  ADP381     -0.1143
      3  O2B       19.2910  -11.1990   27.5880 O.3   381  ADP381     -0.1143
      4  O3B       17.2630  -10.2240   26.0710 O.2   381  ADP381     -0.2221
      5  PA        20.7900  -11.2550   24.2540 P.3   381  ADP381      0.2231
      6  O1A       20.6010  -11.2060   22.7840 O.2   381  ADP381     -0.5169
      7  O2A       21.4840   -9.8690   24.7320 O.3   381  ADP381     -0.4370
      8  O3A       19.3190  -11.5230   24.9490 O.3   381  ADP381     -0.2261
      9  O5'       21.7290  -12.5390   24.6030 O.3   381  ADP381     -0.3111
     10  C5'       22.4040  -12.2960   25.8480 C.3   381  ADP381      0.1813
     11  C4'       23.8620  -12.7630   25.7700 C.3   381  ADP381      0.1821
     12  O4'       23.9710  -14.0170   25.0210 O.3   381  ADP381     -0.3135
     13  C3'       24.7450  -11.7360   25.0400 C.3   381  ADP381      0.2184
     14  O3'       25.2360  -10.7160   25.9230 O.3   381  ADP381     -0.2174
     15  C2'       25.8440  -12.6070   24.4360 C.3   381  ADP381      0.2570
     16  O2'       26.9370  -12.7660   25.3430 O.3   381  ADP381     -0.2130
     17  C1'       25.1260  -13.9360   24.1300 C.3   381  ADP381      0.3186
     18  N9        24.7340  -14.0300   22.7080 N.pl3 381  ADP381     -0.1439
     19  C8        23.6520  -13.4400   22.1000 C.3   381  ADP381      0.3377
     20  N7        23.6230  -13.7350   20.8350 N.2   381  ADP381     -0.2095
     21  C5        24.6720  -14.5310   20.5380 C.2   381  ADP381      0.2526
     22  C6        25.1600  -15.1570   19.3580 C.2   381  ADP381      0.4393
     23  N6        24.5010  -14.9970   18.1610 N.pl3 381  ADP381      0.2180
     24  N1        26.2790  -15.9110   19.4310 N.2   381  ADP381      0.0021
     25  C2        26.9360  -16.0790   20.5830 C.3   381  ADP381      0.5254
     26  N3        26.5130  -15.5070   21.7140 N.2   381  ADP381     -0.0055
     27  C4        25.4020  -14.7350   21.7370 C.2   381  ADP381      0.3518
@<TRIPOS>BOND
     1    23    22    1
     2    22    24    2
     3    22    21    1
     4    24    25    1
     5    21    20    2
     6    21    27    1
     7    25    26    1
     8    20    19    1
     9    26    27    2
    10    27    18    1
    11    19    18    1
    12    18    17    1
    13     6     5    2
    14    17    15    1
    15    17    12    1
    16     5     9    1
    17     5     7    1
    18     5     8    1
    19    15    13    1
    20    15    16    1
    21     9    10    1
    22     8     1    1
    23    12    11    1
    24    13    11    1
    25    13    14    1
    26    11    10    1
    27     4     1    2
    28     2     1    1
    29     1     3    1
