@<TRIPOS>MOLECULE
3ax7_XAX_A_1.pdb
 28 31 0 0 0
SMALL
GASTEIGER

@<TRIPOS>ATOM
      1  P          5.5560  -10.8930   15.1470 P.3   3003  XAX3003     0.0000
      2 MO         10.2070  -13.1600   20.5120 Mo    3003  XAX3003     0.0000
      3  N1         9.0360   -4.8380   17.6020 N.2   3003  XAX3003     0.0000
      4  O1        10.5290  -15.0210   19.6940 O.3   3003  XAX3003     0.0000
      5  C2         8.7080   -3.9570   18.5800 C.1   3003  XAX3003     0.0000
      6  N2         8.5660   -2.6420   18.3000 N.pl3 3003  XAX3003     0.0000
      7  O2         8.7370  -13.1440   21.9190 O.3   3003  XAX3003     0.0000
      8  N3         8.5410   -4.3450   19.8760 N.2   3003  XAX3003     0.0000
      9  S3        12.2770  -13.7070   21.2950 S.3   3003  XAX3003     0.0000
     10  C4         8.7200   -5.6240   20.2910 C.1   3003  XAX3003     0.0000
     11  O4         8.5200   -5.9220   21.5970 O.2   3003  XAX3003     0.0000
     12  N5         9.5670   -7.9980   19.6310 N.2   3003  XAX3003     0.0000
     13  C6        10.1830   -8.8240   18.5840 C.3   3003  XAX3003     0.0000
     14  C7         9.5860   -8.5300   17.1860 C.3   3003  XAX3003     0.0000
     15  N8         9.4860   -7.0840   16.9420 N.2   3003  XAX3003     0.0000
     16  C9         8.9430   -6.6960   19.2880 C.2   3003  XAX3003     0.0000
     17  C1'       10.0970  -10.3200   18.8640 C.2   3003  XAX3003     0.0000
     18  S1'       11.0080  -11.0020   20.0950 S.3   3003  XAX3003     0.0000
     19  C10        9.1990   -6.1670   17.9060 C.1   3003  XAX3003     0.0000
     20  O1P        5.3820  -12.3870   15.2920 O.3   3003  XAX3003     0.0000
     21  C2'        9.2990  -11.1240   18.1260 C.2   3003  XAX3003     0.0000
     22  S2'        9.4200  -12.7810   18.2940 S.3   3003  XAX3003     0.0000
     23  O2P        6.7250  -10.4380   14.3090 O.2   3003  XAX3003     0.0000
     24  C3'        8.3030  -10.5450   17.1390 C.3   3003  XAX3003     0.0000
     25  O3'        8.2770   -9.1050   17.1150 O.3   3003  XAX3003     0.0000
     26  O3P        4.2820  -10.1210   14.9540 O.3   3003  XAX3003     0.0000
     27  C4'        6.8930  -11.0180   17.4650 C.3   3003  XAX3003     0.0000
     28  O4'        5.9370  -10.3580   16.6550 O.3   3003  XAX3003     0.0000
@<TRIPOS>BOND
     1    23     1    2
     2    26     1    1
     3     1    20    1
     4     1    28    1
     5    28    27    1
     6    15    14    1
     7    15    19    2
     8    25    24    1
     9    25    14    1
    10    24    27    1
    11    24    21    1
    12    14    13    1
    13     3    19    2
    14     3     5    2
    15    19    16    1
    16    21    22    1
    17    21    17    2
    18    22     2    1
    19     6     5    1
    20     5     8    2
    21    13    17    1
    22    13    12    1
    23    17    18    1
    24    16    12    2
    25    16    10    1
    26     4     2    1
    27     8    10    2
    28    18     2    1
    29    10    11    2
    30     2     9    1
    31     2     7    1
