@<TRIPOS>MOLECULE
3ax8_EIM_A_1.pdb
 32 34 0 0 0
SMALL
GASTEIGER

@<TRIPOS>ATOM
      1  C1        11.7330   -0.9720  -33.8910 C.3     1  EIM1        0.0007
      2  C2        12.7490   -1.8830  -34.6410 C.3     1  EIM1        0.0044
      3  C3        13.9570   -2.3490  -33.7920 C.3     1  EIM1        0.0221
      4  C4        13.5130   -2.7970  -32.4150 C.2     1  EIM1       -0.0422
      5  C5        12.7130   -1.7040  -31.7710 C.3     1  EIM1        0.0455
      6  C6        11.3700   -1.4850  -32.4990 C.3     1  EIM1        0.0058
      7  C7        12.3410   -1.4660  -30.3330 C.3     1  EIM1        0.1190
      8  C8        10.8480   -1.2740  -30.1530 C.3     1  EIM1        0.0299
      9  C9        10.6910   -0.5080  -31.5070 C.3     1  EIM1        0.0028
     10  C10       13.7600   -4.0230  -31.8940 C.2     1  EIM1       -0.0088
     11  C11       14.5220   -5.0570  -32.6070 C.2     1  EIM1       -0.0051
     12  C12       14.4090   -6.3890  -32.3770 C.2     1  EIM1       -0.0213
     13  C13       15.2530   -7.3450  -33.2020 C.3     1  EIM1        0.0591
     14  C14       15.8660   -8.4610  -32.3350 C.3     1  EIM1        0.1592
     15  C15       14.8240   -9.1020  -31.4200 C.3     1  EIM1        0.0707
     16  C16       14.0870   -8.1040  -30.5410 C.3     1  EIM1        0.1765
     17  C17       13.5270   -6.9740  -31.3610 C.2     1  EIM1        0.0039
     18  C18       12.2800   -6.5430  -31.1860 C.2     1  EIM1       -0.0024
     19  C19        9.3370    0.1240  -31.9280 C.3     1  EIM1        0.0001
     20  C20       10.5340   -2.7950  -32.6230 C.3     1  EIM1        0.0004
     21  O21       13.0370   -8.8270  -29.8960 O.3     1  EIM1       -0.2182
     22  O22       16.9700   -7.9670  -31.5420 O.3     1  EIM1       -0.2227
     23  C23        9.2210    1.5870  -31.4620 C.3     1  EIM1        0.0000
     24  C24        8.0880   -0.6270  -31.4690 C.3     1  EIM1        0.0001
     25  C25        6.8260   -0.1400  -32.1910 C.3     1  EIM1        0.0025
     26  C26        5.6710   -1.0110  -31.7000 C.3     1  EIM1        0.0304
     27  C27        4.2750   -0.5010  -32.0220 C.3     1  EIM1        0.1268
     28  C28        4.0300   -0.3360  -33.5050 C.3     1  EIM1        0.0329
     29  C29        3.2880   -1.5110  -31.4620 C.3     1  EIM1        0.0329
     30  O30        4.0370    0.7640  -31.3810 O.3     1  EIM1       -0.2257
     31  O31       13.2480   -1.0690  -29.3300 O.3     1  EIM1       -0.3533
     32  C33       14.5340   -1.6010  -29.5560 C.3     1  EIM1        0.1740
@<TRIPOS>BOND
     1     2     1    1
     2     2     3    1
     3     1     6    1
     4     3     4    1
     5    28    27    1
     6    13    12    1
     7    13    14    1
     8    20     6    1
     9    11    12    2
    10    11    10    1
    11     6     5    1
    12     6     9    1
    13     4    10    2
    14     4     5    1
    15    12    17    1
    16    14    22    1
    17    14    15    1
    18    25    26    1
    19    25    24    1
    20    27    26    1
    21    27    29    1
    22    27    30    1
    23    19     9    1
    24    19    24    1
    25    19    23    1
    26     5     7    1
    27     9     8    1
    28    15    16    1
    29    17    18    2
    30    17    16    1
    31    16    21    1
    32     7     8    1
    33     7    31    1
    34    32    31    1
