@<TRIPOS>MOLECULE
3ax9_XAX_A_1.pdb
 28 31 0 0 0
SMALL
GASTEIGER

@<TRIPOS>ATOM
      1  P         71.4510   -8.5120   13.1150 P.3   3003  XAX3003     0.0000
      2 MO         76.0210  -10.7930   18.6100 Mo    3003  XAX3003     0.0000
      3  N1        74.8850   -2.5200   15.6840 N.2   3003  XAX3003     0.0000
      4  O1        76.1520  -12.5080   17.5330 O.3   3003  XAX3003     0.0000
      5  C2        74.5350   -1.6050   16.6300 C.1   3003  XAX3003     0.0000
      6  N2        74.3980   -0.3130   16.2350 N.pl3 3003  XAX3003     0.0000
      7  O2        74.4800  -10.9260   19.9300 O.3   3003  XAX3003     0.0000
      8  N3        74.2810   -1.9490   17.9390 N.2   3003  XAX3003     0.0000
      9  S3        78.0710  -11.4660   19.3560 S.3   3003  XAX3003     0.0000
     10  C4        74.4470   -3.2260   18.3750 C.1   3003  XAX3003     0.0000
     11  O4        74.1980   -3.5160   19.6870 O.2   3003  XAX3003     0.0000
     12  N5        75.3980   -5.5920   17.7320 N.2   3003  XAX3003     0.0000
     13  C6        75.9910   -6.4430   16.6780 C.3   3003  XAX3003     0.0000
     14  C7        75.4260   -6.1750   15.2850 C.3   3003  XAX3003     0.0000
     15  N8        75.3750   -4.7510   15.0610 N.2   3003  XAX3003     0.0000
     16  C9        74.7300   -4.3200   17.3860 C.2   3003  XAX3003     0.0000
     17  C1'       75.8700   -7.9390   16.9480 C.2   3003  XAX3003     0.0000
     18  S1'       76.7540   -8.6050   18.1920 S.3   3003  XAX3003     0.0000
     19  C10       75.0540   -3.8320   16.0130 C.1   3003  XAX3003     0.0000
     20  O1P       71.4470   -9.9980   13.4280 O.3   3003  XAX3003     0.0000
     21  C2'       75.0760   -8.7560   16.2240 C.2   3003  XAX3003     0.0000
     22  S2'       75.2430  -10.4230   16.4210 S.3   3003  XAX3003     0.0000
     23  O2P       72.6110   -7.9900   12.2790 O.2   3003  XAX3003     0.0000
     24  C3'       74.0880   -8.1600   15.2370 C.3   3003  XAX3003     0.0000
     25  O3'       74.1110   -6.7260   15.2360 O.3   3003  XAX3003     0.0000
     26  O3P       70.0640   -7.9560   12.9980 O.3   3003  XAX3003     0.0000
     27  C4'       72.6450   -8.5450   15.5130 C.3   3003  XAX3003     0.0000
     28  O4'       71.8660   -7.8600   14.5560 O.3   3003  XAX3003     0.0000
@<TRIPOS>BOND
     1    23     1    2
     2    26     1    1
     3     1    20    1
     4     1    28    1
     5    28    27    1
     6    15    14    1
     7    15    19    2
     8    25    24    1
     9    25    14    1
    10    24    27    1
    11    24    21    1
    12    14    13    1
    13     3    19    2
    14     3     5    2
    15    19    16    1
    16    21    22    1
    17    21    17    2
    18     6     5    1
    19    22     2    1
    20     5     8    2
    21    13    17    1
    22    13    12    1
    23    17    18    1
    24    16    12    2
    25    16    10    1
    26     4     2    1
    27     8    10    2
    28    18     2    1
    29    10    11    2
    30     2     9    1
    31     2     7    1
