@<TRIPOS>MOLECULE
3axe_CBI_A_1.pdb
 23 24 0 0 0
SMALL
GASTEIGER

@<TRIPOS>ATOM
      1  C1        24.4410   -1.6030  -18.4060 C.3   2001  CBI2001     0.2695
      2  C2        24.1810   -0.2480  -19.0670 C.3   2001  CBI2001     0.2406
      3  C3        24.3870   -0.3730  -20.5760 C.3   2001  CBI2001     0.2198
      4  C4        25.7990   -0.8970  -20.8450 C.3   2001  CBI2001     0.2144
      5  C5        26.0620   -2.1720  -20.0400 C.3   2001  CBI2001     0.1835
      6  C6        27.5260   -2.5800  -20.2160 C.3   2001  CBI2001     0.2142
      7  O2        22.8450    0.1840  -18.7970 O.3   2001  CBI2001    -0.2149
      8  O3        24.2320    0.9170  -21.1710 O.3   2001  CBI2001    -0.2174
      9  O4        25.9170   -1.1980  -22.2370 O.3   2001  CBI2001    -0.2176
     10  O5        25.8120   -1.9650  -18.6410 O.3   2001  CBI2001    -0.3256
     11  O6        27.7850   -3.7450  -19.4290 O.3   2001  CBI2001    -0.2176
     12  C1'       24.1880   -3.7180  -13.6010 C.3   2001  CBI2001     0.3023
     13  C2'       25.3390   -4.0350  -14.5570 C.3   2001  CBI2001     0.2433
     14  C3'       25.4750   -2.9020  -15.5730 C.3   2001  CBI2001     0.2168
     15  C4'       24.1450   -2.6590  -16.2900 C.3   2001  CBI2001     0.1804
     16  C5'       23.0130   -2.5320  -15.2800 C.3   2001  CBI2001     0.1804
     17  C6'       21.6760   -2.4570  -16.0200 C.3   2001  CBI2001     0.2141
     18  O1'       24.0730   -4.7590  -12.6280 O.3   2001  CBI2001    -0.1869
     19  O2'       26.5610   -4.1450  -13.8220 O.3   2001  CBI2001    -0.2148
     20  O3'       26.4800   -3.2640  -16.5240 O.3   2001  CBI2001    -0.2175
     21  O4'       24.2120   -1.4160  -17.0030 O.3   2001  CBI2001    -0.3257
     22  O5'       22.9730   -3.6330  -14.3610 O.3   2001  CBI2001    -0.3237
     23  O6'       21.4660   -3.6670  -16.7540 O.3   2001  CBI2001    -0.2176
@<TRIPOS>BOND
     1     9     4    1
     2     8     3    1
     3     4     3    1
     4     4     5    1
     5     3     2    1
     6     6     5    1
     7     6    11    1
     8     5    10    1
     9     2     7    1
    10     2     1    1
    11    10     1    1
    12     1    21    1
    13    21    15    1
    14    23    17    1
    15    20    14    1
    16    15    14    1
    17    15    16    1
    18    17    16    1
    19    14    13    1
    20    16    22    1
    21    13    19    1
    22    13    12    1
    23    22    12    1
    24    12    18    1
