@<TRIPOS>MOLECULE
3axh_GLC_A_1.pdb
 11 11 0 0 0
SMALL
GASTEIGER

@<TRIPOS>ATOM
      1  C1       -20.0760   -6.1110  -23.4240 C.3   601  GLC601      0.1777
      2  C2       -21.5060   -5.7770  -22.9600 C.3   601  GLC601      0.2141
      3  C3       -22.1020   -7.0050  -22.2730 C.3   601  GLC601      0.2173
      4  C4       -22.1520   -8.1010  -23.3520 C.3   601  GLC601      0.2142
      5  C5       -20.8020   -8.3970  -24.0360 C.3   601  GLC601      0.1810
      6  C6       -21.0270   -9.0400  -25.4140 C.3   601  GLC601      0.2141
      7  O2       -21.3980   -4.7140  -22.0660 O.3   601  GLC601     -0.2176
      8  O3       -23.3960   -6.6750  -21.7960 O.3   601  GLC601     -0.2175
      9  O4       -22.7380   -9.2830  -22.8300 O.3   601  GLC601     -0.2176
     10  O5       -20.0070   -7.2360  -24.2840 O.3   601  GLC601     -0.3481
     11  O6       -21.5280   -8.0810  -26.3250 O.3   601  GLC601     -0.2176
@<TRIPOS>BOND
     1    11     6    1
     2     6     5    1
     3    10     5    1
     4    10     1    1
     5     5     4    1
     6     1     2    1
     7     4     9    1
     8     4     3    1
     9     2     3    1
    10     2     7    1
    11     3     8    1
