@<TRIPOS>MOLECULE
3axi_GLC_A_1.pdb
 12 12 0 0 0
SMALL
GASTEIGER

@<TRIPOS>ATOM
      1  C1       -20.2720   -6.2060  -23.1120 C.3   601  GLC601      0.3024
      2  C2       -21.7200   -5.7550  -23.0390 C.3   601  GLC601      0.2434
      3  C3       -22.4550   -6.9800  -22.4640 C.3   601  GLC601      0.2199
      4  C4       -22.4010   -8.1230  -23.4930 C.3   601  GLC601      0.2144
      5  C5       -20.9910   -8.3140  -24.0490 C.3   601  GLC601      0.1836
      6  C6       -21.1260   -8.9420  -25.4220 C.3   601  GLC601      0.2142
      7  O1       -19.8830   -6.8600  -21.9170 O.3   601  GLC601     -0.1869
      8  O2       -21.8060   -4.4840  -22.4030 O.3   601  GLC601     -0.2148
      9  O3       -23.7730   -6.7180  -22.0440 O.3   601  GLC601     -0.2174
     10  O4       -22.7940   -9.3300  -22.9130 O.3   601  GLC601     -0.2176
     11  O5       -20.2600   -7.1020  -24.2020 O.3   601  GLC601     -0.3236
     12  O6       -21.7600   -8.0020  -26.2410 O.3   601  GLC601     -0.2176
@<TRIPOS>BOND
     1    12     6    1
     2     6     5    1
     3    11     5    1
     4    11     1    1
     5     5     4    1
     6     4    10    1
     7     4     3    1
     8     1     2    1
     9     1     7    1
    10     2     3    1
    11     2     8    1
    12     3     9    1
