@<TRIPOS>MOLECULE
3axk_NDP_A_1.pdb
 48 52 0 0 0
SMALL
GASTEIGER

@<TRIPOS>ATOM
      1  PA        31.0580   25.3080  -20.7640 P.3   479  NDP479      0.2189
      2  O1A       31.4210   23.8730  -20.6470 O.3   479  NDP479     -0.4371
      3  O2A       32.1060   26.3320  -20.9540 O.2   479  NDP479     -0.5170
      4  O5B       30.1050   25.6090  -19.5270 O.3   479  NDP479     -0.3112
      5  C5B       29.5750   26.9380  -19.3560 C.3   479  NDP479      0.1813
      6  C4B       28.5180   26.8440  -18.2910 C.3   479  NDP479      0.1820
      7  O4B       27.6180   25.7300  -18.5670 O.3   479  NDP479     -0.3136
      8  C3B       28.9930   26.5980  -16.8750 C.3   479  NDP479      0.2157
      9  O3B       29.4450   27.8190  -16.3340 O.3   479  NDP479     -0.2175
     10  C2B       27.6780   26.1370  -16.2310 C.3   479  NDP479      0.2314
     11  O2B       26.7780   27.2140  -16.0220 O.3   479  NDP479     -0.2630
     12  C1B       27.1060   25.2330  -17.3270 C.3   479  NDP479      0.3158
     13  N9A       27.4000   23.8050  -17.1640 N.pl3 479  NDP479     -0.1439
     14  C8A       28.1100   22.9920  -18.0350 C.3   479  NDP479      0.3377
     15  N7A       28.3180   21.7820  -17.5500 N.2   479  NDP479     -0.2095
     16  C5A       27.4870   21.7280  -16.4650 C.2   479  NDP479      0.2526
     17  C6A       27.2900   20.7350  -15.4670 C.2   479  NDP479      0.4393
     18  N6A       27.9820   19.5890  -15.4760 N.pl3 479  NDP479      0.2180
     19  N1A       26.4520   21.0400  -14.4270 N.2   479  NDP479      0.0021
     20  C2A       25.9290   22.2870  -14.3000 C.3   479  NDP479      0.5254
     21  N3A       26.0570   23.3070  -15.1850 N.2   479  NDP479     -0.0055
     22  C4A       26.8770   22.9650  -16.2340 C.2   479  NDP479      0.3518
     23  O3        29.9770   25.4030  -21.9620 O.3   479  NDP479     -0.2703
     24  PN        29.4520   24.5100  -23.1490 P.3   479  NDP479      0.2189
     25  O1N       28.7260   23.3320  -22.5830 O.3   479  NDP479     -0.4371
     26  O2N       28.7310   25.4180  -24.0750 O.2   479  NDP479     -0.5170
     27  O5D       30.7580   24.0560  -23.9450 O.3   479  NDP479     -0.3112
     28  C5D       31.0280   22.6850  -24.2710 C.3   479  NDP479      0.1813
     29  C4D       30.6010   22.3760  -25.6780 C.3   479  NDP479      0.1799
     30  O4D       31.0910   21.0850  -26.1100 O.3   479  NDP479     -0.3327
     31  C3D       29.1000   22.3700  -26.0010 C.3   479  NDP479      0.2158
     32  O3D       28.7920   22.9490  -27.2590 O.3   479  NDP479     -0.2175
     33  C2D       28.7620   20.8890  -25.8740 C.3   479  NDP479      0.2309
     34  O2D       27.5600   20.6380  -26.5830 O.3   479  NDP479     -0.2158
     35  C1D       30.0090   20.3180  -26.5890 C.3   479  NDP479      0.2263
     36  N1N       30.3060   18.8640  -26.3650 N.pl3 479  NDP479     -0.2787
     37  C2N       31.3890   18.3620  -27.0740 C.3   479  NDP479      0.1244
     38  C3N       31.1970   17.2780  -27.9470 C.2   479  NDP479      0.0544
     39  C7N       32.3680   16.5450  -28.5320 C.2   479  NDP479      0.2818
     40  O7N       32.7890   15.5320  -27.9650 O.2   479  NDP479     -0.2670
     41  N7N       33.0020   17.1220  -29.5600 N.am  479  NDP479     -0.0839
     42  C4N       29.9180   16.6330  -27.9590 C.2   479  NDP479      0.0033
     43  C5N       28.9890   16.9320  -26.9360 C.2   479  NDP479      0.0157
     44  C6N       29.2740   17.9670  -26.0400 C.2   479  NDP479      0.0633
     45  P2B       26.6770   28.0950  -14.6720 P.3   479  NDP479      0.5328
     46  O1X       28.0480   28.6440  -14.3380 O.3   479  NDP479     -0.1145
     47  O2X       25.6600   29.1190  -15.0970 O.2   479  NDP479     -0.2224
     48  O3X       26.1560   27.1640  -13.6000 O.3   479  NDP479     -0.1145
@<TRIPOS>BOND
     1    41    39   am
     2    39    40    2
     3    39    38    1
     4    42    38    2
     5    42    43    1
     6    38    37    1
     7    32    31    1
     8    37    36    1
     9    43    44    2
    10    35    36    1
    11    35    30    1
    12    35    33    1
    13    34    33    1
    14    36    44    1
    15    30    29    1
    16    31    33    1
    17    31    29    1
    18    29    28    1
    19    28    27    1
    20    26    24    2
    21    27    24    1
    22    24    25    1
    23    24    23    1
    24    23     1    1
    25     3     1    2
    26     1     2    1
    27     1     4    1
    28     4     5    1
    29     5     6    1
    30     7     6    1
    31     7    12    1
    32     6     8    1
    33    14    15    1
    34    14    13    1
    35    15    16    2
    36    12    13    1
    37    12    10    1
    38    13    22    1
    39     8     9    1
    40     8    10    1
    41    16    22    1
    42    16    17    1
    43    22    21    2
    44    10    11    1
    45    11    45    1
    46    18    17    1
    47    17    19    2
    48    21    20    1
    49    47    45    2
    50    45    46    1
    51    45    48    1
    52    19    20    1
