@<TRIPOS>MOLECULE
3axm_6PG_A_1.pdb
 17 16 0 0 0
SMALL
GASTEIGER

@<TRIPOS>ATOM
      1  C1        -2.0550    0.9830   50.9610 C.2   479  6PG479      0.3973
      2  C2        -1.5520    0.0390   52.0480 C.3   479  6PG479      0.2865
      3  C3        -2.7110   -0.3690   52.9700 C.3   479  6PG479      0.2260
      4  C4        -2.4490   -1.3450   54.1310 C.3   479  6PG479      0.2179
      5  C5        -1.5900   -0.7120   55.2040 C.3   479  6PG479      0.2147
      6  C6        -1.5840   -1.4930   56.5050 C.3   479  6PG479      0.1892
      7  O1A       -2.4400    2.0950   51.2840 O.co2 479  6PG479     -0.2427
      8  O1        -2.0840    0.6280   49.8390 O.co2 479  6PG479     -0.2427
      9  O2        -0.9510   -1.0640   51.3650 O.3   479  6PG479     -0.2080
     10  O3        -3.7680   -0.8980   52.1860 O.3   479  6PG479     -0.2169
     11  O4        -3.7380   -1.5630   54.7010 O.3   479  6PG479     -0.2175
     12  O5        -0.3050   -0.6580   54.6570 O.3   479  6PG479     -0.2176
     13  O6        -1.5670   -2.8610   56.2730 O.3   479  6PG479     -0.2674
     14  P         -0.7770   -3.7820   57.2980 P.3   479  6PG479      0.5327
     15  O1P       -1.3940   -5.0570   56.9680 O.3   479  6PG479     -0.1145
     16  O2P       -0.9480   -3.4070   58.7000 O.3   479  6PG479     -0.1145
     17  O3P        0.6180   -3.6080   56.9140 O.2   479  6PG479     -0.2224
@<TRIPOS>BOND
     1     8     1   ar
     2     1     7   ar
     3     1     2    1
     4     9     2    1
     5     2     3    1
     6    10     3    1
     7     3     4    1
     8     4    11    1
     9     4     5    1
    10    12     5    1
    11     5     6    1
    12    13     6    1
    13    13    14    1
    14    17    14    2
    15    15    14    1
    16    14    16    1
