@<TRIPOS>MOLECULE
3axs_SFG_A_1.pdb
 27 29 0 0 0
SMALL
GASTEIGER

@<TRIPOS>ATOM
      1  N         18.5320   14.0740   47.7490 N.3   501  SFG501     -0.1208
      2  CA        19.1990   13.5680   48.9270 C.3   501  SFG501      0.1944
      3  C         18.3030   13.9020   50.1360 C.2   501  SFG501      0.3819
      4  O         18.5530   13.3670   51.1860 O.co2 501  SFG501     -0.2441
      5  OXT       17.3070   14.6070   50.0600 O.co2 501  SFG501     -0.2441
      6  CB        20.6050   14.2090   49.0480 C.3   501  SFG501      0.0321
      7  CG        21.5920   13.8280   47.9500 C.3   501  SFG501      0.0212
      8  CD        23.0110   14.2760   48.2090 C.3   501  SFG501      0.0944
      9  NE        23.0100   15.6750   48.5660 N.3   501  SFG501     -0.1328
     10  C5'       23.8910   14.1350   46.9680 C.3   501  SFG501      0.0514
     11  C4'       24.2560   12.7140   46.5610 C.3   501  SFG501      0.1537
     12  O4'       24.9980   12.8490   45.4070 O.3   501  SFG501     -0.3161
     13  C3'       25.1890   11.9580   47.4850 C.3   501  SFG501      0.2159
     14  O3'       24.5030   10.8490   48.0060 O.3   501  SFG501     -0.2175
     15  C2'       26.3220   11.5270   46.5590 C.3   501  SFG501      0.2569
     16  O2'       26.6000   10.1950   46.7230 O.3   501  SFG501     -0.2130
     17  C1'       25.6580   11.6750   45.2290 C.3   501  SFG501      0.3185
     18  N9        26.4480   12.1310   44.1370 N.pl3 501  SFG501     -0.1439
     19  C8        27.3230   13.0790   44.1730 C.3   501  SFG501      0.3377
     20  N7        27.8210   13.2650   42.9920 N.2   501  SFG501     -0.2095
     21  C5        27.2430   12.4350   42.1830 C.2   501  SFG501      0.2526
     22  C6        27.3370   12.1690   40.8290 C.2   501  SFG501      0.4393
     23  N6        28.1550   12.8180   40.0640 N.pl3 501  SFG501      0.2180
     24  N1        26.5780   11.2270   40.3250 N.2   501  SFG501      0.0021
     25  C2        25.7490   10.5660   41.0780 C.3   501  SFG501      0.5254
     26  N3        25.6430   10.8090   42.3510 N.2   501  SFG501     -0.0055
     27  C4        26.3680   11.7230   42.9210 C.2   501  SFG501      0.3518
@<TRIPOS>BOND
     1    23    22    1
     2    24    22    2
     3    24    25    1
     4    22    21    1
     5    25    26    1
     6    21    27    1
     7    21    20    2
     8    26    27    2
     9    27    18    1
    10    20    19    1
    11    18    19    1
    12    18    17    1
    13    17    12    1
    14    17    15    1
    15    12    11    1
    16    15    16    1
    17    15    13    1
    18    11    10    1
    19    11    13    1
    20    10     8    1
    21    13    14    1
    22     1     2    1
    23     7     8    1
    24     7     6    1
    25     8     9    1
    26     2     6    1
    27     2     3    1
    28     5     3   ar
    29     3     4   ar
