@<TRIPOS>MOLECULE
3axt_SAM_A_1.pdb
 27 29 0 0 0
SMALL
GASTEIGER

@<TRIPOS>ATOM
      1  N         18.6520   13.9060   47.5810 N.3   397  SAM397     -0.1208
      2  CA        18.9510   13.4490   48.9330 C.3   397  SAM397      0.1952
      3  C         18.0880   14.1480   49.9800 C.2   397  SAM397      0.3819
      4  O         18.2020   13.8770   51.1750 O.co2 397  SAM397     -0.2441
      5  OXT       17.2580   14.9980   49.6580 O.co2 397  SAM397     -0.2441
      6  CB        20.4350   13.6130   49.2420 C.3   397  SAM397      0.0414
      7  CG        21.2340   14.3410   48.1690 C.3   397  SAM397      0.0503
      8  SD        22.9970   14.4590   48.5650 S.3   397  SAM397     -0.1761
      9  CE        23.1530   16.2590   48.6210 C.3   397  SAM397      0.0590
     10  C5'       23.7780   14.1260   46.9650 C.3   397  SAM397      0.0806
     11  C4'       24.1710   12.6700   46.7350 C.3   397  SAM397      0.1622
     12  O4'       24.5010   12.4980   45.3720 O.3   397  SAM397     -0.3153
     13  C3'       25.3850   12.2310   47.5430 C.3   397  SAM397      0.2168
     14  O3'       25.0130   11.2230   48.4530 O.3   397  SAM397     -0.2175
     15  C2'       26.3710   11.6690   46.5380 C.3   397  SAM397      0.2569
     16  O2'       26.7580   10.3630   46.8930 O.3   397  SAM397     -0.2130
     17  C1'       25.6150   11.6430   45.2220 C.3   397  SAM397      0.3185
     18  N9        26.4590   12.1450   44.1270 N.pl3 397  SAM397     -0.1439
     19  C8        27.3870   13.1480   44.2130 C.3   397  SAM397      0.3377
     20  N7        27.9450   13.3140   42.9930 N.2   397  SAM397     -0.2095
     21  C5        27.3830   12.4350   42.1340 C.2   397  SAM397      0.2526
     22  C6        27.5850   12.1870   40.7840 C.2   397  SAM397      0.4393
     23  N6        28.4830   12.8940   40.1040 N.pl3 397  SAM397      0.2180
     24  N1        26.8500   11.2040   40.1540 N.2   397  SAM397      0.0021
     25  C2        25.9200   10.4750   40.8680 C.3   397  SAM397      0.5254
     26  N3        25.7240   10.7270   42.2110 N.2   397  SAM397     -0.0055
     27  C4        26.4450   11.6910   42.8340 C.2   397  SAM397      0.3518
@<TRIPOS>BOND
     1    23    22    1
     2    24    22    2
     3    24    25    1
     4    22    21    1
     5    25    26    1
     6    21    27    1
     7    21    20    2
     8    26    27    2
     9    27    18    1
    10    20    19    1
    11    18    19    1
    12    18    17    1
    13    17    12    1
    14    17    15    1
    15    12    11    1
    16    15    16    1
    17    15    13    1
    18    11    10    1
    19    11    13    1
    20    10     8    1
    21    13    14    1
    22     1     2    1
    23     7     8    1
    24     7     6    1
    25     8     9    1
    26     2     6    1
    27     2     3    1
    28     5     3   ar
    29     3     4   ar
