@<TRIPOS>MOLECULE
3axw_TID_A_1.pdb
 15 16 0 0 0
SMALL
GASTEIGER

@<TRIPOS>ATOM
      1  C1        37.1080    4.2780  -12.3300 C.ar  336  TID336      0.0023
      2  C2        36.4720    5.2300  -13.1740 C.ar  336  TID336      0.0257
      3  C3        35.8300    4.8170  -14.3570 C.ar  336  TID336      0.0023
      4  C4        35.7670    3.4450  -14.6810 C.ar  336  TID336      0.0066
      5  C5        36.3680    2.4930  -13.8270 C.ar  336  TID336      0.0798
      6  C6        37.0490    2.9070  -12.6500 C.ar  336  TID336      0.0066
      7  C13       36.2730    1.0640  -14.1790 C.2   336  TID336      0.3878
      8  O15       36.8860    0.2370  -13.4930 O.co2 336  TID336     -0.2406
      9  O17       35.5560    0.7340  -15.1390 O.co2 336  TID336     -0.2406
     10  C19       36.5400    6.5830  -12.8350 C.ar  336  TID336      0.1349
     11  N21       36.2640    7.6610  -13.6090 N.ar  336  TID336     -0.1395
     12  N22       36.4530    8.8730  -13.0180 N.ar  336  TID336     -0.1222
     13  C23       36.8950    8.8080  -11.7150 C.ar  336  TID336      0.2222
     14  S24       37.0440    7.1710  -11.2800 S.2   336  TID336     -0.0274
     15  N30       37.2440    9.8290  -10.7090 N.pl3 336  TID336     -0.0979
@<TRIPOS>BOND
     1     9     7   ar
     2     4     3   ar
     3     4     5   ar
     4     3     2   ar
     5     7     5    1
     6     7     8   ar
     7     5     6   ar
     8    11    12   ar
     9    11    10   ar
    10     2    10    1
    11     2     1   ar
    12    12    13   ar
    13    10    14   ar
    14     6     1   ar
    15    13    14   ar
    16    13    15    1
