@<TRIPOS>MOLECULE
3axx_CBI_A_1.pdb
 23 24 0 0 0
SMALL
GASTEIGER

@<TRIPOS>ATOM
      1  C1        19.7600  -23.7800   19.3380 C.3   459  CBI459      0.2695
      2  C2        20.5540  -23.1300   20.4730 C.3   459  CBI459      0.2406
      3  C3        20.8230  -21.6530   20.1860 C.3   459  CBI459      0.2198
      4  C4        21.4820  -21.5220   18.8120 C.3   459  CBI459      0.2144
      5  C5        20.6490  -22.2500   17.7540 C.3   459  CBI459      0.1835
      6  C6        21.3650  -22.1710   16.4050 C.3   459  CBI459      0.2142
      7  O2        19.8440  -23.2730   21.7060 O.3   459  CBI459     -0.2149
      8  O3        21.7130  -21.1520   21.1860 O.3   459  CBI459     -0.2174
      9  O4        21.5810  -20.1350   18.4780 O.3   459  CBI459     -0.2176
     10  O5        20.4830  -23.6330   18.1070 O.3   459  CBI459     -0.3256
     11  O6        20.6370  -22.9340   15.4400 O.3   459  CBI459     -0.2176
     12  C1'       18.1380  -28.6510   18.3400 C.3   459  CBI459      0.3023
     13  C2'       18.2960  -27.6090   17.2320 C.3   459  CBI459      0.2433
     14  C3'       19.2200  -26.4970   17.7310 C.3   459  CBI459      0.2168
     15  C4'       18.6830  -25.9090   19.0380 C.3   459  CBI459      0.1804
     16  C5'       18.2880  -27.0130   20.0060 C.3   459  CBI459      0.1804
     17  C6'       17.6400  -26.3450   21.2220 C.3   459  CBI459      0.2141
     18  O1'       17.4300  -29.8020   17.8740 O.3   459  CBI459     -0.1869
     19  O2'       18.8620  -28.2240   16.0720 O.3   459  CBI459     -0.2148
     20  O3'       19.2950  -25.4670   16.7410 O.3   459  CBI459     -0.2175
     21  O4'       19.7110  -25.1650   19.7050 O.3   459  CBI459     -0.3257
     22  O5'       17.4450  -28.0210   19.4280 O.3   459  CBI459     -0.3237
     23  O6'       16.7190  -25.3440   20.7790 O.3   459  CBI459     -0.2176
@<TRIPOS>BOND
     1    11     6    1
     2    19    13    1
     3     6     5    1
     4    20    14    1
     5    13    14    1
     6    13    12    1
     7    14    15    1
     8     5    10    1
     9     5     4    1
    10    18    12    1
    11    10     1    1
    12    12    22    1
    13     9     4    1
    14     4     3    1
    15    15    21    1
    16    15    16    1
    17     1    21    1
    18     1     2    1
    19    22    16    1
    20    16    17    1
    21     3     2    1
    22     3     8    1
    23     2     7    1
    24    23    17    1
