@<TRIPOS>MOLECULE
3axz_ADN_A_1.pdb
 19 21 0 0 0
SMALL
GASTEIGER

@<TRIPOS>ATOM
      1  O5'       44.3170    6.4750   11.1420 O.3   401  ADN401     -0.2176
      2  C5'       43.0150    6.0440   11.5470 C.3   401  ADN401      0.2143
      3  C4'       42.9610    4.5150   11.5440 C.3   401  ADN401      0.1851
      4  O4'       43.3390    4.0240   10.2440 O.3   401  ADN401     -0.3134
      5  C3'       43.9540    3.9250   12.5490 C.3   401  ADN401      0.2186
      6  O3'       43.5070    2.6620   13.0490 O.3   401  ADN401     -0.2174
      7  C2'       45.1890    3.7470   11.6700 C.3   401  ADN401      0.2570
      8  O2'       46.1090    2.7990   12.2170 O.3   401  ADN401     -0.2130
      9  C1'       44.5480    3.2550   10.3730 C.3   401  ADN401      0.3186
     10  N9        45.4730    3.4530    9.2340 N.pl3 401  ADN401     -0.1439
     11  C8        45.8520    4.6280    8.7350 C.3   401  ADN401      0.3377
     12  N7        46.7220    4.4330    7.7450 N.2   401  ADN401     -0.2095
     13  C5        46.8990    3.1220    7.6100 C.2   401  ADN401      0.2526
     14  C6        47.6720    2.3300    6.7700 C.2   401  ADN401      0.4393
     15  N6        48.4640    2.8800    5.8540 N.pl3 401  ADN401      0.2180
     16  N1        47.6140    0.9980    6.9010 N.2   401  ADN401      0.0021
     17  C2        46.8360    0.4360    7.8110 C.3   401  ADN401      0.5254
     18  N3        46.0900    1.1580    8.6270 N.2   401  ADN401     -0.0055
     19  C4        46.0980    2.4960    8.5550 C.2   401  ADN401      0.3518
@<TRIPOS>BOND
     1    15    14    1
     2    14    16    2
     3    14    13    1
     4    16    17    1
     5    13    12    2
     6    13    19    1
     7    12    11    1
     8    17    18    1
     9    19    18    2
    10    19    10    1
    11    11    10    1
    12    10     9    1
    13     4     9    1
    14     4     3    1
    15     9     7    1
    16     1     2    1
    17     3     2    1
    18     3     5    1
    19     7     8    1
    20     7     5    1
    21     5     6    1
