@<TRIPOS>MOLECULE
3ay0_ADN_A_1.pdb
 19 21 0 0 0
SMALL
GASTEIGER

@<TRIPOS>ATOM
      1  O5'      -53.1560   -6.8460  -39.0590 O.3   401  ADN401     -0.2176
      2  C5'      -52.7630   -5.4900  -39.2840 C.3   401  ADN401      0.2143
      3  C4'      -53.9070   -4.7400  -39.9680 C.3   401  ADN401      0.1851
      4  O4'      -55.0600   -4.7130  -39.1090 O.3   401  ADN401     -0.3134
      5  C3'      -53.4980   -3.2780  -40.1710 C.3   401  ADN401      0.2186
      6  O3'      -53.5710   -2.9250  -41.5540 O.3   401  ADN401     -0.2174
      7  C2'      -54.5550   -2.5080  -39.3820 C.3   401  ADN401      0.2570
      8  O2'      -54.8440   -1.2400  -39.9760 O.3   401  ADN401     -0.2130
      9  C1'      -55.7270   -3.4850  -39.4370 C.3   401  ADN401      0.3186
     10  N9       -56.7810   -3.1250  -38.4610 N.pl3 401  ADN401     -0.1439
     11  C8       -56.6160   -2.9630  -37.1490 C.3   401  ADN401      0.3377
     12  N7       -57.7800   -2.6640  -36.5780 N.2   401  ADN401     -0.2095
     13  C5       -58.7020   -2.6330  -37.5370 C.2   401  ADN401      0.2526
     14  C6       -60.0680   -2.3880  -37.5570 C.2   401  ADN401      0.4393
     15  N6       -60.7250   -2.1150  -36.4330 N.pl3 401  ADN401      0.2180
     16  N1       -60.7200   -2.4420  -38.7260 N.2   401  ADN401      0.0021
     17  C2       -60.0820   -2.7240  -39.8480 C.3   401  ADN401      0.5254
     18  N3       -58.7830   -2.9630  -39.8670 N.2   401  ADN401     -0.0055
     19  C4       -58.0670   -2.9260  -38.7350 C.2   401  ADN401      0.3518
@<TRIPOS>BOND
     1     6     5    1
     2     5     3    1
     3     5     7    1
     4     8     7    1
     5     3     2    1
     6     3     4    1
     7    18    17    1
     8    18    19    2
     9    17    16    1
    10     9     7    1
    11     9     4    1
    12     9    10    1
    13     2     1    1
    14    19    10    1
    15    19    13    1
    16    16    14    2
    17    10    11    1
    18    14    13    1
    19    14    15    1
    20    13    12    2
    21    11    12    1
