@<TRIPOS>MOLECULE
3ay4_BMA_A_1.pdb
 11 11 0 0 0
SMALL
GASTEIGER

@<TRIPOS>ATOM
      1  C1        11.9310   21.5910  119.7340 C.3   1003  BMA1003     0.1777
      2  C2        12.4710   21.9400  118.3590 C.3   1003  BMA1003     0.2141
      3  C3        12.3070   23.4250  118.0430 C.3   1003  BMA1003     0.2173
      4  C4        10.8590   23.8370  118.2630 C.3   1003  BMA1003     0.2142
      5  C5        10.3490   23.3430  119.6080 C.3   1003  BMA1003     0.1810
      6  C6         8.8550   23.5880  119.7380 C.3   1003  BMA1003     0.2141
      7  O2        11.7540   21.1630  117.4180 O.3   1003  BMA1003    -0.2176
      8  O3        12.6590   23.6670  116.6960 O.3   1003  BMA1003    -0.2175
      9  O4        10.7600   25.2440  118.2310 O.3   1003  BMA1003    -0.2176
     10  O5        10.5740   21.9620  119.7750 O.3   1003  BMA1003    -0.3481
     11  O6         8.4910   23.0640  120.9910 O.3   1003  BMA1003    -0.2176
@<TRIPOS>BOND
     1     8     3    1
     2     7     2    1
     3     3     4    1
     4     3     2    1
     5     9     4    1
     6     4     5    1
     7     2     1    1
     8     5     6    1
     9     5    10    1
    10     1    10    1
    11     6    11    1
