@<TRIPOS>MOLECULE
3ay4_GAL_A_1.pdb
 11 11 0 0 0
SMALL
GASTEIGER

@<TRIPOS>ATOM
      1  C1         4.2980   28.5090  127.0480 C.3   1009  GAL1009     0.1777
      2  C2         4.4610   30.0220  127.2600 C.3   1009  GAL1009     0.2141
      3  C3         3.8300   30.4740  128.5700 C.3   1009  GAL1009     0.2173
      4  C4         2.3850   30.0130  128.6110 C.3   1009  GAL1009     0.2142
      5  C5         2.3190   28.5030  128.3960 C.3   1009  GAL1009     0.1810
      6  C6         0.8650   28.0400  128.3970 C.3   1009  GAL1009     0.2141
      7  O2         5.8190   30.4110  127.2700 O.3   1009  GAL1009    -0.2176
      8  O3         3.8800   31.8800  128.6650 O.3   1009  GAL1009    -0.2175
      9  O4         1.6700   30.6760  127.5930 O.3   1009  GAL1009    -0.2176
     10  O5         2.9360   28.1320  127.1740 O.3   1009  GAL1009    -0.3481
     11  O6         0.8170   26.6520  128.6360 O.3   1009  GAL1009    -0.2176
@<TRIPOS>BOND
     1     1    10    1
     2     1     2    1
     3    10     5    1
     4     2     7    1
     5     2     3    1
     6     9     4    1
     7     5     6    1
     8     5     4    1
     9     6    11    1
    10     3     4    1
    11     3     8    1
