@<TRIPOS>MOLECULE
3ay6_BGC_A_1.pdb
 12 12 0 0 0
SMALL
GASTEIGER

@<TRIPOS>ATOM
      1  C2        15.7760    4.7080   -8.3270 C.3   262  BGC262      0.2434
      2  C3        14.3190    4.2180   -8.3180 C.3   262  BGC262      0.2199
      3  C4        13.9170    3.7420   -9.7110 C.3   262  BGC262      0.2144
      4  C5        14.9800    2.7840  -10.2770 C.3   262  BGC262      0.1836
      5  C6        14.6480    2.2380  -11.6680 C.3   262  BGC262      0.2142
      6  C1        16.7090    3.6750   -8.9680 C.3   262  BGC262      0.3024
      7  O1        18.0200    4.1590   -9.0130 O.3   262  BGC262     -0.1869
      8  O2        16.1760    4.8860   -7.0010 O.3   262  BGC262     -0.2148
      9  O3        13.4500    5.2280   -7.8220 O.3   262  BGC262     -0.2174
     10  O4        12.6710    3.0600   -9.6140 O.3   262  BGC262     -0.2176
     11  O5        16.2830    3.3750  -10.2820 O.3   262  BGC262     -0.3236
     12  O6        14.4720    3.3070  -12.5620 O.3   262  BGC262     -0.2176
@<TRIPOS>BOND
     1    12     5    1
     2     5     4    1
     3    11     4    1
     4    11     6    1
     5     4     3    1
     6     3    10    1
     7     3     2    1
     8     7     6    1
     9     6     1    1
    10     1     2    1
    11     1     8    1
    12     2     9    1
