@<TRIPOS>MOLECULE
3ay6_NAI_A_1.pdb
 44 48 0 0 0
SMALL
GASTEIGER

@<TRIPOS>ATOM
      1  PA        15.5800    4.4960    1.1330 P.3   263  NAI263      0.2189
      2  O1A       15.2310    5.9530    0.9790 O.2   263  NAI263     -0.5170
      3  O2A       14.8940    3.6240    2.1630 O.3   263  NAI263     -0.4371
      4  O5B       17.1540    4.4800    1.5210 O.3   263  NAI263     -0.3112
      5  C5B       17.9680    5.6480    1.5210 C.3   263  NAI263      0.1813
      6  C4B       18.6840    5.6560    2.8630 C.3   263  NAI263      0.1821
      7  O4B       19.7710    6.5940    2.8830 O.3   263  NAI263     -0.3135
      8  C3B       17.7120    6.0590    3.9830 C.3   263  NAI263      0.2184
      9  O3B       17.9670    5.2250    5.1240 O.3   263  NAI263     -0.2174
     10  C2B       18.1060    7.4860    4.2710 C.3   263  NAI263      0.2570
     11  O2B       17.7310    7.9040    5.5900 O.3   263  NAI263     -0.2130
     12  C1B       19.6300    7.4160    4.0530 C.3   263  NAI263      0.3186
     13  N9A       20.1950    8.7800    3.9140 N.pl3 263  NAI263     -0.1439
     14  C8A       19.7230    9.7500    3.1170 C.3   263  NAI263      0.3377
     15  N7A       20.4790   10.8520    3.2790 N.2   263  NAI263     -0.2095
     16  C5A       21.4440   10.5740    4.1880 C.2   263  NAI263      0.2526
     17  C6A       22.4780   11.3120    4.7510 C.2   263  NAI263      0.4393
     18  N6A       22.7020   12.5980    4.3830 N.pl3 263  NAI263      0.2180
     19  N1A       23.2900   10.7230    5.6660 N.2   263  NAI263      0.0021
     20  C2A       23.0890    9.4520    6.0470 C.3   263  NAI263      0.5254
     21  N3A       22.0970    8.7210    5.5270 N.2   263  NAI263     -0.0055
     22  C4A       21.2560    9.2620    4.5950 C.2   263  NAI263      0.3518
     23  O3        15.4970    3.7160   -0.2930 O.3   263  NAI263     -0.2703
     24  PN        16.5730    2.6150   -0.8160 P.3   263  NAI263      0.2189
     25  O1N       16.8780    1.6380    0.2870 O.3   263  NAI263     -0.4371
     26  O2N       16.1190    2.1020   -2.1650 O.2   263  NAI263     -0.5170
     27  O5D       17.8480    3.5480   -1.0920 O.3   263  NAI263     -0.3112
     28  C5D       19.1650    3.0750   -0.7950 C.3   263  NAI263      0.1813
     29  C4D       20.0790    3.1520   -2.0060 C.3   263  NAI263      0.1796
     30  O4D       19.6300    2.2890   -3.0450 O.3   263  NAI263     -0.3354
     31  C3D       20.2210    4.5410   -2.6260 C.3   263  NAI263      0.2155
     32  O3D       21.6370    4.7580   -2.7630 O.3   263  NAI263     -0.2176
     33  C2D       19.5910    4.4180   -4.0010 C.3   263  NAI263      0.2271
     34  O2D       20.2780    5.2560   -4.9270 O.3   263  NAI263     -0.2161
     35  C1D       19.8590    2.9480   -4.2840 C.3   263  NAI263      0.2096
     36  N1N       19.0170    2.2170   -5.2430 N.3   263  NAI263     -0.2482
     37  C2N       17.6250    2.3600   -5.1510 C.3   263  NAI263      0.0834
     38  C3N       16.8610    1.5960   -5.9710 C.3   263  NAI263      0.0959
     39  C7N       15.4200    1.3310   -5.7200 C.2   263  NAI263      0.2616
     40  O7N       14.6350    1.1460   -6.6420 O.2   263  NAI263     -0.2716
     41  N7N       15.0030    1.2690   -4.4580 N.am  263  NAI263     -0.0878
     42  C4N       17.5140    1.0050   -7.2090 C.3   263  NAI263      0.0120
     43  C5N       18.9480    1.4880   -7.4230 C.3   263  NAI263      0.0179
     44  C6N       19.5310    2.2850   -6.5260 C.3   263  NAI263      0.0743
@<TRIPOS>BOND
     1    43    42    1
     2    43    44    1
     3    42    38    1
     4    40    39    2
     5    44    36    1
     6    38    39    1
     7    38    37    1
     8    39    41   am
     9    36    37    1
    10    36    35    1
    11    34    33    1
    12    35    33    1
    13    35    30    1
    14    33    31    1
    15    30    29    1
    16    32    31    1
    17    31    29    1
    18    26    24    2
    19    29    28    1
    20    27    24    1
    21    27    28    1
    22    24    23    1
    23    24    25    1
    24    23     1    1
    25     2     1    2
    26     1     4    1
    27     1     3    1
    28     4     5    1
    29     5     6    1
    30     6     7    1
    31     6     8    1
    32     7    12    1
    33    14    15    1
    34    14    13    1
    35    15    16    2
    36    13    12    1
    37    13    22    1
    38     8    10    1
    39     8     9    1
    40    12    10    1
    41    16    22    1
    42    16    17    1
    43    10    11    1
    44    18    17    1
    45    22    21    2
    46    17    19    2
    47    21    20    1
    48    19    20    1
