@<TRIPOS>MOLECULE
3ay9_ADP_A_1.pdb
 27 29 0 0 0
SMALL
GASTEIGER

@<TRIPOS>ATOM
      1  PB        -5.6660   11.7160  -17.9680 P.3   1452  ADP1452     0.5373
      2  O1B       -5.7690   11.6500  -19.4560 O.2   1452  ADP1452    -0.2221
      3  O2B       -4.8660   10.5820  -17.3920 O.3   1452  ADP1452    -0.1143
      4  O3B       -6.9550   11.9520  -17.2840 O.3   1452  ADP1452    -0.1143
      5  PA        -4.3680   13.8370  -16.3600 P.3   1452  ADP1452     0.2231
      6  O1A       -4.4660   12.9810  -15.1280 O.3   1452  ADP1452    -0.4370
      7  O2A       -3.0770   14.5450  -16.7440 O.2   1452  ADP1452    -0.5169
      8  O3A       -4.7770   13.0650  -17.7340 O.3   1452  ADP1452    -0.2261
      9  O5'       -5.5300   14.9180  -16.1350 O.3   1452  ADP1452    -0.3111
     10  C5'       -5.9020   15.7640  -17.2400 C.3   1452  ADP1452     0.1813
     11  C4'       -6.8620   16.8010  -16.7050 C.3   1452  ADP1452     0.1821
     12  O4'       -6.2560   17.4180  -15.5590 O.3   1452  ADP1452    -0.3135
     13  C3'       -7.0950   17.8800  -17.7540 C.3   1452  ADP1452     0.2184
     14  O3'       -8.4950   18.1790  -17.7160 O.3   1452  ADP1452    -0.2174
     15  C2'       -6.3120   19.0770  -17.2390 C.3   1452  ADP1452     0.2570
     16  O2'       -6.8430   20.3540  -17.6740 O.3   1452  ADP1452    -0.2130
     17  C1'       -6.4660   18.8390  -15.7430 C.3   1452  ADP1452     0.3186
     18  N9        -5.4950   19.5620  -14.9480 N.pl3 1452  ADP1452    -0.1439
     19  C8        -4.1440   19.5250  -15.0880 C.3   1452  ADP1452     0.3377
     20  N7        -3.5540   20.3000  -14.1460 N.2   1452  ADP1452    -0.2095
     21  C5        -4.5410   20.8600  -13.4240 C.2   1452  ADP1452     0.2526
     22  C6        -4.5960   21.8200  -12.2990 C.2   1452  ADP1452     0.4393
     23  N6        -3.4420   22.3210  -11.7750 N.pl3 1452  ADP1452     0.2180
     24  N1        -5.8250   22.1380  -11.8370 N.2   1452  ADP1452     0.0021
     25  C2        -6.9670   21.6390  -12.3530 C.3   1452  ADP1452     0.5254
     26  N3        -6.9980   20.7410  -13.3780 N.2   1452  ADP1452    -0.0055
     27  C4        -5.8200   20.3590  -13.9400 C.2   1452  ADP1452     0.3518
@<TRIPOS>BOND
     1     2     1    2
     2     1     8    1
     3     1     3    1
     4     1     4    1
     5    13    14    1
     6    13    15    1
     7    13    11    1
     8     8     5    1
     9    16    15    1
    10    10    11    1
    11    10     9    1
    12    15    17    1
    13     7     5    2
    14    11    12    1
    15     5     9    1
    16     5     6    1
    17    17    12    1
    18    17    18    1
    19    19    18    1
    20    19    20    1
    21    18    27    1
    22    20    21    2
    23    27    21    1
    24    27    26    2
    25    21    22    1
    26    26    25    1
    27    25    24    1
    28    22    24    2
    29    22    23    1
