@<TRIPOS>MOLECULE
3aya_GAL_A_1.pdb
 11 11 0 0 0
SMALL
GASTEIGER

@<TRIPOS>ATOM
      1  C1         2.3250    0.1530  -34.9610 C.3   253  GAL253      0.1777
      2  C2         2.6930    1.5390  -34.4260 C.3   253  GAL253      0.2141
      3  C3         2.5930    1.5840  -32.9010 C.3   253  GAL253      0.2173
      4  C4         1.2080    1.0930  -32.4800 C.3   253  GAL253      0.2142
      5  C5         0.9720   -0.3060  -33.0530 C.3   253  GAL253      0.1810
      6  C6        -0.3970   -0.8130  -32.5940 C.3   253  GAL253      0.2141
      7  O2         4.0190    1.8860  -34.8320 O.3   253  GAL253     -0.2176
      8  O3         2.7800    2.9270  -32.4490 O.3   253  GAL253     -0.2175
      9  O4         0.2140    1.9850  -32.9920 O.3   253  GAL253     -0.2176
     10  O5         1.0310   -0.2590  -34.4880 O.3   253  GAL253     -0.3481
     11  O6        -0.5940   -2.1510  -33.0570 O.3   253  GAL253     -0.2176
@<TRIPOS>BOND
     1     1    10    1
     2     1     2    1
     3     7     2    1
     4    10     5    1
     5     2     3    1
     6    11     6    1
     7     5     6    1
     8     5     4    1
     9     9     4    1
    10     3     4    1
    11     3     8    1
