@<TRIPOS>MOLECULE
3ayc_GAL_B_1.pdb
 11 11 0 0 0
SMALL
GASTEIGER

@<TRIPOS>ATOM
      1  C1        19.3570   27.1410    7.6980 C.3   298  GAL298      0.1777
      2  C2        19.1460   25.6750    7.3170 C.3   298  GAL298      0.2141
      3  C3        19.0340   25.5140    5.8010 C.3   298  GAL298      0.2173
      4  C4        17.9330   26.4450    5.2920 C.3   298  GAL298      0.2142
      5  C5        18.2410   27.8760    5.7350 C.3   298  GAL298      0.1810
      6  C6        17.1580   28.8370    5.2410 C.3   298  GAL298      0.2141
      7  O2        20.2230   24.8850    7.8280 O.3   298  GAL298     -0.2176
      8  O3        18.6910   24.1600    5.4940 O.3   298  GAL298     -0.2175
      9  O4        16.6880   26.0320    5.8620 O.3   298  GAL298     -0.2176
     10  O5        18.2900   27.9430    7.1680 O.3   298  GAL298     -0.3481
     11  O6        17.4660   30.1560    5.7000 O.3   298  GAL298     -0.2176
@<TRIPOS>BOND
     1     6    11    1
     2     6     5    1
     3     4     5    1
     4     4     3    1
     5     4     9    1
     6     8     3    1
     7     5    10    1
     8     3     2    1
     9    10     1    1
    10     2     1    1
    11     2     7    1
