@<TRIPOS>MOLECULE
3ayd_GAL_A_1.pdb
 11 11 0 0 0
SMALL
GASTEIGER

@<TRIPOS>ATOM
      1  C1       -23.5020   14.7890   21.2270 C.3   253  GAL253      0.1777
      2  C2       -24.0200   13.3720   21.0330 C.3   253  GAL253      0.2141
      3  C3       -23.1230   12.6060   20.0760 C.3   253  GAL253      0.2173
      4  C4       -23.0210   13.3860   18.7770 C.3   253  GAL253      0.2142
      5  C5       -22.4830   14.7730   19.0880 C.3   253  GAL253      0.1810
      6  C6       -22.3510   15.5870   17.7990 C.3   253  GAL253      0.2141
      7  O2       -24.0670   12.6930   22.2960 O.3   253  GAL253     -0.2176
      8  O3       -23.7080   11.3200   19.8220 O.3   253  GAL253     -0.2175
      9  O4       -24.3260   13.5000   18.1920 O.3   253  GAL253     -0.2176
     10  O5       -23.3970   15.4540   19.9590 O.3   253  GAL253     -0.3481
     11  O6       -21.8610   16.8900   18.1250 O.3   253  GAL253     -0.2176
@<TRIPOS>BOND
     1     6    11    1
     2     6     5    1
     3     9     4    1
     4     4     5    1
     5     4     3    1
     6     5    10    1
     7     8     3    1
     8    10     1    1
     9     3     2    1
    10     2     1    1
    11     2     7    1
