@<TRIPOS>MOLECULE
3aye_LAT_A_1.pdb
 23 24 0 0 0
SMALL
GASTEIGER

@<TRIPOS>ATOM
      1  C1       -13.8020    6.8220  -24.9010 C.3     0  LAT0        0.2695
      2  C2       -14.1260    5.3310  -24.6060 C.3     0  LAT0        0.2406
      3  C3       -13.9500    5.0790  -23.1020 C.3     0  LAT0        0.2198
      4  C4       -12.4950    5.4150  -22.7150 C.3     0  LAT0        0.2144
      5  C5       -12.2380    6.9100  -23.0630 C.3     0  LAT0        0.1835
      6  C6       -10.7970    7.2550  -22.6770 C.3     0  LAT0        0.2142
      7  O1       -13.9760    7.0320  -26.3310 O.3     0  LAT0       -0.3257
      8  O2       -15.4830    5.0320  -24.9950 O.3     0  LAT0       -0.2149
      9  O3       -14.2370    3.7110  -22.8080 O.3     0  LAT0       -0.2174
     10  O4       -11.5950    4.5750  -23.4580 O.3     0  LAT0       -0.2176
     11  O5       -12.4210    7.1240  -24.5000 O.3     0  LAT0       -0.3256
     12  O6       -10.5480    8.6300  -22.9780 O.3     0  LAT0       -0.2176
     13  C1'      -14.0070   10.5290  -28.6950 C.3     0  LAT0        0.3023
     14  C2'      -12.6340    9.9330  -28.3370 C.3     0  LAT0        0.2433
     15  C3'      -12.8350    8.4580  -27.9290 C.3     0  LAT0        0.2168
     16  C4'      -13.7870    8.4200  -26.7130 C.3     0  LAT0        0.1804
     17  C5'      -15.1440    9.0790  -27.1440 C.3     0  LAT0        0.1804
     18  C6'      -16.1210    9.0630  -25.9480 C.3     0  LAT0        0.2141
     19  O1'      -13.8240   11.8940  -29.0610 O.3     0  LAT0       -0.1869
     20  O2'      -11.7580   10.0040  -29.4730 O.3     0  LAT0       -0.2148
     21  O3'      -11.5740    7.8720  -27.5870 O.3     0  LAT0       -0.2175
     22  O5'      -14.9210   10.4640  -27.5500 O.3     0  LAT0       -0.3237
     23  O6'      -15.5350    9.6910  -24.8100 O.3     0  LAT0       -0.2176
@<TRIPOS>BOND
     1    20    14    1
     2    19    13    1
     3    13    14    1
     4    13    22    1
     5    14    15    1
     6    15    21    1
     7    15    16    1
     8    22    17    1
     9    17    16    1
    10    17    18    1
    11    16     7    1
    12     7     1    1
    13    18    23    1
    14     8     2    1
    15     1     2    1
    16     1    11    1
    17     2     3    1
    18    11     5    1
    19    10     4    1
    20     3     9    1
    21     3     4    1
    22     5     4    1
    23     5     6    1
    24    12     6    1
