@<TRIPOS>MOLECULE
3ayf_HEM_A_1.pdb
 43 50 0 0 0
SMALL
GASTEIGER

@<TRIPOS>ATOM
      1  CHA       35.3980   25.5380    4.9550 C.2   801  HEM801      0.0000
      2  CHB       34.5550   28.4920    1.2490 C.2   801  HEM801      0.0000
      3  CHC       29.7840   28.4020    2.1990 C.2   801  HEM801      0.0000
      4  CHD       30.5660   25.3330    5.8640 C.2   801  HEM801      0.0000
      5  C1A       35.6350   26.4040    3.8850 C.ar  801  HEM801      0.0000
      6  C2A       36.9620   26.7700    3.3230 C.ar  801  HEM801      0.0000
      7  C3A       36.6690   27.5840    2.2600 C.ar  801  HEM801      0.0000
      8  C4A       35.2260   27.7310    2.1940 C.ar  801  HEM801      0.0000
      9  CMA       37.6820   28.2330    1.3020 C.3   801  HEM801      0.0000
     10  CAA       38.3910   26.3710    3.7520 C.3   801  HEM801      0.0000
     11  CBA       38.6630   25.1290    4.6020 C.3   801  HEM801      0.0000
     12  CGA       40.1740   24.9950    4.8890 C.2   801  HEM801      0.0000
     13  O1A       41.0100   25.1950    3.9610 O.co2 801  HEM801      0.0000
     14  O2A       40.5300   24.6890    6.0520 O.co2 801  HEM801      0.0000
     15  C1B       33.1820   28.7010    1.1640 C.2   801  HEM801      0.0000
     16  C2B       32.5430   29.5010    0.1320 C.2   801  HEM801      0.0000
     17  C3B       31.1630   29.4950    0.3860 C.2   801  HEM801      0.0000
     18  C4B       31.0110   28.6790    1.5790 C.2   801  HEM801      0.0000
     19  CMB       33.2980   30.2140   -1.0200 C.3   801  HEM801      0.0000
     20  CAB       30.1160   30.1500   -0.3760 C.3   801  HEM801      0.0000
     21  CBB       30.1420   31.4060   -1.0380 C.3   801  HEM801      0.0000
     22  C1C       29.5580   27.5890    3.3180 C.ar  801  HEM801      0.0000
     23  C2C       28.2470   27.3580    3.8990 C.ar  801  HEM801      0.0000
     24  C3C       28.4210   26.4760    4.9460 C.ar  801  HEM801      0.0000
     25  C4C       29.8800   26.2000    4.9760 C.ar  801  HEM801      0.0000
     26  CMC       26.9170   27.9800    3.4070 C.3   801  HEM801      0.0000
     27  CAC       27.4030   25.9540    5.7850 C.3   801  HEM801      0.0000
     28  CBC       26.5900   26.6780    6.6350 C.3   801  HEM801      0.0000
     29  C1D       31.9760   25.0890    5.9090 C.2   801  HEM801      0.0000
     30  C2D       32.6370   24.1560    6.7970 C.2   801  HEM801      0.0000
     31  C3D       33.9990   24.2120    6.5420 C.2   801  HEM801      0.0000
     32  C4D       34.1570   25.1880    5.5000 C.2   801  HEM801      0.0000
     33  CMD       31.9500   23.2650    7.8240 C.3   801  HEM801      0.0000
     34  CAD       35.1330   23.3920    7.2100 C.3   801  HEM801      0.0000
     35  CBD       35.3770   22.0340    6.5160 C.3   801  HEM801      0.0000
     36  CGD       36.8380   21.5440    6.4620 C.2   801  HEM801      0.0000
     37  O1D       37.0880   20.4590    5.9260 O.co2 801  HEM801      0.0000
     38  O2D       37.7340   22.2410    6.9610 O.co2 801  HEM801      0.0000
     39  NA        34.6160   27.0140    3.1880 N.ar  801  HEM801      0.0000
     40  NB        32.2580   28.1920    2.0410 N.2   801  HEM801      0.0000
     41  NC        30.5240   26.9030    3.9780 N.ar  801  HEM801      0.0000
     42  ND        32.9150   25.7110    5.1090 N.2   801  HEM801      0.0000
     43 FE         32.6220   27.0360    3.7140 Fe    801  HEM801      0.0000
@<TRIPOS>BOND
     1    21    20    1
     2    19    16    1
     3    20    17    1
     4    16    17    2
     5    16    15    1
     6    17    18    1
     7    15     2    1
     8    15    40    2
     9     2     8    2
    10     9     7    1
    11    18    40    1
    12    18     3    2
    13    40    43    1
    14     8     7   ar
    15     8    39   ar
    16     3    22    1
    17     7     6   ar
    18    39    43    1
    19    39     5   ar
    20    22    23   ar
    21    22    41   ar
    22     6    10    1
    23     6     5   ar
    24    26    23    1
    25    43    41    1
    26    43    42    1
    27    10    11    1
    28     5     1    2
    29    23    24   ar
    30    13    12   ar
    31    41    25   ar
    32    11    12    1
    33    12    14   ar
    34    24    25   ar
    35    24    27    1
    36     1    32    1
    37    25     4    1
    38    42    32    2
    39    42    29    1
    40    32    31    1
    41    27    28    1
    42     4    29    2
    43    29    30    1
    44    37    36   ar
    45    36    35    1
    46    36    38   ar
    47    35    34    1
    48    31    30    2
    49    31    34    1
    50    30    33    1
