@<TRIPOS>MOLECULE
3ayf_LOP_A_1.pdb
 45 44 0 0 0
SMALL
GASTEIGER

@<TRIPOS>ATOM
      1  N1         0.8680    4.8870   27.0720 N.3   809  LOP809     -0.1286
      2  C1         2.2700    5.3180   27.1850 C.3   809  LOP809      0.1417
      3  C2         2.8030    4.9540   28.5720 C.3   809  LOP809      0.1696
      4  O1         4.1180    5.4860   28.7520 O.3   809  LOP809     -0.3125
      5  P1         5.2870    5.1650   27.6940 P.3   809  LOP809      0.2141
      6  O2         6.2910    4.1240   28.4000 O.3   809  LOP809     -0.3100
      7  O3         6.1030    6.5410   27.5290 O.3   809  LOP809     -0.4373
      8  O4         4.7620    4.6730   26.4020 O.2   809  LOP809     -0.5172
      9  C3         7.5620    3.8260   27.8150 C.3   809  LOP809      0.1964
     10  C4         8.3840    5.0930   27.5700 C.3   809  LOP809      0.2420
     11  C5         8.7280    5.7680   28.8880 C.3   809  LOP809      0.2543
     12  O5         9.5920    4.7830   26.8620 O.3   809  LOP809     -0.4457
     13  O6         9.5220    6.9510   28.7280 O.3   809  LOP809     -0.4444
     14  C6        10.0860    5.9440   26.3570 C.2   809  LOP809      0.3171
     15  O7         9.4010    6.9650   26.4050 O.2   809  LOP809     -0.2501
     16  C7        11.4670    5.9680   25.7020 C.3   809  LOP809      0.1096
     17  C8        11.5600    7.1060   24.6850 C.3   809  LOP809      0.0116
     18  C9        13.0190    7.5060   24.4650 C.3   809  LOP809      0.0006
     19  C10       13.1160    8.7190   23.5380 C.3   809  LOP809      0.0000
     20  C11       14.5460    9.2600   23.5680 C.3   809  LOP809      0.0003
     21  C12       14.8060   10.2450   22.4290 C.3   809  LOP809      0.0047
     22  C13       16.2410   10.7540   22.5650 C.3   809  LOP809      0.0257
     23  C14       16.6430   11.4490   21.4320 C.2   809  LOP809     -0.0307
     24  C15       17.8790   12.0850   21.4200 C.2   809  LOP809     -0.0307
     25  C16       18.7060   12.0290   22.5360 C.3   809  LOP809      0.0257
     26  C17       19.7190   10.8830   22.4520 C.3   809  LOP809      0.0047
     27  C18       20.5320   10.8050   23.7460 C.3   809  LOP809      0.0003
     28  C19       21.6020    9.7100   23.7250 C.3   809  LOP809      0.0000
     29  C20       22.6760    9.9790   22.6690 C.3   809  LOP809      0.0000
     30  C21       23.9390    9.1550   22.9350 C.3   809  LOP809      0.0000
     31  C22       24.5670    9.5460   24.2750 C.3   809  LOP809      0.0000
     32  C23       25.9130    8.8520   24.4970 C.3   809  LOP809      0.0000
     33  C24        9.8300    7.4480   29.9560 C.2   809  LOP809      0.3171
     34  O8         9.1810    7.1340   30.9530 O.2   809  LOP809     -0.2501
     35  C25       10.9440    8.4890   30.0480 C.3   809  LOP809      0.1096
     36  C26       12.2160    7.8590   29.4770 C.3   809  LOP809      0.0116
     37  C27       12.6260    8.5650   28.1840 C.3   809  LOP809      0.0006
     38  C28       13.0000   10.0220   28.4590 C.3   809  LOP809      0.0000
     39  C29       14.0890   10.1430   29.5270 C.3   809  LOP809      0.0000
     40  C30       14.8630   11.4420   29.3010 C.3   809  LOP809      0.0000
     41  C31       15.6690   11.3090   28.0080 C.3   809  LOP809      0.0000
     42  C32       16.3550   12.6220   27.6280 C.3   809  LOP809      0.0000
     43  C33       17.8170   12.3750   27.2540 C.3   809  LOP809      0.0000
     44  C34       18.4060   13.6010   26.5530 C.3   809  LOP809      0.0000
     45  C35       19.6580   14.1100   27.2690 C.3   809  LOP809      0.0000
@<TRIPOS>BOND
     1    24    23    2
     2    24    25    1
     3    23    22    1
     4    21    22    1
     5    21    20    1
     6    26    25    1
     7    26    27    1
     8    29    30    1
     9    29    28    1
    10    30    31    1
    11    19    20    1
    12    19    18    1
    13    28    27    1
    14    31    32    1
    15    18    17    1
    16    17    16    1
    17    16    14    1
    18    14    15    2
    19    14    12    1
    20     8     5    2
    21    44    43    1
    22    44    45    1
    23    12    10    1
    24     1     2    1
    25     2     3    1
    26    43    42    1
    27     7     5    1
    28    10     9    1
    29    10    11    1
    30    42    41    1
    31     5     6    1
    32     5     4    1
    33     9     6    1
    34    41    40    1
    35    37    38    1
    36    37    36    1
    37    38    39    1
    38     3     4    1
    39    13    11    1
    40    13    33    1
    41    40    39    1
    42    36    35    1
    43    33    35    1
    44    33    34    2
