@<TRIPOS>MOLECULE
3ayg_HEM_A_1.pdb
 43 50 0 0 0
SMALL
GASTEIGER

@<TRIPOS>ATOM
      1  CHA       35.3560   25.5650    5.0390 C.2   801  HEM801      0.0000
      2  CHB       34.5570   28.5510    1.3760 C.2   801  HEM801      0.0000
      3  CHC       29.7600   28.4660    2.3000 C.2   801  HEM801      0.0000
      4  CHD       30.5000   25.3550    5.9470 C.2   801  HEM801      0.0000
      5  C1A       35.6080   26.4340    3.9840 C.ar  801  HEM801      0.0000
      6  C2A       36.9420   26.7920    3.4330 C.ar  801  HEM801      0.0000
      7  C3A       36.6660   27.6180    2.3830 C.ar  801  HEM801      0.0000
      8  C4A       35.2230   27.7790    2.3140 C.ar  801  HEM801      0.0000
      9  CMA       37.6870   28.2620    1.4390 C.3   801  HEM801      0.0000
     10  CAA       38.3560   26.3720    3.8700 C.3   801  HEM801      0.0000
     11  CBA       38.6130   25.0550    4.5800 C.3   801  HEM801      0.0000
     12  CGA       40.1130   24.9360    4.9140 C.2   801  HEM801      0.0000
     13  O1A       40.9800   25.0700    4.0120 O.co2 801  HEM801      0.0000
     14  O2A       40.4240   24.7120    6.0870 O.co2 801  HEM801      0.0000
     15  C1B       33.1730   28.7630    1.2930 C.2   801  HEM801      0.0000
     16  C2B       32.5380   29.5690    0.2620 C.2   801  HEM801      0.0000
     17  C3B       31.1600   29.5630    0.5080 C.2   801  HEM801      0.0000
     18  C4B       30.9960   28.7450    1.6950 C.2   801  HEM801      0.0000
     19  CMB       33.2990   30.2840   -0.8840 C.3   801  HEM801      0.0000
     20  CAB       30.1240   30.2220   -0.2660 C.3   801  HEM801      0.0000
     21  CBB       30.1780   31.4740   -0.9430 C.3   801  HEM801      0.0000
     22  C1C       29.5190   27.6420    3.4080 C.ar  801  HEM801      0.0000
     23  C2C       28.2030   27.4100    3.9690 C.ar  801  HEM801      0.0000
     24  C3C       28.3600   26.5170    5.0110 C.ar  801  HEM801      0.0000
     25  C4C       29.8230   26.2310    5.0580 C.ar  801  HEM801      0.0000
     26  CMC       26.8910   28.0380    3.4680 C.3   801  HEM801      0.0000
     27  CAC       27.3290   25.9990    5.8260 C.3   801  HEM801      0.0000
     28  CBC       26.6140   26.7110    6.7690 C.3   801  HEM801      0.0000
     29  C1D       31.9140   25.1140    5.9890 C.2   801  HEM801      0.0000
     30  C2D       32.5850   24.1780    6.8810 C.2   801  HEM801      0.0000
     31  C3D       33.9350   24.2360    6.6250 C.2   801  HEM801      0.0000
     32  C4D       34.1030   25.2170    5.5770 C.2   801  HEM801      0.0000
     33  CMD       31.9180   23.2830    7.9140 C.3   801  HEM801      0.0000
     34  CAD       35.0480   23.4130    7.3010 C.3   801  HEM801      0.0000
     35  CBD       35.3260   22.1080    6.5430 C.3   801  HEM801      0.0000
     36  CGD       36.7910   21.6330    6.5520 C.2   801  HEM801      0.0000
     37  O1D       37.0860   20.5810    5.9610 O.co2 801  HEM801      0.0000
     38  O2D       37.6420   22.3060    7.1550 O.co2 801  HEM801      0.0000
     39  NA        34.6050   27.0600    3.2940 N.ar  801  HEM801      0.0000
     40  NB        32.2430   28.2510    2.1660 N.2   801  HEM801      0.0000
     41  NC        30.4780   26.9380    4.0760 N.ar  801  HEM801      0.0000
     42  ND        32.8570   25.7440    5.1810 N.2   801  HEM801      0.0000
     43 FE         32.5910   27.0670    3.8370 Fe    801  HEM801      0.0000
@<TRIPOS>BOND
     1    21    20    1
     2    19    16    1
     3    20    17    1
     4    16    17    2
     5    16    15    1
     6    17    18    1
     7    15     2    1
     8    15    40    2
     9     2     8    2
    10     9     7    1
    11    18    40    1
    12    18     3    2
    13    40    43    1
    14     3    22    1
    15     8     7   ar
    16     8    39   ar
    17     7     6   ar
    18    39    43    1
    19    39     5   ar
    20    22    23   ar
    21    22    41   ar
    22     6    10    1
    23     6     5   ar
    24    26    23    1
    25    43    41    1
    26    43    42    1
    27    10    11    1
    28    23    24   ar
    29     5     1    2
    30    13    12   ar
    31    41    25   ar
    32    11    12    1
    33    12    14   ar
    34    24    25   ar
    35    24    27    1
    36     1    32    1
    37    25     4    1
    38    42    32    2
    39    42    29    1
    40    32    31    1
    41    27    28    1
    42     4    29    2
    43    37    36   ar
    44    29    30    1
    45    35    36    1
    46    35    34    1
    47    36    38   ar
    48    31    30    2
    49    31    34    1
    50    30    33    1
