@<TRIPOS>MOLECULE
3ayg_LOP_A_1.pdb
 45 44 0 0 0
SMALL
GASTEIGER

@<TRIPOS>ATOM
      1  N1         0.8430    4.6960   27.0210 N.3   809  LOP809     -0.1286
      2  C1         2.1550    5.3200   27.2380 C.3   809  LOP809      0.1417
      3  C2         2.7430    4.8400   28.5680 C.3   809  LOP809      0.1696
      4  O1         4.0410    5.4100   28.7600 O.3   809  LOP809     -0.3125
      5  P1         5.2310    5.1060   27.7140 P.3   809  LOP809      0.2141
      6  O2         6.2440    4.0740   28.4280 O.3   809  LOP809     -0.3100
      7  O3         6.0390    6.4930   27.5760 O.3   809  LOP809     -0.4373
      8  O4         4.7370    4.6020   26.4150 O.2   809  LOP809     -0.5172
      9  C3         7.5110    3.7890   27.8270 C.3   809  LOP809      0.1964
     10  C4         8.3070    5.0770   27.6000 C.3   809  LOP809      0.2420
     11  C5         8.5390    5.7590   28.9380 C.3   809  LOP809      0.2543
     12  O5         9.5760    4.7910   26.9930 O.3   809  LOP809     -0.4457
     13  O6         9.4960    6.8160   28.7710 O.3   809  LOP809     -0.4444
     14  C6        10.0270    5.9220   26.3840 C.2   809  LOP809      0.3171
     15  O7         9.3190    6.9280   26.3730 O.2   809  LOP809     -0.2501
     16  C7        11.4000    5.9480   25.7130 C.3   809  LOP809      0.1096
     17  C8        11.5130    7.1550   24.7790 C.3   809  LOP809      0.0116
     18  C9        12.9810    7.5060   24.5390 C.3   809  LOP809      0.0006
     19  C10       13.1190    8.6950   23.5840 C.3   809  LOP809      0.0000
     20  C11       14.5620    9.1980   23.5900 C.3   809  LOP809      0.0003
     21  C12       14.8190   10.1990   22.4610 C.3   809  LOP809      0.0047
     22  C13       16.2610   10.6970   22.5470 C.3   809  LOP809      0.0257
     23  C14       16.6250   11.4410   21.4300 C.2   809  LOP809     -0.0307
     24  C15       17.8460   12.1040   21.4270 C.2   809  LOP809     -0.0307
     25  C16       18.6790   12.0200   22.5360 C.3   809  LOP809      0.0257
     26  C17       19.6870   10.8710   22.4370 C.3   809  LOP809      0.0047
     27  C18       20.4940   10.7860   23.7350 C.3   809  LOP809      0.0003
     28  C19       21.5700    9.6980   23.7100 C.3   809  LOP809      0.0000
     29  C20       22.6360    9.9720   22.6450 C.3   809  LOP809      0.0000
     30  C21       23.8910    9.1330   22.8930 C.3   809  LOP809      0.0000
     31  C22       24.5150    9.4870   24.2470 C.3   809  LOP809      0.0000
     32  C23       25.8370    8.7520   24.4730 C.3   809  LOP809      0.0000
     33  C24        9.7380    7.4400   29.9560 C.2   809  LOP809      0.3171
     34  O8         9.0980    7.1300   30.9600 O.2   809  LOP809     -0.2501
     35  C25       10.8080    8.5310   30.0150 C.3   809  LOP809      0.1096
     36  C26       12.1660    7.9350   29.6370 C.3   809  LOP809      0.0116
     37  C27       12.6530    8.4270   28.2720 C.3   809  LOP809      0.0006
     38  C28       13.0320    9.9090   28.3240 C.3   809  LOP809      0.0000
     39  C29       13.9800   10.1830   29.4930 C.3   809  LOP809      0.0000
     40  C30       14.7380   11.4970   29.2880 C.3   809  LOP809      0.0000
     41  C31       15.7590   11.3360   28.1620 C.3   809  LOP809      0.0000
     42  C32       16.5550   12.6210   27.9070 C.3   809  LOP809      0.0000
     43  C33       17.6970   12.3360   26.9310 C.3   809  LOP809      0.0000
     44  C34       18.4310   13.6000   26.4730 C.3   809  LOP809      0.0000
     45  C35       19.3790   14.1530   27.5380 C.3   809  LOP809      0.0000
@<TRIPOS>BOND
     1    24    23    2
     2    24    25    1
     3    23    22    1
     4    26    25    1
     5    26    27    1
     6    21    22    1
     7    21    20    1
     8    29    30    1
     9    29    28    1
    10    30    31    1
    11    19    20    1
    12    19    18    1
    13    28    27    1
    14    31    32    1
    15    18    17    1
    16    17    16    1
    17    16    14    1
    18    15    14    2
    19    14    12    1
    20     8     5    2
    21    44    43    1
    22    44    45    1
    23    43    42    1
    24    12    10    1
    25     1     2    1
    26     2     3    1
    27     7     5    1
    28    10     9    1
    29    10    11    1
    30     5     6    1
    31     5     4    1
    32     9     6    1
    33    42    41    1
    34    41    40    1
    35    37    38    1
    36    37    36    1
    37    38    39    1
    38     3     4    1
    39    13    11    1
    40    13    33    1
    41    40    39    1
    42    36    35    1
    43    33    35    1
    44    33    34    2
