@<TRIPOS>MOLECULE
3ayg_HQO_A_1.pdb
 19 20 0 0 0
SMALL
GASTEIGER

@<TRIPOS>ATOM
      1  C1        35.2160   33.8540   -4.3630 C.2   811  HQO811      0.1950
      2  O1        34.3010   32.9200   -3.9830 O.2   811  HQO811     -0.2868
      3  C2        34.9450   35.1950   -4.1850 C.2   811  HQO811      0.0566
      4  C3        35.9040   36.1470   -4.5060 C.2   811  HQO811      0.0665
      5  N1        37.1480   35.7470   -5.0170 N.4   811  HQO811     -0.2042
      6  O4        38.0980   36.6850   -5.3400 O.3   811  HQO811     -0.0839
      7  C5        37.4140   34.3880   -5.2020 C.3   811  HQO811      0.1593
      8  C6        38.6420   33.9870   -5.7190 C.2   811  HQO811      0.0028
      9  C7        38.8990   32.6320   -5.9180 C.2   811  HQO811     -0.0023
     10  C8        37.9330   31.6910   -5.5980 C.2   811  HQO811     -0.0004
     11  C9        36.7050   32.0950   -5.0770 C.2   811  HQO811      0.0011
     12  C10       36.4510   33.4410   -4.8800 C.2   811  HQO811      0.0435
     13  C11       35.6270   37.6220   -4.2080 C.3   811  HQO811      0.0461
     14  C12       35.8190   39.0060   -2.1200 C.3   811  HQO811      0.0004
     15  C13       36.5600   38.0870   -3.0940 C.3   811  HQO811      0.0063
     16  C14       35.5350   38.3000   -0.7940 C.3   811  HQO811      0.0000
     17  C15       34.7980   39.2510    0.1510 C.3   811  HQO811      0.0000
     18  C16       35.5890   39.4600    1.4440 C.3   811  HQO811      0.0000
     19  C17       34.9220   40.5240    2.3190 C.3   811  HQO811      0.0000
@<TRIPOS>BOND
     1     9     8    2
     2     9    10    1
     3     8     7    1
     4    10    11    2
     5     6     5    1
     6     7     5    1
     7     7    12    1
     8    11    12    1
     9     5     4    1
    10    12     1    2
    11     4    13    1
    12     4     3    2
    13     1     3    1
    14     1     2    1
    15    13    15    1
    16    15    14    1
    17    14    16    1
    18    16    17    1
    19    17    18    1
    20    18    19    1
