@<TRIPOS>MOLECULE
3ayi_HCI_A_1.pdb
 11 11 0 0 0
SMALL
GASTEIGER

@<TRIPOS>ATOM
      1  C1        98.4430   55.3620   91.1710 C.2   907  HCI907      0.3652
      2  O1        98.1740   54.2660   90.6310 O.co2 907  HCI907     -0.2456
      3  O2        98.5990   56.3860   90.4130 O.co2 907  HCI907     -0.2456
      4  C2        98.6770   55.5370   92.6060 C.3   907  HCI907      0.1187
      5  C3        97.5590   54.9130   93.5270 C.3   907  HCI907      0.0382
      6  C1'       96.2900   55.8160   93.4190 C.ar  907  HCI907     -0.0216
      7  C2'       95.3530   55.5330   92.4540 C.ar  907  HCI907     -0.0043
      8  C3'       94.2440   56.3320   92.3440 C.ar  907  HCI907     -0.0003
      9  C4'       94.0460   57.3960   93.1990 C.ar  907  HCI907     -0.0000
     10  C5'       94.9940   57.6620   94.1830 C.ar  907  HCI907     -0.0003
     11  C6'       96.1290   56.8450   94.2950 C.ar  907  HCI907     -0.0043
@<TRIPOS>BOND
     1     3     1   ar
     2     2     1   ar
     3     1     4    1
     4     8     7   ar
     5     8     9   ar
     6     7     6   ar
     7     4     5    1
     8     9    10   ar
     9     6     5    1
    10     6    11   ar
    11    10    11   ar
