@<TRIPOS>MOLECULE
3ayj_PHE_A_1.pdb
 12 12 0 0 0
SMALL
GASTEIGER

@<TRIPOS>ATOM
      1  N         98.9640   56.4150   93.2340 N.3   904  PHE904     -0.1205
      2  CA        98.2500   55.2860   92.7240 C.3   904  PHE904      0.1986
      3  C         98.0810   55.3570   91.2250 C.2   904  PHE904      0.3822
      4  O         97.6720   54.3240   90.6140 O.co2 904  PHE904     -0.2440
      5  CB        97.0030   54.9340   93.5200 C.3   904  PHE904      0.0569
      6  CG        95.9000   55.9390   93.3670 C.ar  904  PHE904     -0.0202
      7  CD1       94.9680   55.8300   92.3290 C.ar  904  PHE904     -0.0042
      8  CD2       95.7660   56.9540   94.2520 C.ar  904  PHE904     -0.0042
      9  CE1       93.9770   56.7570   92.2170 C.ar  904  PHE904     -0.0003
     10  CE2       94.7490   57.8900   94.1260 C.ar  904  PHE904     -0.0003
     11  CZ        93.8550   57.7850   93.1090 C.ar  904  PHE904     -0.0000
     12  OXT       98.3680   56.4290   90.6430 O.co2 904  PHE904     -0.2440
@<TRIPOS>BOND
     1     4     3   ar
     2    12     3   ar
     3     3     2    1
     4     9     7   ar
     5     9    11   ar
     6     7     6   ar
     7     2     1    1
     8     2     5    1
     9    11    10   ar
    10     6     5    1
    11     6     8   ar
    12    10     8   ar
