@<TRIPOS>MOLECULE
3ayk_CGS_A_1.pdb
 50 51 0 0 0
SMALL
GASTEIGER

@<TRIPOS>ATOM
      1  N1         3.4980   -3.8380    0.3750 N.3   173  CGS173     -0.1632
      2  CC         4.0360   -5.1220    0.9240 C.3   173  CGS173      0.0375
      3  CA         2.1020   -3.7200   -0.1360 C.3   173  CGS173      0.1121
      4  S4         4.6920   -2.8640   -0.5100 S.O2  173  CGS173      0.0616
      5  C5         4.2740   -5.2650    2.4220 C.3   173  CGS173      0.0658
      6  CD         5.2000   -4.4600    3.0820 C.2   173  CGS173     -0.0668
      7  CE         5.3970   -4.6120    4.4490 C.2   173  CGS173     -0.0347
      8  CZ         4.6570   -5.5720    5.1250 C.2   173  CGS173      0.0772
      9  N11        3.7670   -6.3560    4.5310 N.2   173  CGS173     -0.4231
     10  CY         3.5900   -6.1950    3.2090 C.2   173  CGS173      0.0676
     11  C17        4.9900   -3.5620   -2.1310 C.ar  173  CGS173      0.1057
     12  CE2        5.8060   -4.6720   -2.2880 C.ar  173  CGS173     -0.0319
     13  CD2        5.9460   -5.2710   -3.5390 C.ar  173  CGS173     -0.0181
     14  C20        5.2720   -4.7660   -4.6560 C.ar  173  CGS173      0.1202
     15  CD1        4.4630   -3.6400   -4.4770 C.ar  173  CGS173     -0.0181
     16  CE1        4.3310   -3.0470   -3.2290 C.ar  173  CGS173     -0.0319
     17  O27        5.4030   -5.3680   -5.9180 O.3   173  CGS173     -0.4951
     18  COM        6.5810   -5.0580   -6.6520 C.3   173  CGS173      0.0788
     19  O32        5.8610   -2.9750    0.3040 O.2   173  CGS173     -0.1528
     20  O33        4.0270   -1.6050   -0.6360 O.2   173  CGS173     -0.1528
     21  C34        1.9230   -4.6400   -1.3470 C.2   173  CGS173      0.2546
     22  N35        1.7320   -4.0220   -2.4990 N.am  173  CGS173     -0.1961
     23  CB         0.8760   -3.7660    0.8140 C.3   173  CGS173     -0.0209
     24  CG2       -0.1220   -2.6370    0.5650 C.3   173  CGS173     -0.0607
     25  CG1        1.2390   -3.7280    2.2930 C.3   173  CGS173     -0.0607
     26  O47        1.9440   -5.8730   -1.2810 O.2   173  CGS173     -0.2719
     27  O48        1.5570   -4.7600   -3.6490 O.3   173  CGS173     -0.2951
     28  HC1        3.3570   -5.9150    0.6070 H     173  CGS173      0.0457
     29  HC2        4.9740   -5.3250    0.4050 H     173  CGS173      0.0457
     30  HA         2.0390   -2.7110   -0.5450 H     173  CGS173      0.0579
     31  HD         5.7690   -3.7170    2.5460 H     173  CGS173      0.0583
     32  HE         6.1120   -3.9960    4.9810 H     173  CGS173      0.0640
     33  HZ         4.7780   -5.7230    6.1820 H     173  CGS173      0.0969
     34  HY         2.8680   -6.8360    2.7430 H     173  CGS173      0.0931
     35  HE2        6.3270   -5.0690   -1.4330 H     173  CGS173      0.0638
     36  HD2        6.5880   -6.1420   -3.6310 H     173  CGS173      0.0655
     37  HD1        3.9240   -3.2110   -5.3120 H     173  CGS173      0.0655
     38  HE1        3.7050   -2.1790   -3.1040 H     173  CGS173      0.0638
     39 HOM1        7.3570   -4.6580   -6.0020 H     173  CGS173      0.0660
     40 HOM2        6.9810   -5.9450   -7.1420 H     173  CGS173      0.0660
     41 HOM3        6.3780   -4.3160   -7.4230 H     173  CGS173      0.0660
     42  H49        1.7240   -3.0120   -2.4860 H     173  CGS173      0.1822
     43  HB         0.3350   -4.6910    0.6560 H     173  CGS173      0.0316
     44 HG21       -0.8360   -2.9170   -0.2070 H     173  CGS173      0.0233
     45 HG22        0.3900   -1.7340    0.2400 H     173  CGS173      0.0233
     46 HG23       -0.6770   -2.4030    1.4700 H     173  CGS173      0.0233
     47 HG11        1.3740   -4.7350    2.6840 H     173  CGS173      0.0233
     48 HG12        0.4530   -3.2440    2.8710 H     173  CGS173      0.0233
     49 HG13        2.1630   -3.1770    2.4510 H     173  CGS173      0.0233
     50  H50        0.6240   -4.8110   -3.9230 H     173  CGS173      0.2414
@<TRIPOS>BOND
     1    41    18    1
     2    40    18    1
     3    18    39    1
     4    18    17    1
     5    17    14    1
     6    37    15    1
     7    14    15   ar
     8    14    13   ar
     9    15    16   ar
    10    50    27    1
    11    27    22    1
    12    36    13    1
    13    13    12   ar
    14    16    38    1
    15    16    11   ar
    16    22    42    1
    17    22    21   am
    18    12    11   ar
    19    12    35    1
    20    11     4    1
    21    21    26    2
    22    21     3    1
    23    20     4    2
    24    30     3    1
    25     4    19    2
    26     4     1    1
    27    44    24    1
    28     3     1    1
    29     3    23    1
    30    45    24    1
    31     1     2    1
    32    29     2    1
    33    24    23    1
    34    24    46    1
    35    28     2    1
    36    43    23    1
    37    23    25    1
    38     2     5    1
    39    25    49    1
    40    25    47    1
    41    25    48    1
    42     5     6    1
    43     5    10    1
    44    31     6    1
    45    34    10    1
    46     6     7    2
    47    10     9    2
    48     7    32    1
    49     7     8    1
    50     9     8    2
    51     8    33    1
