@<TRIPOS>MOLECULE
3aym_RET_A_1.pdb
 20 20 0 0 0
SMALL
GASTEIGER

@<TRIPOS>ATOM
      1  C1        19.2660   44.7250   61.1430 C.3   1000  RET1000     0.0183
      2  C2        20.3910   44.0670   62.0260 C.3   1000  RET1000     0.0044
      3  C3        19.9670   43.3450   63.1770 C.3   1000  RET1000     0.0047
      4  C4        18.9820   44.1090   64.0320 C.3   1000  RET1000     0.0217
      5  C5        17.7690   44.6150   63.2670 C.2   1000  RET1000    -0.0479
      6  C6        17.8660   44.8800   61.9410 C.2   1000  RET1000    -0.0307
      7  C7        16.7440   45.2840   61.0340 C.2   1000  RET1000    -0.0052
      8  C8        15.6810   44.5380   60.9070 C.2   1000  RET1000    -0.0049
      9  C9        14.7120   44.6220   59.8540 C.2   1000  RET1000    -0.0261
     10  C10       13.9190   43.5260   59.8350 C.2   1000  RET1000    -0.0300
     11  C11       13.0530   42.9970   58.8240 C.3   1000  RET1000     0.0300
     12  C12       12.6280   41.7460   59.0600 C.3   1000  RET1000     0.0264
     13  C13       12.1060   40.7940   58.1260 C.2   1000  RET1000    -0.0478
     14  C14       11.5040   39.6910   58.5780 C.2   1000  RET1000    -0.0342
     15  C15       11.0300   38.6460   57.6850 C.3   1000  RET1000     0.0300
     16  C16       19.8140   46.1350   60.8060 C.3   1000  RET1000     0.0043
     17  C17       19.1290   43.9660   59.8290 C.3   1000  RET1000     0.0043
     18  C18       16.5420   44.7640   64.1290 C.3   1000  RET1000     0.0260
     19  C19       14.8810   45.6380   58.7780 C.3   1000  RET1000     0.0307
     20  C20       12.4040   41.0120   56.6700 C.3   1000  RET1000     0.0260
@<TRIPOS>BOND
     1    20    13    1
     2    15    14    1
     3    13    14    2
     4    13    12    1
     5    19     9    1
     6    11    12    1
     7    11    10    1
     8    17     1    1
     9    10     9    2
    10     9     8    1
    11    16     1    1
    12     8     7    2
    13     7     6    1
    14     1     6    1
    15     1     2    1
    16     6     5    2
    17     2     3    1
    18     3     4    1
    19     5     4    1
    20     5    18    1
