@<TRIPOS>MOLECULE
3ayn_RET_A_1.pdb
 20 20 0 0 0
SMALL
GASTEIGER

@<TRIPOS>ATOM
      1  C1        19.1670   44.8140   60.6260 C.3   1000  RET1000     0.0183
      2  C2        20.1920   44.1850   61.6150 C.3   1000  RET1000     0.0044
      3  C3        19.6310   43.2030   62.6190 C.3   1000  RET1000     0.0047
      4  C4        18.4580   43.7990   63.3860 C.3   1000  RET1000     0.0217
      5  C5        17.3900   44.4210   62.4980 C.2   1000  RET1000    -0.0479
      6  C6        17.6910   44.8900   61.2320 C.2   1000  RET1000    -0.0307
      7  C7        16.6170   45.5240   60.3330 C.2   1000  RET1000    -0.0052
      8  C8        15.5630   44.9290   59.7670 C.2   1000  RET1000    -0.0046
      9  C9        14.4740   45.4870   58.9360 C.2   1000  RET1000    -0.0219
     10  C10       13.4860   44.7330   58.4300 C.2   1000  RET1000    -0.0043
     11  C11       13.3600   43.3170   58.5590 C.2   1000  RET1000    -0.0007
     12  C12       12.3540   42.5130   58.1410 C.2   1000  RET1000    -0.0046
     13  C13       12.3520   41.0820   58.2650 C.2   1000  RET1000    -0.0261
     14  C14       11.2610   40.3450   57.8620 C.2   1000  RET1000    -0.0300
     15  C15       11.2020   38.9130   57.9590 C.3   1000  RET1000     0.0304
     16  C16       19.7010   46.2100   60.2870 C.3   1000  RET1000     0.0043
     17  C17       19.1650   44.0070   59.3150 C.3   1000  RET1000     0.0043
     18  C18       16.0510   44.4470   63.1680 C.3   1000  RET1000     0.0260
     19  C19       14.4530   46.9790   58.6740 C.3   1000  RET1000     0.0310
     20  C20       13.5840   40.4130   58.8610 C.3   1000  RET1000     0.0307
@<TRIPOS>BOND
     1    14    15    1
     2    14    13    2
     3    12    13    1
     4    12    11    2
     5    13    20    1
     6    10    11    1
     7    10     9    2
     8    19     9    1
     9     9     8    1
    10    17     1    1
    11     8     7    2
    12    16     1    1
    13     7     6    1
    14     1     6    1
    15     1     2    1
    16     6     5    2
    17     2     3    1
    18     5    18    1
    19     5     4    1
    20     3     4    1
