@<TRIPOS>MOLECULE
3ayq_4NN_A_1.pdb
 14 14 0 0 0
SMALL
GASTEIGER

@<TRIPOS>ATOM
      1  C1        16.8240   -6.9270  -16.7440 C.2   126  4NN126      0.3528
      2  O1        16.4960   -7.8580  -17.4540 O.2   126  4NN126     -0.2438
      3  C2        16.2540   -5.7020  -16.9960 C.2   126  4NN126      0.1290
      4  N2        15.2920   -5.6430  -17.9650 N.am  126  4NN126     -0.1770
      5  C3        16.7600   -4.6240  -16.2680 C.3   126  4NN126      0.0867
      6  C4        17.8280   -4.8470  -15.1610 C.3   126  4NN126      0.2003
      7  O4        19.1430   -4.5370  -15.4890 O.3   126  4NN126     -0.2188
      8  C5        17.8320   -6.3390  -14.7090 C.3   126  4NN126      0.2323
      9  O5        17.8130   -7.1190  -15.8770 O.3   126  4NN126     -0.4431
     10  C6        16.8510   -6.7440  -13.5990 C.3   126  4NN126      0.2281
     11  O6        15.7560   -5.8840  -13.5880 O.3   126  4NN126     -0.2163
     12  C7        14.6280   -4.5320  -18.2640 C.2   126  4NN126      0.2460
     13  O7        14.8630   -3.4700  -17.7280 O.2   126  4NN126     -0.2730
     14  C8        13.5480   -4.6210  -19.3760 C.3   126  4NN126      0.0968
@<TRIPOS>BOND
     1    14    12    1
     2    12     4    1
     3    12    13    2
     4     4     3    2
     5     2     1    2
     6     3     1    1
     7     3     5    1
     8     1     9    1
     9     5     6    1
    10     9     8    1
    11     7     6    1
    12     6     8    1
    13     8    10    1
    14    10    11    1
