@<TRIPOS>MOLECULE
3ays_CT3_A_1.pdb
 34 36 0 0 0
SMALL
GASTEIGER

@<TRIPOS>ATOM
      1  C1A        2.1940   35.5520   -9.1730 C.3   901  CT3901      0.3023
      2  C2A        2.9610   34.5630   -8.2400 C.3   901  CT3901      0.2433
      3  C3A        3.9570   35.2340   -7.2890 C.3   901  CT3901      0.2168
      4  C4A        4.7550   36.3060   -8.0220 C.3   901  CT3901      0.1804
      5  C5A        3.6770   37.3080   -8.4690 C.3   901  CT3901      0.1804
      6  C6A        4.2590   38.6640   -8.8960 C.3   901  CT3901      0.2141
      7  O1X        1.7300   34.8690  -10.3620 O.3   901  CT3901     -0.1869
      8  O2A        2.0200   33.7480   -7.4840 O.3   901  CT3901     -0.2148
      9  O3A        4.8400   34.1980   -6.8540 O.3   901  CT3901     -0.2175
     10  O4A        5.6940   36.9890   -7.1910 O.3   901  CT3901     -0.3257
     11  O5A        3.0500   36.6310   -9.5650 O.3   901  CT3901     -0.3237
     12  O6A        5.1260   38.3750  -10.0230 O.3   901  CT3901     -0.2176
     13  C1B        6.9810   36.9840   -7.7580 C.3   901  CT3901      0.2695
     14  C2B        7.8280   37.7490   -6.7630 C.3   901  CT3901      0.2404
     15  C3B        9.2470   37.8150   -7.3200 C.3   901  CT3901      0.2167
     16  C4B        9.7960   36.4290   -7.5270 C.3   901  CT3901      0.1804
     17  C5B        8.8020   35.7110   -8.4310 C.3   901  CT3901      0.1803
     18  C6B        9.2920   34.3470   -8.8960 C.3   901  CT3901      0.2141
     19  O2B        7.3730   39.0990   -6.5030 O.3   901  CT3901     -0.2149
     20  O3B       10.0560   38.5440   -6.4030 O.3   901  CT3901     -0.2175
     21  O4B       11.0380   36.6140   -8.2040 O.3   901  CT3901     -0.3257
     22  O5B        7.4970   35.6330   -7.8300 O.3   901  CT3901     -0.3257
     23  O6B        8.2440   33.9350   -9.8000 O.3   901  CT3901     -0.2176
     24  C1C       12.1520   35.8980   -7.7170 C.3   901  CT3901      0.2695
     25  C2C       13.0790   35.8190   -8.9000 C.3   901  CT3901      0.2406
     26  C3C       14.3280   35.1480   -8.3890 C.3   901  CT3901      0.2198
     27  C4C       14.8960   36.0330   -7.3220 C.3   901  CT3901      0.2144
     28  C5C       13.8810   36.0800   -6.1980 C.3   901  CT3901      0.1835
     29  C6C       14.3780   36.7970   -4.9730 C.3   901  CT3901      0.2142
     30  O2C       12.4700   34.9680   -9.8690 O.3   901  CT3901     -0.2149
     31  O3C       15.2750   34.9650   -9.4370 O.3   901  CT3901     -0.2174
     32  O4C       15.8190   35.0840   -6.8280 O.3   901  CT3901     -0.2176
     33  O5C       12.7410   36.7230   -6.7240 O.3   901  CT3901     -0.3256
     34  O6C       14.7940   38.0850   -5.3750 O.3   901  CT3901     -0.2176
@<TRIPOS>BOND
     1     7     1    1
     2    12     6    1
     3    30    25    1
     4    23    18    1
     5    11     1    1
     6    11     5    1
     7    31    26    1
     8     1     2    1
     9    25    26    1
    10    25    24    1
    11     6     5    1
    12    18    17    1
    13     5     4    1
    14    17    22    1
    15    17    16    1
    16    26    27    1
    17     2     8    1
    18     2     3    1
    19    21    24    1
    20    21    16    1
    21     4     3    1
    22     4    10    1
    23    22    13    1
    24    13    10    1
    25    13    14    1
    26    24    33    1
    27    16    15    1
    28    27    32    1
    29    27    28    1
    30    15    14    1
    31    15    20    1
    32     3     9    1
    33    14    19    1
    34    33    28    1
    35    28    29    1
    36    34    29    1
