@<TRIPOS>MOLECULE
3az1_DS2_A_1.pdb
 32 33 0 0 0
SMALL
GASTEIGER

@<TRIPOS>ATOM
      1  C1        13.5760   19.3370   33.4180 C.ar    1  DS21        0.1353
      2  O1        15.2310   17.4950   35.5770 O.co2   1  DS21       -0.2415
      3  C2        12.4940   19.8800   34.0680 C.ar    1  DS21        0.0118
      4  O2        17.2910   17.1260   34.2110 O.co2   1  DS21       -0.2415
      5  C3        12.2930   21.2820   33.9790 C.ar    1  DS21       -0.0052
      6  C4        13.2010   22.1760   33.3170 C.ar    1  DS21       -0.0191
      7  C5        14.3080   21.5610   32.6520 C.ar    1  DS21       -0.0009
      8  C6        14.4750   20.1630   32.7130 C.ar    1  DS21        0.0363
      9  C10       12.9540   23.7050   33.3690 C.3     1  DS21        0.0377
     10  C11       11.4690   24.1480   33.3770 C.ar    1  DS21       -0.0191
     11  C12       13.4850   24.5170   32.1440 C.3     1  DS21        0.0081
     12  C13       13.7440   24.1250   34.6850 C.3     1  DS21        0.0081
     13  C14       13.2140   23.6110   36.0510 C.3     1  DS21        0.0007
     14  C20       13.1600   24.1270   30.6900 C.3     1  DS21        0.0007
     15  C26       11.0760   25.3320   34.0450 C.ar    1  DS21       -0.0052
     16  C27        9.7510   25.8230   34.0430 C.ar    1  DS21        0.0118
     17  C28        8.8360   25.0980   33.2540 C.ar    1  DS21        0.1346
     18  C29        9.1860   23.9260   32.5390 C.ar    1  DS21        0.0363
     19  C30       10.4980   23.4410   32.6140 C.ar    1  DS21       -0.0009
     20  C34       11.5200   18.9440   34.7540 C.3     1  DS21        0.0342
     21  C38        9.3400   27.1130   34.8090 C.3     1  DS21        0.0342
     22  O42        7.5580   25.6150   33.2280 O.3     1  DS21       -0.4730
     23  C43        6.5070   24.6520   33.3140 C.3     1  DS21        0.2380
     24  C44        5.1720   25.3620   33.3730 C.3     1  DS21        0.1952
     25  O47        5.2190   26.1610   34.4400 O.3     1  DS21       -0.2191
     26  C48        4.0160   24.3190   33.6120 C.3     1  DS21        0.0318
     27  C50        2.7510   25.1080   33.2700 C.3     1  DS21        0.0027
     28  C54        4.0060   23.7740   35.0580 C.3     1  DS21        0.0027
     29  C58        3.9360   23.1410   32.6240 C.3     1  DS21        0.0027
     30  O62       13.9450   18.0020   33.3300 O.3     1  DS21       -0.4640
     31  C63       15.1410   17.3710   32.8560 C.3     1  DS21        0.3186
     32  C64       15.8830   17.3350   34.2370 C.2     1  DS21        0.4084
@<TRIPOS>BOND
     1    14    11    1
     2    11     9    1
     3    18    19   ar
     4    18    17   ar
     5    19    10   ar
     6    29    26    1
     7     7     8   ar
     8     7     6   ar
     9     8     1   ar
    10    31    30    1
    11    31    32    1
    12    22    17    1
    13    22    23    1
    14    17    16   ar
    15    27    26    1
    16    23    24    1
    17     6     9    1
    18     6     5   ar
    19    30     1    1
    20     9    10    1
    21     9    12    1
    22    24    26    1
    23    24    25    1
    24    10    15   ar
    25     1     3   ar
    26    26    28    1
    27     5     3   ar
    28    16    15   ar
    29    16    21    1
    30     3    20    1
    31     4    32   ar
    32    32     2   ar
    33    12    13    1
