@<TRIPOS>MOLECULE
3az2_DS3_A_1.pdb
 35 36 0 0 0
SMALL
GASTEIGER

@<TRIPOS>ATOM
      1  C1        13.7650   18.9160   33.8330 C.ar    1  DS31        0.1345
      2  O1        13.6920   12.0530   36.8290 O.co2   1  DS31       -0.2457
      3  C2        14.5380   19.7120   33.0100 C.ar    1  DS31        0.0118
      4  O2        12.7650   14.3680   37.1700 O.co2   1  DS31       -0.2457
      5  C3        14.1800   21.0940   32.8590 C.ar    1  DS31       -0.0052
      6  C4        13.1080   21.6990   33.6030 C.ar    1  DS31       -0.0191
      7  C5        12.3540   20.8370   34.4700 C.ar    1  DS31       -0.0009
      8  C6        12.6830   19.4700   34.5540 C.ar    1  DS31        0.0363
      9  C10       12.9200   23.2300   33.5200 C.3     1  DS31        0.0377
     10  C11       11.4410   23.6930   33.5050 C.ar    1  DS31       -0.0191
     11  C12       13.5520   23.9100   32.2580 C.3     1  DS31        0.0081
     12  C13       13.8050   23.8180   34.7230 C.3     1  DS31        0.0081
     13  C14       13.3660   23.4690   36.1490 C.3     1  DS31        0.0007
     14  C20       13.0400   23.5460   30.8700 C.3     1  DS31        0.0007
     15  C26       11.0760   24.9030   34.1340 C.ar    1  DS31       -0.0052
     16  C27        9.7510   25.4070   34.1160 C.ar    1  DS31        0.0118
     17  C28        8.8130   24.6370   33.4150 C.ar    1  DS31        0.1346
     18  C29        9.1400   23.4220   32.7720 C.ar    1  DS31        0.0363
     19  C30       10.4520   22.9330   32.8410 C.ar    1  DS31       -0.0009
     20  C34       15.6350   19.0240   32.2010 C.3     1  DS31        0.0342
     21  C38        9.3420   26.7280   34.8260 C.3     1  DS31        0.0342
     22  O42        7.5460   25.1450   33.4420 O.3     1  DS31       -0.4730
     23  C43        6.5130   24.1680   33.6530 C.3     1  DS31        0.2380
     24  C44        5.1900   24.8810   33.6550 C.3     1  DS31        0.1952
     25  O47        5.1780   25.8400   34.5910 O.3     1  DS31       -0.2191
     26  C48        3.9940   23.8810   33.9020 C.3     1  DS31        0.0318
     27  C50        2.7600   24.6920   33.4390 C.3     1  DS31        0.0027
     28  C54        3.9090   23.4290   35.3720 C.3     1  DS31        0.0027
     29  C58        3.9890   22.6860   32.9340 C.3     1  DS31        0.0027
     30  O62       13.9140   17.5630   34.1100 O.3     1  DS31       -0.4758
     31  C63       13.8860   16.8490   35.3700 C.3     1  DS31        0.2054
     32  C64       14.4090   15.4420   34.8990 C.3     1  DS31        0.0479
     33  C65       13.5410   14.5040   34.0900 C.3     1  DS31        0.0156
     34  C66       13.1340   13.2150   34.8250 C.3     1  DS31        0.1142
     35  C67       13.1610   13.2790   36.3470 C.2     1  DS31        0.3649
@<TRIPOS>BOND
     1    14    11    1
     2    20     3    1
     3    11     9    1
     4    18    19   ar
     5    18    17   ar
     6    19    10   ar
     7     5     3   ar
     8     5     6   ar
     9    29    26    1
    10     3     1   ar
    11    17    22    1
    12    17    16   ar
    13    27    26    1
    14    22    23    1
    15    10     9    1
    16    10    15   ar
    17     9     6    1
    18     9    12    1
    19     6     7   ar
    20    23    24    1
    21    24    26    1
    22    24    25    1
    23     1    30    1
    24     1     8   ar
    25    26    28    1
    26    33    34    1
    27    33    32    1
    28    30    31    1
    29    16    15   ar
    30    16    21    1
    31     7     8   ar
    32    12    13    1
    33    34    35    1
    34    32    31    1
    35    35     2   ar
    36    35     4   ar
