@<TRIPOS>MOLECULE
3az3_DS6_A_1.pdb
 36 37 0 0 0
SMALL
GASTEIGER

@<TRIPOS>ATOM
      1  C1        13.5690   19.5360   33.5250 C.ar    1  DS61        0.1346
      2  O1        15.2310   16.4590   35.4690 O.3     1  DS61       -0.2191
      3  C2        14.4860   20.4110   32.8470 C.ar    1  DS61        0.0363
      4  O2        13.3870   12.7610   36.3920 O.co2   1  DS61       -0.2457
      5  C3        14.2660   21.7690   32.7950 C.ar    1  DS61       -0.0009
      6  C4        13.1340   22.3130   33.4170 C.ar    1  DS61       -0.0191
      7  C5        12.2210   21.4020   34.0650 C.ar    1  DS61       -0.0052
      8  C6        12.4140   20.0350   34.1350 C.ar    1  DS61        0.0118
      9  C7         7.4370   25.8900   33.0850 C.3     1  DS61        0.0286
     10  C8         2.4450   25.0800   33.4760 C.3     1  DS61        0.0025
     11  C9         9.4460   27.2500   35.0150 C.3     1  DS61        0.0307
     12  C10       12.9350   23.8460   33.4810 C.3     1  DS61        0.0377
     13  C11       11.4590   24.3570   33.4710 C.ar    1  DS61       -0.0194
     14  C12       13.5430   24.6190   32.2780 C.3     1  DS61        0.0081
     15  C13       13.7580   24.2360   34.7620 C.3     1  DS61        0.0081
     16  C14       13.2040   23.8230   36.1360 C.3     1  DS61        0.0007
     17  C15        3.7680   23.9480   35.3380 C.3     1  DS61        0.0025
     18  C16       13.4680   13.8990   35.8920 C.2     1  DS61        0.3649
     19  C17       13.7800   13.9470   34.4020 C.3     1  DS61        0.1168
     20  C18        3.9630   23.2460   33.0020 C.3     1  DS61        0.0025
     21  C20       13.1480   24.2260   30.8490 C.3     1  DS61        0.0007
     22  C26       11.0670   25.4940   34.2250 C.ar    1  DS61       -0.0085
     23  C27        9.7610   26.0310   34.1410 C.ar    1  DS61       -0.0261
     24  C28        8.8060   25.3770   33.2850 C.ar    1  DS61       -0.0261
     25  C29        9.1830   24.2470   32.5430 C.ar    1  DS61       -0.0049
     26  C30       10.4540   23.7330   32.6510 C.ar    1  DS61       -0.0043
     27  C34       11.4190   19.2680   34.8120 C.3     1  DS61        0.0342
     28  C43        6.4390   24.9220   33.7350 C.3     1  DS61        0.0375
     29  C44        4.9720   25.4500   33.6240 C.3     1  DS61        0.1522
     30  O47        4.7960   26.5710   34.4750 O.3     1  DS61       -0.2231
     31  C48        3.7900   24.4710   33.8840 C.3     1  DS61        0.0282
     32  O62       13.6260   18.1630   33.6550 O.3     1  DS61       -0.4730
     33  C63       14.8090   17.4740   33.2120 C.3     1  DS61        0.2380
     34  C64       15.0040   16.2010   34.0760 C.3     1  DS61        0.1959
     35  C67       13.7470   15.3230   33.7750 C.3     1  DS61        0.0486
     36  O71       13.3300   14.9740   36.5280 O.co2   1  DS61       -0.2457
@<TRIPOS>BOND
     1    21    14    1
     2    14    12    1
     3    25    26   ar
     4    25    24   ar
     5    26    13   ar
     6     5     3   ar
     7     5     6   ar
     8     3     1   ar
     9    20    31    1
    10     9    24    1
    11     9    28    1
    12    33    32    1
    13    33    34    1
    14    24    23   ar
    15     6    12    1
    16     6     7   ar
    17    13    12    1
    18    13    22   ar
    19    10    31    1
    20    12    15    1
    21     1    32    1
    22     1     8   ar
    23    29    28    1
    24    29    31    1
    25    29    30    1
    26    35    34    1
    27    35    19    1
    28    31    17    1
    29     7     8   ar
    30    34     2    1
    31     8    27    1
    32    23    22   ar
    33    23    11    1
    34    19    18    1
    35    15    16    1
    36    18     4   ar
    37    18    36   ar
