@<TRIPOS>MOLECULE
3az8_S21_D_1.pdb
 18 18 0 0 0
SMALL
GASTEIGER

@<TRIPOS>ATOM
      1  C1        23.3340  -27.8550   51.3430 C.ar  231  S21231      0.0046
      2  C2        23.7440  -28.7580   52.3340 C.ar  231  S21231      0.0242
      3  C3        22.8540  -29.7080   52.8440 C.ar  231  S21231      0.1429
      4  C4        21.5540  -29.7560   52.3680 C.ar  231  S21231      0.0242
      5  C5        21.1510  -28.8540   51.3860 C.ar  231  S21231      0.0046
      6  C6        22.0210  -27.8950   50.8650 C.ar  231  S21231      0.0352
      7  C7        21.5230  -26.9550   49.7910 C.2   231  S21231      0.1807
      8  O8        20.6230  -27.3050   49.0280 O.2   231  S21231     -0.2909
      9  C9        22.1440  -25.5920   49.6000 C.3   231  S21231      0.1423
     10  C10       21.6100  -24.5240   50.5170 C.2   231  S21231      0.2518
     11  O11       22.1580  -24.2840   51.5720 O.2   231  S21231     -0.2868
     12  C12       20.4170  -23.7270   50.0990 C.3   231  S21231      0.4517
     13  N13       23.2440  -30.6250   53.8260 N.pl3 231  S21231      0.0577
     14  F1C       20.5410  -23.5170   48.7910 F     231  S21231     -0.1633
     15  O1N       23.3380  -31.8340   53.5400 O.2   231  S21231     -0.1261
     16  F2C       19.3160  -24.4170   50.3310 F     231  S21231     -0.1633
     17  O2N       23.4860  -30.2160   54.9710 O.2   231  S21231     -0.1261
     18  F3C       20.3920  -22.5880   50.7840 F     231  S21231     -0.1633
@<TRIPOS>BOND
     1    14    12    1
     2     8     7    2
     3     9     7    1
     4     9    10    1
     5     7     6    1
     6    12    16    1
     7    12    10    1
     8    12    18    1
     9    10    11    2
    10     6     1   ar
    11     6     5   ar
    12     1     2   ar
    13     5     4   ar
    14     2     3   ar
    15     4     3   ar
    16     3    13    1
    17    15    13    2
    18    13    17    2
