@<TRIPOS>MOLECULE
3az9_K91_C_1.pdb
 20 22 0 0 0
SMALL
GASTEIGER

@<TRIPOS>ATOM
      1  C1       -14.2410   33.6030   35.4290 C.ar    2  K912        0.2299
      2  C2       -13.0730   32.9290   35.7100 C.ar    2  K912        0.0461
      3  C3       -11.9970   32.8950   34.8370 C.ar    2  K912        0.0149
      4  C4       -12.1000   33.5370   33.6350 C.ar    2  K912        0.0609
      5  C5       -13.2640   34.2180   33.3300 C.ar    2  K912        0.0522
      6  C6       -14.3370   34.2630   34.2210 C.ar    2  K912        0.1848
      7  O7       -15.4960   34.9660   33.9300 O.3     2  K912       -0.4487
      8  C8       -15.4640   36.3350   34.0080 C.ar    2  K912        0.1629
      9  C9       -15.3760   37.1810   32.8920 C.ar    2  K912        0.0399
     10  C10      -15.3540   38.5690   33.0430 C.ar    2  K912        0.0146
     11  C11      -15.3990   39.1320   34.3060 C.ar    2  K912        0.0593
     12  C12      -15.4630   38.2760   35.3940 C.ar    2  K912        0.0313
     13  C13      -15.4880   36.8920   35.2430 C.ar    2  K912        0.1165
     14  N14      -15.5490   36.0490   36.2840 N.ar    2  K912       -0.2407
     15  C15      -15.5930   36.5280   37.5300 C.ar    2  K912        0.0989
     16  C16      -15.5620   37.8990   37.7300 C.ar    2  K912        0.0207
     17  C17      -15.5070   38.7940   36.6620 C.ar    2  K912        0.0040
     18 CL18      -15.3570   40.9310   34.5110 Cl      2  K912       -0.0822
     19  O19      -15.2530   33.6010   36.3610 O.3     2  K912       -0.2833
     20 CL20      -10.6840   33.4510   32.5220 Cl      2  K912       -0.0821
@<TRIPOS>BOND
     1    20     4    1
     2     9    10   ar
     3     9     8   ar
     4    10    11   ar
     5     5     4   ar
     6     5     6   ar
     7     4     3   ar
     8     7     8    1
     9     7     6    1
    10     8    13   ar
    11     6     1   ar
    12    11    18    1
    13    11    12   ar
    14     3     2   ar
    15    13    12   ar
    16    13    14   ar
    17    12    17   ar
    18     1     2   ar
    19     1    19    1
    20    14    15   ar
    21    17    16   ar
    22    15    16   ar
