@<TRIPOS>MOLECULE
3aza_KM0_B_1.pdb
 19 21 0 0 0
SMALL
GASTEIGER

@<TRIPOS>ATOM
      1  C1        -4.5750   27.8180   17.5800 C.ar    2  KM02       -0.0007
      2  C2        -3.8640   26.6140   17.6650 C.ar    2  KM02       -0.0002
      3  C3        -3.1720   26.1170   16.5610 C.ar    2  KM02       -0.0000
      4  C4        -3.1960   26.8440   15.3680 C.ar    2  KM02       -0.0002
      5  C5        -3.9060   28.0470   15.2860 C.ar    2  KM02       -0.0007
      6  C6        -4.5990   28.5400   16.3900 C.ar    2  KM02        0.0212
      7  C7        -5.3800   29.8370   16.3410 C.3     2  KM02        0.2321
      8  O8        -5.0970   30.6300   15.1670 O.3     2  KM02       -0.4691
      9  C9        -4.0810   31.5510   15.1800 C.ar    2  KM02        0.1565
     10  C10       -3.2370   31.7130   14.0900 C.ar    2  KM02        0.0393
     11  C11       -2.2130   32.6590   14.1250 C.ar    2  KM02        0.0146
     12  C12       -2.0080   33.4410   15.2580 C.ar    2  KM02        0.0593
     13  C13       -2.8590   33.2720   16.3430 C.ar    2  KM02        0.0313
     14  C14       -3.8880   32.3330   16.3010 C.ar    2  KM02        0.1159
     15  N15       -4.7180   32.1530   17.3480 N.ar    2  KM02       -0.2408
     16  C16       -4.5880   32.8690   18.4590 C.ar    2  KM02        0.0989
     17  C17       -3.5760   33.8110   18.5400 C.ar    2  KM02        0.0207
     18  C18       -2.6970   34.0290   17.4880 C.ar    2  KM02        0.0040
     19 CL19       -0.6770   34.6540   15.3160 Cl      2  KM02       -0.0822
@<TRIPOS>BOND
     1    10    11   ar
     2    10     9   ar
     3    11    12   ar
     4     8     9    1
     5     8     7    1
     6     9    14   ar
     7    12    19    1
     8    12    13   ar
     9     5     4   ar
    10     5     6   ar
    11     4     3   ar
    12    14    13   ar
    13    14    15   ar
    14     7     6    1
    15    13    18   ar
    16     6     1   ar
    17     3     2   ar
    18    15    16   ar
    19    18    17   ar
    20     1     2   ar
    21    16    17   ar
