@<TRIPOS>MOLECULE
3azb_KM1_D_1.pdb
 20 22 0 0 0
SMALL
GASTEIGER

@<TRIPOS>ATOM
      1  C1        21.2490  -26.0430    7.6690 C.ar    1  KM11       -0.0006
      2  C2        21.3670  -27.3910    7.4160 C.ar    1  KM11        0.0007
      3  C3        22.0570  -28.2110    8.3160 C.ar    1  KM11        0.0114
      4  C4        22.6350  -27.7260    9.4750 C.ar    1  KM11        0.0575
      5  C5        22.5150  -26.3750    9.7240 C.ar    1  KM11        0.0107
      6  C6        21.8330  -25.5590    8.8300 C.ar    1  KM11        0.0220
      7  C7        21.7150  -24.1360    9.1290 C.3     1  KM11        0.2321
      8  O8        21.0070  -23.2960    8.2010 O.3     1  KM11       -0.4691
      9  C9        21.0000  -21.9670    8.4930 C.ar    1  KM11        0.1565
     10  C10       22.1880  -21.2960    8.7830 C.ar    1  KM11        0.0393
     11  C11       22.1880  -19.9340    9.0890 C.ar    1  KM11        0.0146
     12  C12       20.9830  -19.2450    9.1110 C.ar    1  KM11        0.0593
     13  C13       19.7990  -19.9240    8.8350 C.ar    1  KM11        0.0313
     14  C14       19.8040  -21.2830    8.5280 C.ar    1  KM11        0.1159
     15  N15       18.6680  -21.9550    8.2620 N.ar    1  KM11       -0.2408
     16  C16       17.5060  -21.3020    8.2880 C.ar    1  KM11        0.0989
     17  C17       17.4470  -19.9440    8.5880 C.ar    1  KM11        0.0207
     18  C18       18.6040  -19.2380    8.8610 C.ar    1  KM11        0.0040
     19 CL19       20.9480  -17.4890    9.4950 Cl      1  KM11       -0.0822
     20 CL20       23.5100  -28.8090   10.6290 Cl      1  KM11       -0.0823
@<TRIPOS>BOND
     1     2     1   ar
     2     2     3   ar
     3     1     6   ar
     4     8     9    1
     5     8     7    1
     6    15    16   ar
     7    15    14   ar
     8    16    17   ar
     9     3     4   ar
    10     9    14   ar
    11     9    10   ar
    12    14    13   ar
    13    17    18   ar
    14    10    11   ar
    15     6     7    1
    16     6     5   ar
    17    13    18   ar
    18    13    12   ar
    19    11    12   ar
    20    12    19    1
    21     4     5   ar
    22     4    20    1
