@<TRIPOS>MOLECULE
3azr_CBK_A_1.pdb
 23 24 0 0 0
SMALL
GASTEIGER

@<TRIPOS>ATOM
      1  C1         2.3030    1.2380   24.0020 C.3   403  CBK403      0.2695
      2  C2         2.8540   -0.1310   23.5970 C.3   403  CBK403      0.2406
      3  O2         1.8630   -0.8600   22.8630 O.3   403  CBK403     -0.2149
      4  C3         3.3340   -0.8740   24.8470 C.3   403  CBK403      0.2198
      5  O3         3.9990   -2.0850   24.4810 O.3   403  CBK403     -0.2174
      6  C4         4.3490    0.0030   25.5820 C.3   403  CBK403      0.2144
      7  O4         4.7160   -0.6330   26.8090 O.3   403  CBK403     -0.2176
      8  C5         3.7420    1.3790   25.8620 C.3   403  CBK403      0.1835
      9  O5         3.3470    1.9990   24.6250 O.3   403  CBK403     -0.3256
     10  C6         4.7670    2.2630   26.5720 C.3   403  CBK403      0.2142
     11  O6         4.1530    3.5100   26.9060 O.3   403  CBK403     -0.2176
     12  C1'       -0.7400    5.0420   22.0170 C.3   403  CBK403      0.3023
     13  O1'       -0.8140    4.7940   20.6110 O.3   403  CBK403     -0.1869
     14  C2'        0.6880    5.4270   22.4170 C.3   403  CBK403      0.2433
     15  O2'        1.1230    6.5040   21.5830 O.3   403  CBK403     -0.2148
     16  C3'        1.6130    4.2280   22.2100 C.3   403  CBK403      0.2168
     17  O3'        2.9580    4.5410   22.5860 O.3   403  CBK403     -0.2175
     18  C4'        1.0980    3.0550   23.0450 C.3   403  CBK403      0.1804
     19  O4'        1.9290    1.9130   22.7970 O.3   403  CBK403     -0.3257
     20  C5'       -0.3030    2.7360   22.5450 C.3   403  CBK403      0.1804
     21  O5'       -1.1670    3.8690   22.7260 O.3   403  CBK403     -0.3237
     22  C6'       -0.8790    1.5520   23.3280 C.3   403  CBK403      0.2141
     23  O6'       -1.1090    1.9590   24.6800 O.3   403  CBK403     -0.2176
@<TRIPOS>BOND
     1    13    12    1
     2    15    14    1
     3    12    14    1
     4    12    21    1
     5    16    14    1
     6    16    17    1
     7    16    18    1
     8    20    21    1
     9    20    18    1
    10    20    22    1
    11    19    18    1
    12    19     1    1
    13     3     2    1
    14    22    23    1
    15     2     1    1
    16     2     4    1
    17     1     9    1
    18     5     4    1
    19     9     8    1
    20     4     6    1
    21     6     8    1
    22     6     7    1
    23     8    10    1
    24    10    11    1
