@<TRIPOS>MOLECULE
3azr_BGC_A_1.pdb
 12 12 0 0 0
SMALL
GASTEIGER

@<TRIPOS>ATOM
      1  C2        -1.6730    5.2280   27.0560 C.3   401  BGC401      0.2434
      2  C3        -1.7060    4.7170   28.4980 C.3   401  BGC401      0.2199
      3  C4        -2.4030    5.7460   29.3890 C.3   401  BGC401      0.2144
      4  C5        -3.7800    6.0850   28.8160 C.3   401  BGC401      0.1836
      5  C6        -4.4510    7.1410   29.6970 C.3   401  BGC401      0.2142
      6  C1        -3.0890    5.5870   26.5970 C.3   401  BGC401      0.3024
      7  O1        -3.0540    6.1060   25.2650 O.3   401  BGC401     -0.1869
      8  O2        -1.1310    4.2100   26.2110 O.3   401  BGC401     -0.2148
      9  O3        -0.3700    4.5020   28.9580 O.3   401  BGC401     -0.2174
     10  O4        -2.5380    5.2320   30.7170 O.3   401  BGC401     -0.2176
     11  O5        -3.6430    6.5810   27.4740 O.3   401  BGC401     -0.3236
     12  O6        -5.7370    7.4680   29.1640 O.3   401  BGC401     -0.2176
@<TRIPOS>BOND
     1     7     6    1
     2     8     1    1
     3     6     1    1
     4     6    11    1
     5     1     2    1
     6    11     4    1
     7     2     9    1
     8     2     3    1
     9     4     3    1
    10     4     5    1
    11    12     5    1
    12     3    10    1
