@<TRIPOS>MOLECULE
3azs_MAN_A_1.pdb
 12 12 0 0 0
SMALL
GASTEIGER

@<TRIPOS>ATOM
      1  C1        22.0500   -4.4810    2.5000 C.3   401  MAN401      0.3024
      2  C2        22.2700   -4.8520    3.9250 C.3   401  MAN401      0.2434
      3  C3        22.2350   -3.6950    4.8610 C.3   401  MAN401      0.2199
      4  C4        23.2030   -2.6080    4.4560 C.3   401  MAN401      0.2144
      5  C5        22.7590   -2.2050    3.0050 C.3   401  MAN401      0.1836
      6  C6        23.5620   -1.1200    2.3660 C.3   401  MAN401      0.2142
      7  O1        20.7510   -4.1090    2.3800 O.3   401  MAN401     -0.1869
      8  O2        23.5650   -5.4340    3.9500 O.3   401  MAN401     -0.2148
      9  O3        22.4950   -4.1500    6.2180 O.3   401  MAN401     -0.2174
     10  O4        22.9000   -1.4390    5.2590 O.3   401  MAN401     -0.2176
     11  O5        22.8500   -3.3310    2.1000 O.3   401  MAN401     -0.3236
     12  O6        24.9620   -1.3770    2.3340 O.3   401  MAN401     -0.2176
@<TRIPOS>BOND
     1    11     1    1
     2    11     5    1
     3    12     6    1
     4     6     5    1
     5     7     1    1
     6     1     2    1
     7     5     4    1
     8     2     8    1
     9     2     3    1
    10     4     3    1
    11     4    10    1
    12     3     9    1
