@<TRIPOS>MOLECULE
3azs_BMA_A_1.pdb
 11 11 0 0 0
SMALL
GASTEIGER

@<TRIPOS>ATOM
      1  C1        24.0530   -0.9090    5.7900 C.3   402  BMA402      0.1777
      2  C2        23.7070    0.4150    6.5150 C.3   402  BMA402      0.2141
      3  C3        24.9560    0.9960    7.1410 C.3   402  BMA402      0.2173
      4  C4        25.5650    0.0340    8.0960 C.3   402  BMA402      0.2142
      5  C5        25.9060   -1.2450    7.3500 C.3   402  BMA402      0.1810
      6  C6        26.4740   -2.2710    8.2340 C.3   402  BMA402      0.2141
      7  O2        22.7130    0.1310    7.4800 O.3   402  BMA402     -0.2176
      8  O3        24.5550    2.2510    7.7740 O.3   402  BMA402     -0.2175
      9  O4        26.8040    0.5210    8.6730 O.3   402  BMA402     -0.2176
     10  O5        24.6900   -1.7940    6.7460 O.3   402  BMA402     -0.3481
     11  O6        26.8470   -3.4360    7.5730 O.3   402  BMA402     -0.2176
@<TRIPOS>BOND
     1     1     2    1
     2     1    10    1
     3     2     3    1
     4     2     7    1
     5    10     5    1
     6     3     8    1
     7     3     4    1
     8     5     4    1
     9     5     6    1
    10    11     6    1
    11     4     9    1
