@<TRIPOS>MOLECULE
3azt_BGC_A_1.pdb
 11 11 0 0 0
SMALL
GASTEIGER

@<TRIPOS>ATOM
      1  C2         4.8640   20.7400  -37.1150 C.3   402  BGC402      0.2141
      2  C3         5.7200   21.4580  -36.0700 C.3   402  BGC402      0.2173
      3  C4         5.1400   22.8480  -35.8040 C.3   402  BGC402      0.2142
      4  C5         3.6450   22.7930  -35.5380 C.3   402  BGC402      0.1810
      5  C6         3.1740   24.2430  -35.4070 C.3   402  BGC402      0.2141
      6  C1         3.3930   20.7510  -36.7020 C.3   402  BGC402      0.1777
      7  O2         5.2940   19.3820  -37.2340 O.3   402  BGC402     -0.2176
      8  O3         7.0460   21.5940  -36.5890 O.3   402  BGC402     -0.2175
      9  O4         5.7430   23.4220  -34.6370 O.3   402  BGC402     -0.2176
     10  O5         2.9310   22.1060  -36.5780 O.3   402  BGC402     -0.3481
     11  O6         1.8160   24.2720  -34.9610 O.3   402  BGC402     -0.2176
@<TRIPOS>BOND
     1     7     1    1
     2     1     6    1
     3     1     2    1
     4     6    10    1
     5     8     2    1
     6    10     4    1
     7     2     3    1
     8     3     4    1
     9     3     9    1
    10     4     5    1
    11     5    11    1
