@<TRIPOS>MOLECULE
3azt_GLC_A_1.pdb
 12 12 0 0 0
SMALL
GASTEIGER

@<TRIPOS>ATOM
      1  C1        -4.1060   13.9690  -38.5910 C.3   404  GLC404      0.3024
      2  C2        -2.7800   13.7610  -37.8520 C.3   404  GLC404      0.2434
      3  C3        -2.5520   14.9890  -36.9720 C.3   404  GLC404      0.2199
      4  C4        -2.4130   16.1920  -37.9070 C.3   404  GLC404      0.2144
      5  C5        -3.7390   16.3420  -38.6390 C.3   404  GLC404      0.1836
      6  C6        -3.7010   17.5310  -39.6030 C.3   404  GLC404      0.2142
      7  O1        -5.1770   14.1430  -37.6590 O.3   404  GLC404     -0.1869
      8  O2        -2.8150   12.5580  -37.0750 O.3   404  GLC404     -0.2148
      9  O3        -1.3960   14.8660  -36.1380 O.3   404  GLC404     -0.2174
     10  O4        -2.1390   17.3650  -37.1260 O.3   404  GLC404     -0.2176
     11  O5        -4.0230   15.1550  -39.4000 O.3   404  GLC404     -0.3236
     12  O6        -2.7380   17.3000  -40.6360 O.3   404  GLC404     -0.2176
@<TRIPOS>BOND
     1    12     6    1
     2     6     5    1
     3    11     5    1
     4    11     1    1
     5     5     4    1
     6     1     2    1
     7     1     7    1
     8     4    10    1
     9     4     3    1
    10     2     8    1
    11     2     3    1
    12     3     9    1
