@<TRIPOS>MOLECULE
3b03_VNR_A_1.pdb
 46 48 0 0 0
SMALL
GASTEIGER

@<TRIPOS>ATOM
      1  P         63.5990   26.7840   15.2560 P.3   669  VNR669      0.5327
      2  N1        60.8670   18.6420   17.1180 N.2   669  VNR669     -0.2941
      3  C2        61.0400   17.3990   17.6210 C.1   669  VNR669      0.3663
      4  O2        61.1060   17.2870   18.8580 O.2   669  VNR669     -0.1745
      5  N3        60.7380   16.3110   16.8720 N.2   669  VNR669     -0.2347
      6  C4        60.6710   16.3780   15.5130 C.1   669  VNR669      0.2206
      7  O4        60.5540   15.3270   14.8090 O.2   669  VNR669     -0.2110
      8  N5        60.9450   17.8480   13.5770 N.2   669  VNR669     -0.2517
      9  C6        60.9240   19.1430   11.6200 C.2   669  VNR669      0.0117
     10  C7        61.4640   20.2900   11.0620 C.2   669  VNR669     -0.0248
     11  C8        61.6690   21.4980   11.8920 C.2   669  VNR669     -0.0280
     12  C9        61.3140   21.4650   13.2340 C.2   669  VNR669     -0.0052
     13  C1'       60.9950   21.2880   16.1210 C.3   669  VNR669      0.1291
     14  C10       60.7460   18.8230   15.7770 C.2   669  VNR669      0.2126
     15  N10       61.0690   20.0920   15.2480 N.pl3 669  VNR669     -0.2738
     16  C11       58.9270   17.7320   14.3360 C.3   669  VNR669      0.0697
     17  C12       56.9570   15.8930   14.6450 C.3   669  VNR669      0.1535
     18  C13       57.2310   16.7110   15.9040 C.3   669  VNR669      0.0543
     19  C14       57.8700   17.9450   15.3410 C.2   669  VNR669     -0.0425
     20  C15       57.5130   19.1990   15.5960 C.2   669  VNR669     -0.0341
     21  O15       55.5610   15.7700   14.4620 O.3   669  VNR669     -0.3135
     22  C16       56.4270   19.4890   16.5920 C.3   669  VNR669      0.0300
     23  O1P       65.0950   27.0350   15.4200 O.3   669  VNR669     -0.1145
     24  C2'       62.4200   21.8180   16.3660 C.3   669  VNR669      0.2044
     25  O2'       63.2660   20.8100   16.9630 O.3   669  VNR669     -0.2185
     26  O22       56.2930   10.8720   13.8490 O.2   669  VNR669     -0.2221
     27  O2P       62.7020   28.0000   15.3400 O.3   669  VNR669     -0.1145
     28  C3'       62.4430   23.1110   17.1800 C.3   669  VNR669      0.2164
     29  O3'       61.9760   22.8140   18.5020 O.3   669  VNR669     -0.2175
     30  O33       54.1600   11.5750   15.0030 O.3   669  VNR669     -0.1143
     31  O3P       63.2580   25.8610   14.1030 O.2   669  VNR669     -0.2224
     32  C4'       61.5360   24.1850   16.5620 C.3   669  VNR669      0.2147
     33  O4'       61.5680   24.0710   15.1310 O.3   669  VNR669     -0.2176
     34  O44       56.3280   11.5210   16.3250 O.3   669  VNR669     -0.1143
     35  C4A       60.3410   17.7070   14.8790 C.3   669  VNR669      0.2505
     36  C5'       61.9140   25.6150   16.9750 C.3   669  VNR669      0.1892
     37  O5'       63.2540   25.9680   16.6140 O.3   669  VNR669     -0.2674
     38  P55       55.6640   11.6650   14.9720 P.3   669  VNR669      0.5373
     39  C5A       60.8230   19.0410   12.9980 C.2   669  VNR669      0.0773
     40  O66       55.9890   13.2320   14.6860 O.3   669  VNR669     -0.2261
     41  O77       53.6440   14.2660   15.0630 O.3   669  VNR669     -0.4370
     42  C7M       61.5530   20.3800    9.5540 C.3   669  VNR669      0.0307
     43  O88       54.8330   14.1570   12.6720 O.2   669  VNR669     -0.5169
     44  C8M       62.0010   22.8230   11.2380 C.3   669  VNR669      0.0304
     45  P99       54.9020   14.3270   14.1780 P.3   669  VNR669      0.2230
     46  C9A       61.0680   20.2440   13.8420 C.3   669  VNR669      0.1368
@<TRIPOS>BOND
     1    42    10    1
     2    10     9    2
     3    10    11    1
     4    44    11    1
     5     9    39    1
     6    11    12    2
     7    43    45    2
     8    39     8    2
     9    39    46    1
    10    12    46    1
    11     8    35    1
    12    46    15    1
    13    26    38    2
    14    31     1    2
    15    45    21    1
    16    45    40    1
    17    45    41    1
    18    16    35    1
    19    16    19    1
    20    21    17    1
    21    17    18    1
    22    40    38    1
    23     7     6    2
    24    35     6    1
    25    35    14    1
    26    38    30    1
    27    38    34    1
    28    33    32    1
    29    15    14    1
    30    15    13    1
    31     1    27    1
    32     1    23    1
    33     1    37    1
    34    19    20    2
    35    19    18    1
    36     6     5    2
    37    20    22    1
    38    14     2    2
    39    13    24    1
    40    24    25    1
    41    24    28    1
    42    32    36    1
    43    32    28    1
    44    37    36    1
    45     5     3    2
    46     2     3    2
    47    28    29    1
    48     3     4    2
