@<TRIPOS>MOLECULE
3b04_OOP_A_1.pdb
 47 49 0 0 0
SMALL
GASTEIGER

@<TRIPOS>ATOM
      1  P         63.7490   26.8200   15.2150 P.3   669  OOP669      0.5327
      2  N1        61.1720   18.5690   17.0840 N.2   669  OOP669     -0.2941
      3  C2        61.1500   17.3220   17.6370 C.1   669  OOP669      0.3663
      4  O2        61.4390   17.2270   18.8580 O.2   669  OOP669     -0.1745
      5  N3        61.1980   16.2080   16.8380 N.2   669  OOP669     -0.2347
      6  C4        60.9820   16.3250   15.5000 C.1   669  OOP669      0.2207
      7  O4        61.0930   15.3600   14.7300 O.2   669  OOP669     -0.2110
      8  N5        60.8630   17.7010   13.5600 N.2   669  OOP669     -0.2516
      9  C6        61.2490   18.9890   11.6150 C.2   669  OOP669      0.0117
     10  C7        61.4860   20.2250   11.0360 C.2   669  OOP669     -0.0248
     11  C8        61.8750   21.3040   11.8260 C.2   669  OOP669     -0.0280
     12  C9        61.6040   21.2430   13.1730 C.2   669  OOP669     -0.0052
     13  PA        55.2500   13.9010   14.0820 P.3   669  OOP669      0.2230
     14  PB        56.1170   11.2930   14.6740 P.3   669  OOP669      0.5373
     15  C1'       61.2090   21.1780   16.0200 C.3   669  OOP669      0.1291
     16  C10       61.1740   18.6830   15.7210 C.2   669  OOP669      0.2127
     17  N10       61.1750   19.9710   15.1660 N.pl3 669  OOP669     -0.2738
     18  C11       56.7130   15.8370   14.9590 C.3   669  OOP669      0.1535
     19  O11       56.4060   14.4760   15.0310 O.3   669  OOP669     -0.3135
     20  C12       57.5810   16.0890   13.7280 C.3   669  OOP669      0.0547
     21  C13       58.9440   17.9050   15.0620 C.3   669  OOP669      0.0958
     22  C14       58.2250   17.3370   16.2810 C.3   669  OOP669      0.1896
     23  C15       57.8060   18.4190   13.0340 C.2   669  OOP669     -0.0089
     24  O15       57.5100   18.4310   16.8780 O.3   669  OOP669     -0.2200
     25  C16       58.1140   17.4920   13.8930 C.2   669  OOP669     -0.0362
     26  O1A       54.0200   13.5980   14.9470 O.3   669  OOP669     -0.4370
     27  O1B       54.8290   10.5770   14.3610 O.3   669  OOP669     -0.1143
     28  O1P       65.2600   26.9970   15.3620 O.3   669  OOP669     -0.1145
     29  C2'       62.6610   21.7100   16.1590 C.3   669  OOP669      0.2044
     30  O2'       63.5120   20.7470   16.8480 O.3   669  OOP669     -0.2185
     31  O2A       55.1270   14.6360   12.7630 O.2   669  OOP669     -0.5169
     32  O2B       56.2170   11.8380   16.0890 O.3   669  OOP669     -0.1143
     33  O2P       62.9710   28.1370   15.3300 O.3   669  OOP669     -0.1145
     34  C3'       62.7460   23.0670   16.9010 C.3   669  OOP669      0.2164
     35  O3'       62.4510   22.8070   18.2630 O.3   669  OOP669     -0.2175
     36  O3A       55.9740   12.5220   13.6560 O.3   669  OOP669     -0.2261
     37  O3B       57.3270   10.5830   14.1220 O.2   669  OOP669     -0.2221
     38  O3P       63.3390   26.0240   14.0280 O.2   669  OOP669     -0.2224
     39  C4'       61.7470   24.1230   16.4130 C.3   669  OOP669      0.2147
     40  O4'       61.7890   24.0800   15.0000 O.3   669  OOP669     -0.2176
     41  C4A       60.4980   17.6460   14.9470 C.3   669  OOP669      0.2526
     42  C5'       62.0520   25.5740   16.8750 C.3   669  OOP669      0.1892
     43  O5'       63.4190   25.9610   16.5470 O.3   669  OOP669     -0.2674
     44  C5A       61.1320   18.8900   13.0010 C.2   669  OOP669      0.0773
     45  C7M       61.8670   20.2010    9.5720 C.3   669  OOP669      0.0307
     46  C8M       62.2000   22.6960   11.2360 C.3   669  OOP669      0.0304
     47  C9A       61.2420   20.0510   13.7680 C.3   669  OOP669      0.1368
@<TRIPOS>BOND
     1    45    10    1
     2    10     9    2
     3    10    11    1
     4    46    11    1
     5     9    44    1
     6    11    12    2
     7    31    13    2
     8    44     8    2
     9    44    47    1
    10    23    25    2
    11    12    47    1
    12     8    41    1
    13    36    13    1
    14    36    14    1
    15    20    25    1
    16    20    18    1
    17    47    17    1
    18    25    21    1
    19    38     1    2
    20    13    26    1
    21    13    19    1
    22    37    14    2
    23    27    14    1
    24    14    32    1
    25     7     6    2
    26    41    21    1
    27    41     6    1
    28    41    16    1
    29    18    19    1
    30    40    39    1
    31    21    22    1
    32    17    16    1
    33    17    15    1
    34     1    33    1
    35     1    28    1
    36     1    43    1
    37     6     5    2
    38    16     2    2
    39    15    29    1
    40    29    30    1
    41    29    34    1
    42    22    24    1
    43    39    42    1
    44    39    34    1
    45    43    42    1
    46     5     3    2
    47    34    35    1
    48     2     3    2
    49     3     4    2
