@<TRIPOS>MOLECULE
3b05_IPE_A_1.pdb
 14 13 0 0 0
SMALL
GASTEIGER

@<TRIPOS>ATOM
      1  C1        56.9740   16.1280   14.6490 C.3   701  IPE701      0.1535
      2  O1        55.5800   16.1280   14.4460 O.3   701  IPE701     -0.3135
      3  C2        57.3770   17.5200   14.2400 C.3   701  IPE701      0.0545
      4  C3        57.4860   18.4620   15.4090 C.2   701  IPE701     -0.0414
      5  C4        57.6180   19.7630   15.1880 C.2   701  IPE701     -0.0090
      6  C5        57.5650   17.9220   16.8150 C.3   701  IPE701      0.0264
      7  PA        54.8320   14.7500   14.0590 P.3   701  IPE701      0.2230
      8  O1A       53.5040   14.6980   14.7900 O.3   701  IPE701     -0.4370
      9  O2A       54.8670   14.7320   12.5290 O.2   701  IPE701     -0.5169
     10  O3A       55.8650   13.7200   14.7380 O.3   701  IPE701     -0.2261
     11  PB        55.5580   12.1410   14.9530 P.3   701  IPE701      0.5373
     12  O1B       56.1990   11.7980   16.2730 O.3   701  IPE701     -0.1143
     13  O2B       54.0690   11.9990   14.9810 O.3   701  IPE701     -0.1143
     14  O3B       56.1580   11.5100   13.7280 O.2   701  IPE701     -0.2221
@<TRIPOS>BOND
     1     9     7    2
     2    14    11    2
     3     7     2    1
     4     7    10    1
     5     7     8    1
     6     3     1    1
     7     3     4    1
     8     2     1    1
     9    10    11    1
    10    11    13    1
    11    11    12    1
    12     5     4    2
    13     4     6    1
