@<TRIPOS>MOLECULE
3b05_FNR_A_1.pdb
 31 33 0 0 0
SMALL
GASTEIGER

@<TRIPOS>ATOM
      1  C9A       61.1770   20.4900   13.6800 C.3   669  FNR669      0.1278
      2  N10       61.0850   20.3830   15.0980 N.pl3 669  FNR669     -0.2727
      3  CAA       60.9440   19.1010   15.6630 C.2   669  FNR669      0.2414
      4  N1        61.0150   18.8900   16.9930 N.2   669  FNR669     -0.2890
      5  C2        60.8550   17.6630   17.4950 C.1   669  FNR669      0.3669
      6  O2        60.8720   17.5410   18.7350 O.2   669  FNR669     -0.1744
      7  N3        60.5710   16.5760   16.7230 N.2   669  FNR669     -0.2300
      8  C4        60.4660   16.6590   15.3640 C.1   669  FNR669      0.2513
      9  O4        60.5160   15.6340   14.6320 O.2   669  FNR669     -0.2057
     10  C4A       60.5380   18.0070   14.7530 C.2   669  FNR669      0.2700
     11  N5        60.5010   18.2120   13.4230 N.2   669  FNR669     -0.3882
     12  C5A       60.8510   19.4000   12.8750 C.2   669  FNR669      0.1274
     13  C6        61.0890   19.4730   11.4840 C.2   669  FNR669      0.0208
     14  C7        61.4570   20.6670   10.9190 C.2   669  FNR669     -0.0419
     15  C7M       61.8080   20.6620    9.4470 C.3   669  FNR669      0.0264
     16  C8        61.8360   21.7420   11.7470 C.3   669  FNR669      0.0205
     17  C8M       62.2750   23.0490   11.1510 C.3   669  FNR669      0.0044
     18  C9        61.5210   21.7130   13.0880 C.3   669  FNR669      0.0311
     19  C1'       60.9320   21.5690   15.9450 C.3   669  FNR669      0.1291
     20  C2'       62.3030   22.1650   16.1820 C.3   669  FNR669      0.2044
     21  O2'       63.0970   21.1820   16.8460 O.3   669  FNR669     -0.2185
     22  C3'       62.2710   23.4090   17.0490 C.3   669  FNR669      0.2164
     23  O3'       61.7820   23.1390   18.3830 O.3   669  FNR669     -0.2175
     24  C4'       61.3750   24.4960   16.4630 C.3   669  FNR669      0.2147
     25  O4'       61.3720   24.3350   15.0400 O.3   669  FNR669     -0.2176
     26  C5'       61.8150   25.8980   16.9380 C.3   669  FNR669      0.1892
     27  O5'       63.1860   26.2240   16.5990 O.3   669  FNR669     -0.2674
     28  P         63.5580   27.0210   15.2250 P.3   669  FNR669      0.5327
     29  O1P       65.0410   27.2000   15.5160 O.3   669  FNR669     -0.1145
     30  O2P       62.7740   28.3030   15.2800 O.3   669  FNR669     -0.1145
     31  O3P       63.2480   26.0740   14.0470 O.2   669  FNR669     -0.2224
@<TRIPOS>BOND
     1    15    14    1
     2    14    13    2
     3    14    16    1
     4    17    16    1
     5    13    12    1
     6    16    18    1
     7    12    11    2
     8    12     1    1
     9    18     1    1
    10    11    10    2
    11     1     2    1
    12    31    28    2
    13     9     8    2
    14    10     8    1
    15    10     3    1
    16    25    24    1
    17     2     3    1
    18     2    19    1
    19    28    30    1
    20    28    29    1
    21    28    27    1
    22     8     7    2
    23     3     4    2
    24    19    20    1
    25    20    21    1
    26    20    22    1
    27    24    26    1
    28    24    22    1
    29    27    26    1
    30     7     5    2
    31     4     5    2
    32    22    23    1
    33     5     6    2
