@<TRIPOS>MOLECULE
3b06_FNR_A_1.pdb
 31 33 0 0 0
SMALL
GASTEIGER

@<TRIPOS>ATOM
      1  C9A       60.6470   20.0340   13.8240 C.3   669  FNR669      0.1278
      2  N10       60.5890   19.9570   15.2920 N.pl3 669  FNR669     -0.2727
      3  CAA       60.5170   18.6690   15.8840 C.2   669  FNR669      0.2414
      4  N1        60.6650   18.4460   17.2240 N.2   669  FNR669     -0.2890
      5  C2        60.8600   17.2120   17.6910 C.1   669  FNR669      0.3669
      6  O2        61.0160   17.0500   18.9210 O.2   669  FNR669     -0.1744
      7  N3        60.6180   16.1190   16.9080 N.2   669  FNR669     -0.2300
      8  C4        60.4700   16.1740   15.5560 C.1   669  FNR669      0.2513
      9  O4        60.0670   15.1850   14.9110 O.2   669  FNR669     -0.2057
     10  C4A       60.2620   17.5120   14.9570 C.2   669  FNR669      0.2700
     11  N5        60.3080   17.6640   13.6370 N.2   669  FNR669     -0.3882
     12  C5A       60.5990   18.8430   13.0410 C.2   669  FNR669      0.1274
     13  C6        60.6660   18.8850   11.6120 C.2   669  FNR669      0.0208
     14  C7        61.0910   20.1120   11.0490 C.2   669  FNR669     -0.0419
     15  C7M       61.3730   20.1850    9.5650 C.3   669  FNR669      0.0264
     16  C8        61.3940   21.2240   11.8440 C.3   669  FNR669      0.0205
     17  C8M       61.5340   22.6010   11.2240 C.3   669  FNR669      0.0044
     18  C9        61.2060   21.1650   13.2200 C.3   669  FNR669      0.0311
     19  C1'       60.5400   21.1150   16.2100 C.3   669  FNR669      0.1291
     20  C2'       61.9250   21.7140   16.3810 C.3   669  FNR669      0.2044
     21  O2'       62.7880   20.7420   16.9960 O.3   669  FNR669     -0.2185
     22  C3'       61.9430   23.0000   17.2180 C.3   669  FNR669      0.2164
     23  O3'       61.5150   22.7570   18.5960 O.3   669  FNR669     -0.2175
     24  C4'       61.0450   24.0640   16.5760 C.3   669  FNR669      0.2147
     25  O4'       61.0910   23.9420   15.1510 O.3   669  FNR669     -0.2176
     26  C5'       61.4820   25.4710   17.0010 C.3   669  FNR669      0.1892
     27  O5'       62.8520   25.7450   16.6800 O.3   669  FNR669     -0.2674
     28  P         63.2640   26.5620   15.3120 P.3   669  FNR669      0.5327
     29  O1P       64.7300   26.7810   15.4890 O.3   669  FNR669     -0.1145
     30  O2P       62.3970   27.7670   15.3560 O.3   669  FNR669     -0.1145
     31  O3P       62.8930   25.6610   14.1260 O.2   669  FNR669     -0.2224
@<TRIPOS>BOND
     1    15    14    1
     2    14    13    2
     3    14    16    1
     4    17    16    1
     5    13    12    1
     6    16    18    1
     7    12    11    2
     8    12     1    1
     9    18     1    1
    10    11    10    2
    11     1     2    1
    12    31    28    2
    13     9     8    2
    14    10     8    1
    15    10     3    1
    16    25    24    1
    17     2     3    1
    18     2    19    1
    19    28    30    1
    20    28    29    1
    21    28    27    1
    22     8     7    2
    23     3     4    2
    24    19    20    1
    25    20    21    1
    26    20    22    1
    27    24    26    1
    28    24    22    1
    29    27    26    1
    30     7     5    2
    31    22    23    1
    32     4     5    2
    33     5     6    2
