@<TRIPOS>MOLECULE
3b06_DMA_A_1.pdb
 14 13 0 0 0
SMALL
GASTEIGER

@<TRIPOS>ATOM
      1  C1        56.8410   15.7530   14.7620 C.3   701  DMA701      0.1747
      2  O1        55.4890   15.6270   14.3640 O.3   701  DMA701     -0.3089
      3  C2        57.0460   17.2330   14.6380 C.2   701  DMA701     -0.0024
      4  C3        57.2640   18.0530   15.6830 C.2   701  DMA701     -0.0454
      5  C4        57.3740   17.5500   17.1100 C.3   701  DMA701      0.0261
      6  C5        57.3700   19.5190   15.3790 C.3   701  DMA701      0.0261
      7  PA        54.6430   14.2350   14.2120 P.3   701  DMA701      0.2233
      8  O1A       53.3370   14.4400   14.9430 O.3   701  DMA701     -0.4370
      9  O2A       54.5930   13.8790   12.7180 O.2   701  DMA701     -0.5169
     10  O3A       55.6400   13.2240   14.9820 O.3   701  DMA701     -0.2261
     11  PB        55.5010   11.6140   15.1780 P.3   701  DMA701      0.5373
     12  O1B       56.2380   10.9990   13.9510 O.2   701  DMA701     -0.2221
     13  O2B       56.1970   11.3400   16.4980 O.3   701  DMA701     -0.1143
     14  O3B       54.0030   11.4230   15.2190 O.3   701  DMA701     -0.1143
@<TRIPOS>BOND
     1     9     7    2
     2    12    11    2
     3     7     2    1
     4     7     8    1
     5     7    10    1
     6     2     1    1
     7     3     1    1
     8     3     4    2
     9    10    11    1
    10    11    14    1
    11    11    13    1
    12     6     4    1
    13     4     5    1
