@<TRIPOS>MOLECULE
3b08_TRE_H_1.pdb
 23 24 0 0 0
SMALL
GASTEIGER

@<TRIPOS>ATOM
      1  C1        31.1540   10.4060   16.3190 C.3   251  TRE251      0.2713
      2  C2        30.2230   10.1690   15.1240 C.3   251  TRE251      0.2406
      3  C3        30.9190    9.3690   14.0410 C.3   251  TRE251      0.2198
      4  C4        32.1530   10.1100   13.6140 C.3   251  TRE251      0.2144
      5  C5        33.0850   10.2800   14.8160 C.3   251  TRE251      0.1835
      6  C6        34.3830   10.9820   14.4050 C.3   251  TRE251      0.2142
      7  O1        31.5450    9.1500   16.9000 O.3   251  TRE251     -0.3016
      8  O2        29.0290    9.4640   15.5450 O.3   251  TRE251     -0.2149
      9  O3        30.0320    9.2280   12.9190 O.3   251  TRE251     -0.2174
     10  O4        32.8070    9.3700   12.5640 O.3   251  TRE251     -0.2176
     11  O5        32.3680   11.0350   15.8320 O.3   251  TRE251     -0.3256
     12  O6        35.2620   11.0740   15.5400 O.3   251  TRE251     -0.2176
     13  C1P       32.2300    9.4330   18.1480 C.3   251  TRE251      0.2713
     14  C2P       32.7460    8.1530   18.7770 C.3   251  TRE251      0.2406
     15  C3P       31.5870    7.2110   19.0420 C.3   251  TRE251      0.2198
     16  C4P       30.6190    7.9010   19.9740 C.3   251  TRE251      0.2144
     17  C5P       30.1240    9.1890   19.3000 C.3   251  TRE251      0.1835
     18  C6P       29.1980    9.9770   20.2280 C.3   251  TRE251      0.2142
     19  O2P       33.6650    7.5030   17.8900 O.3   251  TRE251     -0.2149
     20  O3P       32.1420    6.0640   19.7210 O.3   251  TRE251     -0.2174
     21  O4P       29.4790    7.0390   20.2170 O.3   251  TRE251     -0.2176
     22  O5P       31.2470   10.0410   19.0370 O.3   251  TRE251     -0.3256
     23  O6P       28.8060   11.1950   19.5780 O.3   251  TRE251     -0.2176
@<TRIPOS>BOND
     1    10     4    1
     2     9     3    1
     3     4     3    1
     4     4     5    1
     5     3     2    1
     6     6     5    1
     7     6    12    1
     8     5    11    1
     9     2     8    1
    10     2     1    1
    11    11     1    1
    12     1     7    1
    13     7    13    1
    14    19    14    1
    15    13    14    1
    16    13    22    1
    17    14    15    1
    18    22    17    1
    19    15    20    1
    20    15    16    1
    21    17    16    1
    22    17    18    1
    23    23    18    1
    24    16    21    1
