@<TRIPOS>MOLECULE
3b0p_FMN_A_1.pdb
 31 33 0 0 0
SMALL
GASTEIGER

@<TRIPOS>ATOM
      1  N1        56.9140   63.3410   12.1080 N.2   351  FMN351     -0.2887
      2  C2        57.4560   63.1810   10.8640 C.1   351  FMN351      0.3669
      3  O2        58.2730   62.2790   10.7030 O.2   351  FMN351     -0.1744
      4  N3        57.0560   64.0170    9.8320 N.2   351  FMN351     -0.2300
      5  C4        56.1240   65.0170   10.0410 C.1   351  FMN351      0.2513
      6  O4        55.7850   65.7890    9.1200 O.2   351  FMN351     -0.2057
      7  C4A       55.5810   65.1760   11.3100 C.2   351  FMN351      0.2706
      8  N5        54.6170   66.1270   11.5670 N.2   351  FMN351     -0.3841
      9  C5A       54.2640   66.4110   12.8700 C.2   351  FMN351      0.1452
     10  C6        53.4880   67.5360   13.1360 C.2   351  FMN351      0.0252
     11  C7        53.1750   67.8330   14.4510 C.2   351  FMN351     -0.0375
     12  C7M       52.3420   69.0430   14.7710 C.3   351  FMN351      0.0268
     13  C8        53.6480   67.0310   15.4810 C.3   351  FMN351      0.0417
     14  C8M       53.3060   67.4000   16.8920 C.3   351  FMN351      0.0091
     15  C9        54.4330   65.9040   15.2090 C.2   351  FMN351     -0.0049
     16  C9A       54.7440   65.6050   13.8920 C.2   351  FMN351      0.0795
     17  N10       55.5060   64.4920   13.5830 N.pl3 351  FMN351     -0.2545
     18  C10       55.9970   64.3390   12.3250 C.2   351  FMN351      0.2449
     19  C1'       56.0650   63.5850   14.6220 C.3   351  FMN351      0.1336
     20  C2'       57.2960   64.3900   15.1520 C.3   351  FMN351      0.2048
     21  O2'       58.3190   64.5960   14.1540 O.3   351  FMN351     -0.2185
     22  C3'       58.0150   63.8020   16.3690 C.3   351  FMN351      0.2165
     23  O3'       58.5300   62.5130   16.0290 O.3   351  FMN351     -0.2175
     24  C4'       57.0880   63.7210   17.5900 C.3   351  FMN351      0.2147
     25  O4'       56.4110   64.9470   17.7950 O.3   351  FMN351     -0.2176
     26  C5'       57.8680   63.2850   18.8510 C.3   351  FMN351      0.1892
     27  O5'       58.9090   64.1930   19.2020 O.3   351  FMN351     -0.2674
     28  P         58.6530   65.3870   20.2730 P.3   351  FMN351      0.5327
     29  O1P       58.1360   64.7710   21.5610 O.3   351  FMN351     -0.1145
     30  O2P       59.9540   66.0750   20.5650 O.3   351  FMN351     -0.1145
     31  O3P       57.6960   66.3730   19.6920 O.2   351  FMN351     -0.2224
@<TRIPOS>BOND
     1     6     5    2
     2     4     5    2
     3     4     2    2
     4     5     7    1
     5     3     2    2
     6     2     1    2
     7     7     8    2
     8     7    18    1
     9     8     9    2
    10     1    18    2
    11    18    17    1
    12     9    10    1
    13     9    16    1
    14    10    11    2
    15    17    16    1
    16    17    19    1
    17    16    15    2
    18    21    20    1
    19    11    12    1
    20    11    13    1
    21    19    20    1
    22    20    22    1
    23    15    13    1
    24    13    14    1
    25    23    22    1
    26    22    24    1
    27    24    25    1
    28    24    26    1
    29    26    27    1
    30    27    28    1
    31    31    28    2
    32    28    30    1
    33    28    29    1
