@<TRIPOS>MOLECULE
3b0q_MC5_A_1.pdb
 27 30 0 0 0
SMALL
GASTEIGER

@<TRIPOS>ATOM
      1  F        -19.3230   18.0640   -8.6490 F       1  MC51       -0.2044
      2  N        -19.8630   19.3540  -20.5120 N.2     1  MC51       -0.2557
      3  S        -20.2440   19.5930  -18.0560 S.3     1  MC51        0.0093
      4  C1       -16.8490   17.2460  -14.8780 C.ar    1  MC51       -0.0001
      5  O1       -15.9220   17.1200  -10.8290 O.3     1  MC51       -0.4706
      6  C2       -17.8790   17.1170  -13.9500 C.ar    1  MC51        0.0030
      7  O2       -17.7530   18.5330  -20.6420 O.2     1  MC51       -0.2125
      8  C3       -15.5310   17.3200  -14.4550 C.ar    1  MC51        0.0031
      9  O3       -21.8550   20.2240  -19.9010 O.2     1  MC51       -0.2017
     10  C4       -17.1460   17.2870  -16.2310 C.ar    1  MC51       -0.0042
     11  C5       -18.4680   17.2020  -16.6510 C.ar    1  MC51       -0.0201
     12  C6       -17.5890   17.0750  -12.5950 C.ar    1  MC51        0.0369
     13  C7       -16.2630   17.1540  -12.1600 C.ar    1  MC51        0.1391
     14  C8       -19.2040   17.0370  -14.3750 C.ar    1  MC51       -0.0002
     15  C9       -15.2350   17.2750  -13.0950 C.ar    1  MC51        0.0369
     16  C10      -16.8880   21.1160   -9.9710 C.ar    1  MC51       -0.0001
     17  C11      -19.5020   17.0860  -15.7290 C.ar    1  MC51       -0.0042
     18  C12      -18.7850   17.2760  -18.1120 C.3     1  MC51        0.0562
     19  C13      -18.7620   18.7500  -18.5070 C.3     1  MC51        0.1865
     20  C14      -18.7340   18.8560  -20.0010 C.1     1  MC51        0.2022
     21  C15      -18.1240   21.4030   -9.4020 C.ar    1  MC51        0.0023
     22  C16      -20.7600   19.7770  -19.6220 C.1     1  MC51        0.2450
     23  C17      -18.9450   20.3710   -8.9610 C.ar    1  MC51        0.0294
     24  C18      -16.8570   17.3270   -9.7690 C.3     1  MC51        0.2342
     25  C19      -17.2970   18.7660   -9.6590 C.ar    1  MC51        0.0486
     26  C20      -18.5260   19.0540   -9.0860 C.ar    1  MC51        0.1396
     27  C21      -16.4750   19.8030  -10.0990 C.ar    1  MC51        0.0016
@<TRIPOS>BOND
     1     7    20    2
     2     2    20    2
     3     2    22    2
     4    20    19    1
     5     9    22    2
     6    22     3    1
     7    19    18    1
     8    19     3    1
     9    18    11    1
    10    11    10   ar
    11    11    17   ar
    12    10     4   ar
    13    17    14   ar
    14     4     8   ar
    15     4     6   ar
    16     8    15   ar
    17    14     6   ar
    18     6    12   ar
    19    15    13   ar
    20    12    13   ar
    21    13     5    1
    22     5    24    1
    23    27    16   ar
    24    27    25   ar
    25    16    21   ar
    26    24    25    1
    27    25    26   ar
    28    21    23   ar
    29    26    23   ar
    30    26     1    1
