@<TRIPOS>MOLECULE
3b0r_GW9_A_1.pdb
 18 19 0 0 0
SMALL
GASTEIGER

@<TRIPOS>ATOM
      1  C9       -19.8120   19.8580  -15.6010 C.ar    1  GW91        0.0047
      2  C10      -20.7590   20.7460  -16.1090 C.ar    1  GW91        0.0018
      3  C11      -20.9600   20.8370  -17.4810 C.ar    1  GW91        0.0241
      4  C12      -20.2150   20.0440  -18.3470 C.ar    1  GW91        0.1430
      5  N2       -20.4150   20.1370  -19.7310 N.pl3   1  GW91        0.0577
      6  O3       -20.9440   21.1250  -20.2290 O.2     1  GW91       -0.1261
      7  O2       -20.0460   19.2230  -20.4490 O.2     1  GW91       -0.1261
      8  C13      -19.2670   19.1530  -17.8350 C.ar    1  GW91        0.0286
      9  C8       -19.0690   19.0530  -16.4630 C.ar    1  GW91        0.0570
     10  C1       -18.0360   18.1100  -15.9090 C.2     1  GW91        0.2690
     11  O1       -18.2080   16.9070  -15.9840 O.2     1  GW91       -0.2680
     12  N1       -16.9230   18.6990  -15.3250 N.am    1  GW91       -0.1754
     13  C2       -15.8970   17.8760  -14.8070 C.ar    1  GW91        0.0737
     14  C7       -15.4360   16.7380  -15.4650 C.ar    1  GW91        0.0166
     15  C6       -14.4090   15.9760  -14.9120 C.ar    1  GW91        0.0013
     16  C5       -13.8180   16.3430  -13.7120 C.ar    1  GW91        0.0001
     17  C4       -14.2620   17.4800  -13.0500 C.ar    1  GW91        0.0013
     18  C3       -15.2900   18.2470  -13.6020 C.ar    1  GW91        0.0166
@<TRIPOS>BOND
     1     7     5    2
     2     6     5    2
     3     5     4    1
     4     4     8   ar
     5     4     3   ar
     6     8     9   ar
     7     3     2   ar
     8     9    10    1
     9     9     1   ar
    10     2     1   ar
    11    11    10    2
    12    10    12   am
    13    14    15   ar
    14    14    13   ar
    15    12    13    1
    16    15    16   ar
    17    13    18   ar
    18    16    17   ar
    19    18    17   ar
