@<TRIPOS>MOLECULE
3b0t_MCZ_A_1.pdb
 30 32 0 0 0
SMALL
GASTEIGER

@<TRIPOS>ATOM
      1  C1       -14.1500   -8.1260   30.4680 C.3     1  MCZ1        0.1765
      2  O1       -13.1550   -8.7840   29.6780 O.3     1  MCZ1       -0.2182
      3  C2       -14.8080   -9.1140   31.4370 C.3     1  MCZ1        0.0707
      4  C3       -15.8680   -8.4220   32.2920 C.3     1  MCZ1        0.1592
      5  O3       -16.9410   -7.9140   31.4650 O.3     1  MCZ1       -0.2227
      6  C4       -15.2130   -7.2980   33.1190 C.3     1  MCZ1        0.0591
      7  C5       -14.4370   -6.3330   32.2520 C.2     1  MCZ1       -0.0213
      8  C6       -14.5090   -5.0050   32.5270 C.2     1  MCZ1       -0.0051
      9  C7       -13.7830   -3.9450   31.8130 C.2     1  MCZ1       -0.0088
     10  C8       -13.5920   -2.6910   32.2760 C.2     1  MCZ1       -0.0446
     11  C9       -14.1270   -2.1260   33.5710 C.3     1  MCZ1        0.0220
     12  C10      -13.5960   -6.9580   31.2250 C.2     1  MCZ1        0.0039
     13  C11      -12.9080   -1.6270   34.3860 C.3     1  MCZ1        0.0044
     14  C12      -12.0510   -0.6190   33.6160 C.3     1  MCZ1        0.0007
     15  C13      -11.5960   -1.1700   32.2750 C.3     1  MCZ1        0.0057
     16  C14      -12.8270   -1.6430   31.5340 C.3     1  MCZ1        0.0184
     17  C15      -12.3500   -1.8800   30.1090 C.3     1  MCZ1        0.0041
     18  C16      -11.2850   -0.8030   29.9000 C.3     1  MCZ1        0.0027
     19  C17      -11.1190   -0.1200   31.2680 C.3     1  MCZ1        0.0275
     20  C18      -10.5960   -2.3120   32.4680 C.3     1  MCZ1        0.0004
     21  C19      -12.3060   -6.5770   31.1160 C.2     1  MCZ1       -0.0024
     22  C20       -9.7560    0.5410   31.5190 C.3     1  MCZ1        0.1152
     23  C21       -9.6180    1.7850   30.6390 C.3     1  MCZ1        0.0320
     24  O22       -8.6910   -0.3610   31.2430 O.3     1  MCZ1       -0.3562
     25  C23       -7.4770    0.0230   31.9030 C.3     1  MCZ1        0.1446
     26  C24       -6.4330   -1.0490   31.6080 C.3     1  MCZ1        0.0624
     27  C25       -4.9920   -0.6610   31.9520 C.3     1  MCZ1        0.1292
     28  C26       -4.8270   -0.3290   33.4310 C.3     1  MCZ1        0.0330
     29  C27       -4.0580   -1.7820   31.5150 C.3     1  MCZ1        0.0330
     30  O28       -4.5510    0.4900   31.2270 O.3     1  MCZ1       -0.2256
@<TRIPOS>BOND
     1     2     1    1
     2    18    17    1
     3    18    19    1
     4    17    16    1
     5     1    12    1
     6     1     3    1
     7    23    22    1
     8    21    12    2
     9    12     7    1
    10    30    27    1
    11    24    22    1
    12    24    25    1
    13    19    22    1
    14    19    15    1
    15     3     4    1
    16     5     4    1
    17    29    27    1
    18    16    15    1
    19    16    10    1
    20    26    25    1
    21    26    27    1
    22     9    10    2
    23     9     8    1
    24    27    28    1
    25     7     8    2
    26     7     6    1
    27    15    20    1
    28    15    14    1
    29    10    11    1
    30     4     6    1
    31    11    13    1
    32    14    13    1
