@<TRIPOS>MOLECULE
3b0u_FMN_X_1.pdb
 31 33 0 0 0
SMALL
GASTEIGER

@<TRIPOS>ATOM
      1  N1       -26.6300   -9.1660   31.1500 N.2   400  FMN400     -0.2887
      2  C2       -26.3860   -9.9930   32.2270 C.1   400  FMN400      0.3669
      3  O2       -25.2320  -10.1770   32.6160 O.2   400  FMN400     -0.1744
      4  N3       -27.4360  -10.6130   32.8730 N.2   400  FMN400     -0.2300
      5  C4       -28.7340  -10.4110   32.4430 C.1   400  FMN400      0.2513
      6  O4       -29.6620  -10.9730   33.0230 O.2   400  FMN400     -0.2057
      7  C4A      -28.9830   -9.5810   31.3580 C.2   400  FMN400      0.2706
      8  N5       -30.2760   -9.3650   30.9200 N.2   400  FMN400     -0.3841
      9  C5A      -30.4910   -8.6960   29.7320 C.2   400  FMN400      0.1452
     10  C6       -31.7710   -8.6430   29.1870 C.2   400  FMN400      0.0252
     11  C7       -31.9850   -7.9770   27.9860 C.2   400  FMN400     -0.0375
     12  C7M      -33.3620   -7.9190   27.3930 C.3   400  FMN400      0.0268
     13  C8       -30.9200   -7.3660   27.3320 C.3   400  FMN400      0.0417
     14  C8M      -31.1530   -6.6500   26.0340 C.3   400  FMN400      0.0091
     15  C9       -29.6420   -7.4190   27.8780 C.2   400  FMN400     -0.0049
     16  C9A      -29.4250   -8.0860   29.0780 C.2   400  FMN400      0.0795
     17  N10      -28.1570   -8.1410   29.6260 N.pl3 400  FMN400     -0.2545
     18  C10      -27.9210   -8.9620   30.7090 C.2   400  FMN400      0.2449
     19  C1'      -26.9940   -7.4890   28.9320 C.3   400  FMN400      0.1336
     20  C2'      -26.4820   -8.4920   27.8900 C.3   400  FMN400      0.2048
     21  O2'      -26.0500   -9.6880   28.5170 O.3   400  FMN400     -0.2185
     22  C3'      -25.3320   -7.9420   27.0490 C.3   400  FMN400      0.2165
     23  O3'      -24.2250   -7.6890   27.8910 O.3   400  FMN400     -0.2175
     24  C4'      -25.7490   -6.6610   26.3270 C.3   400  FMN400      0.2147
     25  O4'      -27.0250   -6.8320   25.7470 O.3   400  FMN400     -0.2176
     26  C5'      -24.7610   -6.2580   25.2340 C.3   400  FMN400      0.1892
     27  O5'      -24.5460   -7.3420   24.3560 O.3   400  FMN400     -0.2674
     28  P        -25.2350   -7.3530   22.8990 P.3   400  FMN400      0.5327
     29  O1P      -24.9160   -6.0450   22.2050 O.3   400  FMN400     -0.1145
     30  O2P      -26.7280   -7.4850   23.0620 O.3   400  FMN400     -0.1145
     31  O3P      -24.6940   -8.5060   22.0840 O.2   400  FMN400     -0.2224
@<TRIPOS>BOND
     1    31    28    2
     2    29    28    1
     3    28    30    1
     4    28    27    1
     5    27    26    1
     6    26    24    1
     7    25    24    1
     8    14    13    1
     9    24    22    1
    10    22    20    1
    11    22    23    1
    12    13    15    1
    13    13    11    1
    14    12    11    1
    15    15    16    2
    16    20    21    1
    17    20    19    1
    18    11    10    2
    19    19    17    1
    20    16    17    1
    21    16     9    1
    22    10     9    1
    23    17    18    1
    24     9     8    2
    25    18     1    2
    26    18     7    1
    27     8     7    2
    28     1     2    2
    29     7     5    1
    30     2     3    2
    31     2     4    2
    32     5     4    2
    33     5     6    2
