@<TRIPOS>MOLECULE
3b0v_FMN_C_1.pdb
 31 33 0 0 0
SMALL
GASTEIGER

@<TRIPOS>ATOM
      1  N1       -12.3450  -41.4370  -25.8970 N.2   400  FMN400     -0.2887
      2  C2       -13.2000  -42.4040  -25.4080 C.1   400  FMN400      0.3669
      3  O2       -14.3300  -42.5180  -25.8790 O.2   400  FMN400     -0.1744
      4  N3       -12.7950  -43.2450  -24.3920 N.2   400  FMN400     -0.2300
      5  C4       -11.5280  -43.1180  -23.8610 C.1   400  FMN400      0.2513
      6  O4       -11.1640  -43.8660  -22.9560 O.2   400  FMN400     -0.2057
      7  C4A      -10.6650  -42.1470  -24.3520 C.2   400  FMN400      0.2706
      8  N5        -9.3990  -42.0200  -23.8250 N.2   400  FMN400     -0.3841
      9  C5A       -8.6190  -40.9420  -24.1810 C.2   400  FMN400      0.1452
     10  C6        -7.4250  -40.7040  -23.5150 C.2   400  FMN400      0.0252
     11  C7        -6.6400  -39.6170  -23.8720 C.2   400  FMN400     -0.0375
     12  C7M       -5.3540  -39.3780  -23.1430 C.3   400  FMN400      0.0268
     13  C8        -7.0480  -38.7660  -24.8960 C.3   400  FMN400      0.0417
     14  C8M       -6.2050  -37.5890  -25.2900 C.3   400  FMN400      0.0091
     15  C9        -8.2440  -39.0070  -25.5610 C.2   400  FMN400     -0.0049
     16  C9A       -9.0300  -40.0950  -25.2030 C.2   400  FMN400      0.0795
     17  N10      -10.2210  -40.3370  -25.8600 N.pl3 400  FMN400     -0.2545
     18  C10      -11.0770  -41.3050  -25.3750 C.2   400  FMN400      0.2449
     19  C1'      -10.6710  -39.4290  -26.9660 C.3   400  FMN400      0.1336
     20  C2'      -11.3950  -38.2200  -26.3850 C.3   400  FMN400      0.2048
     21  O2'      -12.5980  -38.6410  -25.7800 O.3   400  FMN400     -0.2185
     22  C3'      -11.7020  -37.1980  -27.4730 C.3   400  FMN400      0.2165
     23  O3'      -12.5670  -37.7580  -28.4330 O.3   400  FMN400     -0.2175
     24  C4'      -10.4110  -36.7590  -28.1490 C.3   400  FMN400      0.2147
     25  O4'       -9.4810  -36.3900  -27.1580 O.3   400  FMN400     -0.2176
     26  C5'      -10.6360  -35.5750  -29.0790 C.3   400  FMN400      0.1892
     27  O5'      -11.3890  -34.6020  -28.3920 O.3   400  FMN400     -0.2674
     28  P        -10.6560  -33.3040  -27.7900 P.3   400  FMN400      0.5327
     29  O1P       -9.8370  -32.6580  -28.8780 O.2   400  FMN400     -0.2224
     30  O2P       -9.7440  -33.7360  -26.6700 O.3   400  FMN400     -0.1145
     31  O3P      -11.6840  -32.3230  -27.2790 O.3   400  FMN400     -0.1145
@<TRIPOS>BOND
     1    26    27    1
     2    26    24    1
     3    29    28    2
     4    23    22    1
     5    27    28    1
     6    24    22    1
     7    24    25    1
     8    28    31    1
     9    28    30    1
    10    22    20    1
    11    19    20    1
    12    19    17    1
    13    20    21    1
    14     1     2    2
    15     1    18    2
    16     3     2    2
    17    17    18    1
    18    17    16    1
    19    15    16    2
    20    15    13    1
    21     2     4    2
    22    18     7    1
    23    14    13    1
    24    16     9    1
    25    13    11    1
    26     4     5    2
    27     7     5    1
    28     7     8    2
    29     9     8    2
    30     9    10    1
    31    11    10    2
    32    11    12    1
    33     5     6    2
