@<TRIPOS>MOLECULE
3b0x_DGT_A_1.pdb
 31 33 0 0 0
SMALL
GASTEIGER

@<TRIPOS>ATOM
      1  PG        17.7670    2.0550   -4.0190 P.3   583  DGT583      0.5373
      2  O1G       18.9780    2.6960   -4.6620 O.3   583  DGT583     -0.1143
      3  O2G       17.0300    1.0610   -4.8770 O.2   583  DGT583     -0.2221
      4  O3G       18.0490    1.4680   -2.6440 O.3   583  DGT583     -0.1143
      5  O3B       16.6850    3.2220   -3.6990 O.3   583  DGT583     -0.2258
      6  PB        16.8370    4.8040   -3.8710 P.3   583  DGT583      0.2277
      7  O1B       15.6000    5.4290   -3.3330 O.3   583  DGT583     -0.4368
      8  O2B       18.1570    5.2800   -3.3650 O.2   583  DGT583     -0.5168
      9  O3A       16.7760    4.9660   -5.4740 O.3   583  DGT583     -0.2700
     10  PA        17.7480    5.5700   -6.6050 P.3   583  DGT583      0.2189
     11  O1A       19.1820    5.4460   -6.2020 O.3   583  DGT583     -0.4371
     12  O2A       17.3090    4.9420   -7.8970 O.2   583  DGT583     -0.5170
     13  O5'       17.3220    7.0940   -6.7090 O.3   583  DGT583     -0.3112
     14  C5'       17.6590    7.9940   -5.6310 C.3   583  DGT583      0.1812
     15  C4'       16.5470    9.0000   -5.4180 C.3   583  DGT583      0.1772
     16  O4'       16.4200    9.7780   -6.6010 O.3   583  DGT583     -0.3347
     17  C3'       15.1690    8.4370   -5.1910 C.3   583  DGT583      0.1857
     18  O3'       14.9300    8.0670   -3.8450 O.3   583  DGT583     -0.2203
     19  C2'       14.2730    9.5740   -5.6130 C.3   583  DGT583      0.0865
     20  C1'       15.0650   10.2000   -6.7480 C.3   583  DGT583      0.1981
     21  N9        14.5830    9.7150   -8.0520 N.pl3 583  DGT583     -0.2374
     22  C8        14.9180    8.5540   -8.6530 C.3   583  DGT583      0.2245
     23  N7        14.2850    8.4500   -9.8370 N.2   583  DGT583     -0.2322
     24  C5        13.5510    9.5670   -9.9890 C.2   583  DGT583      0.2182
     25  C6        12.6450   10.0970  -11.0180 C.1   583  DGT583      0.2372
     26  O6        12.4200    9.4590  -12.0710 O.2   583  DGT583     -0.2069
     27  N1        12.0910   11.2910  -10.7750 N.2   583  DGT583     -0.2485
     28  C2        12.3180   11.9980   -9.6480 C.1   583  DGT583      0.2531
     29  N2        11.7070   13.1830   -9.5040 N.pl3 583  DGT583     -0.0226
     30  N3        13.1250   11.5940   -8.6440 N.2   583  DGT583     -0.3074
     31  C4        13.7560   10.4040   -8.8010 C.2   583  DGT583      0.2299
@<TRIPOS>BOND
     1    26    25    2
     2    25    27    2
     3    25    24    1
     4    27    28    2
     5    24    23    2
     6    24    31    1
     7    23    22    1
     8    28    29    1
     9    28    30    2
    10    31    30    2
    11    31    21    1
    12    22    21    1
    13    21    20    1
    14    12    10    2
    15    20    16    1
    16    20    19    1
    17    13    10    1
    18    13    14    1
    19    10    11    1
    20    10     9    1
    21    16    15    1
    22    14    15    1
    23    19    17    1
    24     9     6    1
    25    15    17    1
    26    17    18    1
    27     3     1    2
    28     2     1    1
    29     1     5    1
    30     1     4    1
    31     6     5    1
    32     6     8    2
    33     6     7    1
