@<TRIPOS>MOLECULE
3b0y_DGT_A_1.pdb
 31 33 0 0 0
SMALL
GASTEIGER

@<TRIPOS>ATOM
      1  PG        17.6500    2.0750   -4.0180 P.3   576  DGT576      0.5373
      2  O1G       18.8680    2.7250   -4.6440 O.3   576  DGT576     -0.1143
      3  O2G       16.9410    1.0770   -4.9100 O.2   576  DGT576     -0.2221
      4  O3G       17.9500    1.5090   -2.6350 O.3   576  DGT576     -0.1143
      5  O3B       16.5710    3.2610   -3.7250 O.3   576  DGT576     -0.2258
      6  PB        16.7120    4.8350   -3.8940 P.3   576  DGT576      0.2277
      7  O1B       15.4730    5.4550   -3.3550 O.3   576  DGT576     -0.4368
      8  O2B       18.0480    5.3280   -3.3750 O.2   576  DGT576     -0.5168
      9  O3A       16.6540    5.0470   -5.4850 O.3   576  DGT576     -0.2700
     10  PA        17.6390    5.6380   -6.6000 P.3   576  DGT576      0.2189
     11  O1A       19.0730    5.5140   -6.1700 O.3   576  DGT576     -0.4371
     12  O2A       17.2210    5.0040   -7.8900 O.2   576  DGT576     -0.5170
     13  O5'       17.2160    7.1500   -6.7000 O.3   576  DGT576     -0.3112
     14  C5'       17.5280    8.0370   -5.6080 C.3   576  DGT576      0.1812
     15  C4'       16.3930    9.0270   -5.4320 C.3   576  DGT576      0.1772
     16  O4'       16.2860    9.7890   -6.6330 O.3   576  DGT576     -0.3347
     17  C3'       15.0050    8.4240   -5.2530 C.3   576  DGT576      0.1857
     18  O3'       14.6970    8.1090   -3.9030 O.3   576  DGT576     -0.2203
     19  C2'       14.0720    9.5280   -5.7350 C.3   576  DGT576      0.0865
     20  C1'       14.9340   10.2680   -6.7770 C.3   576  DGT576      0.1981
     21  N9        14.4660    9.9700   -8.1510 N.pl3 576  DGT576     -0.2374
     22  C8        14.4810   10.8250   -9.1910 C.3   576  DGT576      0.2245
     23  N7        14.0000   10.2130  -10.2960 N.2   576  DGT576     -0.2322
     24  C5        13.6690    8.9520   -9.9850 C.2   576  DGT576      0.2182
     25  C6        13.0960    7.7670  -10.6790 C.1   576  DGT576      0.2372
     26  O6        12.8130    7.8150  -11.8990 O.2   576  DGT576     -0.2069
     27  N1        12.9050    6.6350   -9.9730 N.2   576  DGT576     -0.2485
     28  C2        13.1960    6.5280   -8.6610 C.1   576  DGT576      0.2531
     29  N2        12.9690    5.3560   -7.9900 N.pl3 576  DGT576     -0.0226
     30  N3        13.7200    7.5840   -7.9760 N.2   576  DGT576     -0.3074
     31  C4        13.9740    8.7840   -8.5710 C.2   576  DGT576      0.2299
@<TRIPOS>BOND
     1    26    25    2
     2    25    24    1
     3    25    27    2
     4    23    24    2
     5    23    22    1
     6    24    31    1
     7    27    28    2
     8    22    21    1
     9    28    29    1
    10    28    30    2
    11    31    21    1
    12    31    30    2
    13    21    20    1
    14    12    10    2
    15    20    16    1
    16    20    19    1
    17    13    10    1
    18    13    14    1
    19    16    15    1
    20    10    11    1
    21    10     9    1
    22    19    17    1
    23    14    15    1
    24     9     6    1
    25    15    17    1
    26    17    18    1
    27     3     1    2
    28     2     1    1
    29     1     5    1
    30     1     4    1
    31     6     5    1
    32     6     8    2
    33     6     7    1
