@<TRIPOS>MOLECULE
3b18_DAO_A_1.pdb
 14 13 0 0 0
SMALL
GASTEIGER

@<TRIPOS>ATOM
      1  O1        -2.0550   15.6080   -7.4220 O.co2 500  DAO500     -0.2457
      2  O2        -1.3550   15.7260   -9.5130 O.co2 500  DAO500     -0.2457
      3  C1        -2.2950   15.6380   -8.6620 C.2   500  DAO500      0.3649
      4  C2        -3.7490   15.5730   -9.0970 C.3   500  DAO500      0.1141
      5  C3        -3.9210   15.1220  -10.5500 C.3   500  DAO500      0.0118
      6  C4        -5.3640   15.3050  -10.9970 C.3   500  DAO500      0.0006
      7  C5        -6.2370   14.2170  -10.4060 C.3   500  DAO500      0.0000
      8  C6        -7.3260   13.9500  -11.4120 C.3   500  DAO500      0.0000
      9  C7        -7.6220   12.4650  -11.3880 C.3   500  DAO500      0.0000
     10  C8        -9.1040   12.2020  -11.5960 C.3   500  DAO500      0.0000
     11  C9        -9.2900   11.3350  -12.8290 C.3   500  DAO500      0.0000
     12  C10       -8.7900    9.9460  -12.5420 C.3   500  DAO500      0.0000
     13  C11       -9.1870    9.1070  -13.7200 C.3   500  DAO500      0.0000
     14  C12       -9.0430    7.6720  -13.2460 C.3   500  DAO500      0.0000
@<TRIPOS>BOND
     1    13    14    1
     2    13    12    1
     3    11    12    1
     4    11    10    1
     5    10     9    1
     6     8     9    1
     7     8     7    1
     8     6     5    1
     9     6     7    1
    10     5     4    1
    11     2     3   ar
    12     4     3    1
    13     3     1   ar
