@<TRIPOS>MOLECULE
3b1c_PLP_A_1.pdb
 15 15 0 0 0
SMALL
GASTEIGER

@<TRIPOS>ATOM
      1  N1         3.9520   54.2850   41.5270 N.ar  401  PLP401     -0.2452
      2  C2         3.2550   54.4250   40.3480 C.ar  401  PLP401      0.0978
      3  C2A        2.4240   53.2710   39.8260 C.3   401  PLP401      0.0555
      4  C3         3.3220   55.6540   39.6900 C.ar  401  PLP401      0.2049
      5  O3         2.6520   55.8030   38.5680 O.3   401  PLP401     -0.2857
      6  C4         4.0620   56.7340   40.2170 C.ar  401  PLP401      0.0182
      7  C4A        4.1840   58.1110   39.5890 C.3   401  PLP401      0.0342
      8  C5         4.7630   56.5340   41.3750 C.ar  401  PLP401      0.0261
      9  C6         4.7120   55.3100   42.0600 C.ar  401  PLP401      0.0965
     10  C5A        5.5720   57.7050   41.8330 C.3   401  PLP401      0.1815
     11  O4P        5.8600   57.6950   43.2000 O.3   401  PLP401     -0.2653
     12  P          6.7540   58.7470   43.9660 P.3   401  PLP401      0.5329
     13  O1P        8.0250   57.9780   44.1510 O.3   401  PLP401     -0.1145
     14  O2P        5.9560   58.7760   45.1840 O.3   401  PLP401     -0.1145
     15  O3P        6.8220   59.9680   43.1550 O.2   401  PLP401     -0.2224
@<TRIPOS>BOND
     1     5     4    1
     2     7     6    1
     3     4     6   ar
     4     4     2   ar
     5     3     2    1
     6     6     8   ar
     7     2     1   ar
     8     8    10    1
     9     8     9   ar
    10     1     9   ar
    11    10    11    1
    12    15    12    2
    13    11    12    1
    14    12    13    1
    15    12    14    1
