@<TRIPOS>MOLECULE
3b1d_PLS_A_1.pdb
 22 22 0 0 0
SMALL
GASTEIGER

@<TRIPOS>ATOM
      1  N          4.5890   57.7090   38.3000 N.3   501  PLS501     -0.2012
      2  CA         4.8690   58.8660   37.4520 C.3   501  PLS501      0.2092
      3  CB         6.1560   59.5900   37.8880 C.3   501  PLS501      0.2109
      4  OG         7.3300   58.8560   37.5460 O.3   501  PLS501     -0.2182
      5  C          4.7450   58.4570   36.0020 C.2   501  PLS501      0.3829
      6  O          5.2560   59.2330   35.1570 O.co2 501  PLS501     -0.2440
      7  OXT        4.2360   57.3330   35.7670 O.co2 501  PLS501     -0.2440
      8  N1         3.8920   54.3630   41.8890 N.ar  501  PLS501     -0.2452
      9  C2         3.2140   54.4100   40.7340 C.ar  501  PLS501      0.0978
     10  C2A        2.3870   53.1810   40.3200 C.3   501  PLS501      0.0555
     11  C3         3.2650   55.5520   39.9370 C.ar  501  PLS501      0.2062
     12  O3         2.5890   55.6040   38.7690 O.3   501  PLS501     -0.2856
     13  C4         4.0270   56.6520   40.3320 C.ar  501  PLS501      0.0353
     14  C4A        4.0860   57.9190   39.4990 C.3   501  PLS501      0.1186
     15  C5         4.6900   56.5730   41.5440 C.ar  501  PLS501      0.0275
     16  C6         4.6040   55.4010   42.3020 C.ar  501  PLS501      0.0965
     17  C5A        5.5540   57.7480   42.0450 C.3   501  PLS501      0.1816
     18  O4P        5.7660   57.6540   43.4160 O.3   501  PLS501     -0.2653
     19  P          6.5070   58.7710   44.2310 P.3   501  PLS501      0.5329
     20  O1P        7.8490   58.1920   44.4630 O.3   501  PLS501     -0.1145
     21  O2P        5.8100   58.7840   45.4880 O.3   501  PLS501     -0.1145
     22  O3P        6.4930   59.9940   43.5130 O.2   501  PLS501     -0.2224
@<TRIPOS>BOND
     1     6     5   ar
     2     7     5   ar
     3     5     2    1
     4     2     3    1
     5     2     1    1
     6     4     3    1
     7     1    14    1
     8    12    11    1
     9    14    13    1
    10    11    13   ar
    11    11     9   ar
    12    10     9    1
    13    13    15   ar
    14     9     8   ar
    15    15    17    1
    16    15    16   ar
    17     8    16   ar
    18    17    18    1
    19    18    19    1
    20    22    19    2
    21    19    20    1
    22    19    21    1
