@<TRIPOS>MOLECULE
3b1d_PLP_A_1.pdb
 15 15 0 0 0
SMALL
GASTEIGER

@<TRIPOS>ATOM
      1  N1         3.7050   54.3220   41.5310 N.ar  401  PLP401     -0.2452
      2  C2         3.1180   54.5050   40.2950 C.ar  401  PLP401      0.0978
      3  C2A        2.4120   53.3530   39.6460 C.3   401  PLP401      0.0555
      4  C3         3.1970   55.7410   39.6550 C.ar  401  PLP401      0.2049
      5  O3         2.6270   55.9230   38.4350 O.3   401  PLP401     -0.2857
      6  C4         3.8630   56.8010   40.2740 C.ar  401  PLP401      0.0182
      7  C4A        3.9350   58.1380   39.5920 C.3   401  PLP401      0.0342
      8  C5         4.4330   56.6080   41.5310 C.ar  401  PLP401      0.0261
      9  C6         4.3540   55.3690   42.1570 C.ar  401  PLP401      0.0965
     10  C5A        5.1590   57.7200   42.2230 C.3   401  PLP401      0.1815
     11  O4P        6.3450   57.3890   42.9770 O.3   401  PLP401     -0.2653
     12  P          6.8740   58.4640   44.0440 P.3   401  PLP401      0.5329
     13  O1P        8.0860   57.8250   44.6190 O.3   401  PLP401     -0.1145
     14  O2P        5.7780   58.6370   45.0270 O.3   401  PLP401     -0.1145
     15  O3P        7.1720   59.6680   43.2320 O.2   401  PLP401     -0.2224
@<TRIPOS>BOND
     1     5     4    1
     2     7     6    1
     3     3     2    1
     4     4     6   ar
     5     4     2   ar
     6     6     8   ar
     7     2     1   ar
     8     1     9   ar
     9     8     9   ar
    10     8    10    1
    11    10    11    1
    12    11    12    1
    13    15    12    2
    14    12    13    1
    15    12    14    1
