@<TRIPOS>MOLECULE
3b1e_P1T_A_1.pdb
 21 21 0 0 0
SMALL
GASTEIGER

@<TRIPOS>ATOM
      1  OP1        7.9360   58.0070   44.5590 O.3   401  P1T401     -0.1145
      2  P          6.6390   58.5050   44.2800 P.3   401  P1T401      0.5329
      3  OP2        5.8180   58.6930   45.4350 O.3   401  P1T401     -0.1145
      4  OP3        6.6370   59.7380   43.5070 O.2   401  P1T401     -0.2224
      5  OP4        5.8270   57.4740   43.4020 O.3   401  P1T401     -0.2653
      6  C5A        5.4900   57.5860   42.0660 C.3   401  P1T401      0.1816
      7  C5         4.6390   56.3900   41.6110 C.ar  401  P1T401      0.0280
      8  C6         4.5840   55.2380   42.4320 C.ar  401  P1T401      0.0965
      9  N1         3.8620   54.1960   42.0440 N.ar  401  P1T401     -0.2452
     10  C2         3.1840   54.1670   40.8870 C.ar  401  P1T401      0.0978
     11  C2A        2.3860   52.9050   40.5610 C.3   401  P1T401      0.0555
     12  C3         3.2040   55.2660   40.0380 C.ar  401  P1T401      0.2067
     13  O3A        2.5170   55.2410   38.8630 O.3   401  P1T401     -0.2856
     14  C4         3.9620   56.4060   40.3940 C.ar  401  P1T401      0.0421
     15  C4A        4.0590   57.6690   39.5480 C.3   401  P1T401      0.1547
     16  N          4.1710   57.4350   38.2280 N.2   401  P1T401     -0.2632
     17  CA         4.5970   58.5270   37.3650 C.2   401  P1T401      0.1338
     18  CB         4.9150   59.7890   37.8520 C.3   401  P1T401      0.0588
     19  C          4.7260   58.2350   35.8930 C.2   401  P1T401      0.4007
     20  O          5.0990   59.1760   35.1720 O.co2 401  P1T401     -0.2392
     21  OXT        4.4150   57.0830   35.4950 O.co2 401  P1T401     -0.2392
@<TRIPOS>BOND
     1    20    19   ar
     2    21    19   ar
     3    19    17    1
     4    17    18    1
     5    17    16    2
     6    16    15    1
     7    13    12    1
     8    15    14    1
     9    12    14   ar
    10    12    10   ar
    11    14     7   ar
    12    11    10    1
    13    10     9   ar
    14     7     6    1
    15     7     8   ar
    16     9     8   ar
    17     6     5    1
    18     5     2    1
    19     4     2    2
    20     2     1    1
    21     2     3    1
