@<TRIPOS>MOLECULE
3b1f_NAD_A_1.pdb
 44 48 0 0 0
SMALL
GASTEIGER

@<TRIPOS>ATOM
      1  PA        24.4740   20.3050   26.3710 P.3   1001  NAD1001     0.2189
      2  O1A       23.0230   20.0100   26.4960 O.3   1001  NAD1001    -0.4371
      3  O2A       25.1130   19.4800   25.3210 O.2   1001  NAD1001    -0.5170
      4  O5B       24.7150   21.8920   26.0870 O.3   1001  NAD1001    -0.3112
      5  C5B       25.9900   22.4220   25.7000 C.3   1001  NAD1001     0.1813
      6  C4B       25.8240   23.8790   25.2530 C.3   1001  NAD1001     0.1821
      7  O4B       27.0760   24.5080   25.0180 O.3   1001  NAD1001    -0.3135
      8  C3B       25.0030   24.0760   23.9690 C.3   1001  NAD1001     0.2184
      9  O3B       24.2630   25.2410   24.2350 O.3   1001  NAD1001    -0.2174
     10  C2B       26.0250   24.3530   22.8470 C.3   1001  NAD1001     0.2570
     11  O2B       25.5670   24.8720   21.5490 O.3   1001  NAD1001    -0.2130
     12  C1B       27.1000   25.0850   23.6920 C.3   1001  NAD1001     0.3186
     13  N9A       28.4810   24.9900   23.1560 N.pl3 1001  NAD1001    -0.1439
     14  C8A       29.2620   23.8550   23.0990 C.3   1001  NAD1001     0.3377
     15  N7A       30.4570   24.1740   22.5660 N.2   1001  NAD1001    -0.2095
     16  C5A       30.4590   25.4950   22.2990 C.2   1001  NAD1001     0.2526
     17  C6A       31.4260   26.3330   21.7290 C.2   1001  NAD1001     0.4393
     18  N6A       32.5640   25.8070   21.2580 N.pl3 1001  NAD1001     0.2180
     19  N1A       31.1200   27.6930   21.5540 N.2   1001  NAD1001     0.0021
     20  C2A       29.8790   28.2260   21.9330 C.3   1001  NAD1001     0.5254
     21  N3A       28.9410   27.3670   22.4940 N.2   1001  NAD1001    -0.0055
     22  C4A       29.2210   26.0340   22.6650 C.2   1001  NAD1001     0.3518
     23  O3        25.3000   20.0400   27.7420 O.3   1001  NAD1001    -0.2703
     24  PN        24.8210   20.5480   29.2170 P.3   1001  NAD1001     0.2189
     25  O1N       23.9290   21.7520   29.1020 O.2   1001  NAD1001    -0.5170
     26  O2N       24.3930   19.2570   29.8560 O.3   1001  NAD1001    -0.4371
     27  O5D       26.1940   20.9830   29.9850 O.3   1001  NAD1001    -0.3112
     28  C5D       26.9180   22.1630   29.7360 C.3   1001  NAD1001     0.1813
     29  C4D       28.0180   22.1650   30.7890 C.3   1001  NAD1001     0.1799
     30  O4D       27.4170   22.2010   32.0950 O.3   1001  NAD1001    -0.3327
     31  C3D       28.9390   20.9240   30.7900 C.3   1001  NAD1001     0.2158
     32  O3D       30.0010   20.8850   29.8070 O.3   1001  NAD1001    -0.2175
     33  C2D       29.3460   20.7630   32.2710 C.3   1001  NAD1001     0.2309
     34  O2D       30.5300   21.4530   32.6490 O.3   1001  NAD1001    -0.2158
     35  C1D       28.1800   21.4220   33.0400 C.3   1001  NAD1001     0.2263
     36  N1N       27.3280   20.4470   33.7940 N.pl3 1001  NAD1001    -0.2787
     37  C2N       26.8320   19.3160   33.1450 C.3   1001  NAD1001     0.1244
     38  C3N       26.0050   18.4010   33.7960 C.2   1001  NAD1001     0.0544
     39  C7N       25.4140   17.1990   33.0640 C.2   1001  NAD1001     0.2818
     40  O7N       25.2420   15.9980   33.7690 O.2   1001  NAD1001    -0.2670
     41  N7N       25.0450   17.2480   31.7890 N.am  1001  NAD1001    -0.0839
     42  C4N       25.6920   18.6480   35.1410 C.2   1001  NAD1001     0.0033
     43  C5N       26.1750   19.7910   35.7690 C.2   1001  NAD1001     0.0157
     44  C6N       26.9970   20.7050   35.0940 C.2   1001  NAD1001     0.0633
@<TRIPOS>BOND
     1    18    17    1
     2    11    10    1
     3    19    17    2
     4    19    20    1
     5    17    16    1
     6    20    21    1
     7    16    15    2
     8    16    22    1
     9    21    22    2
    10    15    14    1
    11    22    13    1
    12    10    12    1
    13    10     8    1
    14    14    13    1
    15    13    12    1
    16    12     7    1
    17     8     9    1
    18     8     6    1
    19     7     6    1
    20     6     5    1
    21     3     1    2
    22     5     4    1
    23     4     1    1
    24     1     2    1
    25     1    23    1
    26    23    24    1
    27    25    24    2
    28    24    26    1
    29    24    27    1
    30    28    27    1
    31    28    29    1
    32    32    31    1
    33    29    31    1
    34    29    30    1
    35    31    33    1
    36    41    39   am
    37    30    35    1
    38    33    34    1
    39    33    35    1
    40    35    36    1
    41    39    40    2
    42    39    38    1
    43    37    36    1
    44    37    38    1
    45    36    44    1
    46    38    42    2
    47    44    43    2
    48    42    43    1
