@<TRIPOS>MOLECULE
3b1j_NAD_A_1.pdb
 44 48 0 0 0
SMALL
GASTEIGER

@<TRIPOS>ATOM
      1  PA        -4.4500   26.4960  -17.1900 P.3   340  NAD340      0.2189
      2  O1A       -3.0560   26.9420  -16.9160 O.3   340  NAD340     -0.4371
      3  O2A       -5.2580   27.4900  -17.9810 O.2   340  NAD340     -0.5170
      4  O5B       -5.2230   26.3340  -15.8720 O.3   340  NAD340     -0.3112
      5  C5B       -4.6040   26.2580  -14.5680 C.3   340  NAD340      0.1813
      6  C4B       -5.2550   27.3010  -13.6550 C.3   340  NAD340      0.1821
      7  O4B       -4.9400   26.9890  -12.3030 O.3   340  NAD340     -0.3135
      8  C3B       -4.8390   28.7620  -13.8320 C.3   340  NAD340      0.2184
      9  O3B       -5.9550   29.6490  -13.7520 O.3   340  NAD340     -0.2174
     10  C2B       -3.9010   29.0300  -12.6880 C.3   340  NAD340      0.2570
     11  O2B       -3.8520   30.4010  -12.2760 O.3   340  NAD340     -0.2130
     12  C1B       -4.4910   28.1430  -11.5880 C.3   340  NAD340      0.3186
     13  N9A       -3.5630   27.6760  -10.5570 N.pl3 340  NAD340     -0.1439
     14  C8A       -2.2850   27.1960  -10.7040 C.3   340  NAD340      0.3377
     15  N7A       -1.7500   26.8570   -9.5050 N.2   340  NAD340     -0.2095
     16  C5A       -2.6990   27.1240   -8.5920 C.2   340  NAD340      0.2526
     17  C6A       -2.8210   27.0020   -7.1410 C.2   340  NAD340      0.4393
     18  N6A       -1.7440   26.4970   -6.4420 N.pl3 340  NAD340      0.2180
     19  N1A       -3.9830   27.3940   -6.5510 N.2   340  NAD340      0.0021
     20  C2A       -5.0730   27.9000   -7.2400 C.3   340  NAD340      0.5254
     21  N3A       -5.0520   28.0400   -8.5990 N.2   340  NAD340     -0.0055
     22  C4A       -3.9220   27.6730   -9.2820 C.2   340  NAD340      0.3518
     23  O3        -4.4110   25.0370  -17.7740 O.3   340  NAD340     -0.2703
     24  PN        -5.5560   23.9910  -18.1860 P.3   340  NAD340      0.2189
     25  O1N       -6.9290   24.4710  -17.6090 O.3   340  NAD340     -0.4371
     26  O2N       -5.4980   23.8230  -19.6840 O.2   340  NAD340     -0.5170
     27  O5D       -5.1480   22.6700  -17.5240 O.3   340  NAD340     -0.3112
     28  C5D       -5.2680   22.4190  -16.1170 C.3   340  NAD340      0.1813
     29  C4D       -5.2600   20.9150  -15.8470 C.3   340  NAD340      0.1799
     30  O4D       -6.2450   20.2700  -16.6740 O.3   340  NAD340     -0.3327
     31  C3D       -3.9650   20.1690  -16.1990 C.3   340  NAD340      0.2158
     32  O3D       -3.6560   19.1320  -15.2860 O.3   340  NAD340     -0.2175
     33  C2D       -4.1920   19.6450  -17.6090 C.3   340  NAD340      0.2309
     34  O2D       -3.3350   18.5820  -18.0330 O.3   340  NAD340     -0.2158
     35  C1D       -5.6770   19.2920  -17.5680 C.3   340  NAD340      0.2263
     36  N1N       -6.3200   19.2230  -18.8970 N.pl3 340  NAD340     -0.2787
     37  C2N       -6.1520   20.2230  -19.8400 C.3   340  NAD340      0.1244
     38  C3N       -6.7820   20.1230  -21.0860 C.2   340  NAD340      0.0544
     39  C7N       -6.6420   21.1690  -22.1670 C.2   340  NAD340      0.2818
     40  O7N       -6.3690   22.3310  -21.7850 O.2   340  NAD340     -0.2670
     41  N7N       -6.8240   20.8550  -23.4720 N.am  340  NAD340     -0.0839
     42  C4N       -7.5960   18.9630  -21.3330 C.2   340  NAD340      0.0033
     43  C5N       -7.7550   17.9560  -20.3640 C.2   340  NAD340      0.0157
     44  C6N       -7.0940   18.1120  -19.1310 C.2   340  NAD340      0.0633
@<TRIPOS>BOND
     1    41    39   am
     2    39    40    2
     3    39    38    1
     4    42    38    2
     5    42    43    1
     6    38    37    1
     7    43    44    2
     8    37    36    1
     9    26    24    2
    10    44    36    1
    11    36    35    1
    12    24    23    1
    13    24    25    1
    14    24    27    1
    15    34    33    1
    16     3     1    2
    17    23     1    1
    18    33    35    1
    19    33    31    1
    20    35    30    1
    21    27    28    1
    22     1     2    1
    23     1     4    1
    24    30    29    1
    25    31    29    1
    26    31    32    1
    27    28    29    1
    28     4     5    1
    29     5     6    1
    30     8     9    1
    31     8     6    1
    32     8    10    1
    33     6     7    1
    34    10    11    1
    35    10    12    1
    36     7    12    1
    37    12    13    1
    38    14    13    1
    39    14    15    1
    40    13    22    1
    41    15    16    2
    42    22    21    2
    43    22    16    1
    44    21    20    1
    45    16    17    1
    46    20    19    1
    47    17    19    2
    48    17    18    1
