@<TRIPOS>MOLECULE
3b1k_NAD_A_1.pdb
 44 48 0 0 0
SMALL
GASTEIGER

@<TRIPOS>ATOM
      1  PA       -22.1460   14.9650    4.4110 P.3   340  NAD340      0.2189
      2  O1A      -23.2070   15.6990    5.2150 O.2   340  NAD340     -0.5170
      3  O2A      -21.5000   13.9810    5.3750 O.3   340  NAD340     -0.4371
      4  O5B      -21.1060   16.0670    3.8830 O.3   340  NAD340     -0.3112
      5  C5B      -21.5710   17.2830    4.4600 C.3   340  NAD340      0.1813
      6  C4B      -20.4600   17.9530    5.2700 C.3   340  NAD340      0.1821
      7  O4B      -20.1120   19.1770    4.6140 O.3   340  NAD340     -0.3135
      8  C3B      -21.0220   18.2900    6.6630 C.3   340  NAD340      0.2184
      9  O3B      -20.2920   17.6860    7.7180 O.3   340  NAD340     -0.2174
     10  C2B      -20.8850   19.8190    6.7770 C.3   340  NAD340      0.2570
     11  O2B      -20.3650   20.1600    8.0530 O.3   340  NAD340     -0.2130
     12  C1B      -19.9070   20.1750    5.6320 C.3   340  NAD340      0.3186
     13  N9A      -20.1530   21.5160    5.0980 N.pl3 340  NAD340     -0.1439
     14  C8A      -21.2140   21.9760    4.3650 C.3   340  NAD340      0.3377
     15  N7A      -21.0450   23.2420    4.0690 N.2   340  NAD340     -0.2095
     16  C5A      -19.8700   23.6710    4.5950 C.2   340  NAD340      0.2526
     17  C6A      -19.1720   24.8960    4.6130 C.2   340  NAD340      0.4393
     18  N6A      -19.6590   26.0370    3.9970 N.pl3 340  NAD340      0.2180
     19  N1A      -18.0070   24.9360    5.2520 N.2   340  NAD340      0.0021
     20  C2A      -17.5090   23.8600    5.8560 C.3   340  NAD340      0.5254
     21  N3A      -18.1120   22.6850    5.8750 N.2   340  NAD340     -0.0055
     22  C4A      -19.2880   22.5620    5.2600 C.2   340  NAD340      0.3518
     23  O3       -22.7510   14.2810    3.0700 O.3   340  NAD340     -0.2703
     24  PN       -21.6010   13.5440    2.2210 P.3   340  NAD340      0.2189
     25  O1N      -20.1770   14.0130    2.5900 O.3   340  NAD340     -0.4371
     26  O2N      -21.7550   12.0420    2.5290 O.2   340  NAD340     -0.5170
     27  O5D      -21.8650   13.7700    0.6560 O.3   340  NAD340     -0.3112
     28  C5D      -21.4640   15.0960    0.3530 C.3   340  NAD340      0.1813
     29  C4D      -21.2720   15.1510   -1.1430 C.3   340  NAD340      0.1799
     30  O4D      -21.0380   13.7850   -1.4290 O.3   340  NAD340     -0.3327
     31  C3D      -22.5460   15.4380   -1.9700 C.3   340  NAD340      0.2158
     32  O3D      -22.5080   16.7380   -2.5610 O.3   340  NAD340     -0.2175
     33  C2D      -22.6340   14.3430   -3.0710 C.3   340  NAD340      0.2309
     34  O2D      -22.6860   14.8840   -4.4040 O.3   340  NAD340     -0.2158
     35  C1D      -21.3240   13.5750   -2.8320 C.3   340  NAD340      0.2263
     36  N1N      -21.5240   12.1350   -2.8660 N.pl3 340  NAD340     -0.2787
     37  C2N      -21.7520   11.6530   -1.6820 C.3   340  NAD340      0.1244
     38  C3N      -21.9570   10.3050   -1.4870 C.2   340  NAD340      0.0544
     39  C7N      -22.2120    9.9150   -0.0860 C.2   340  NAD340      0.2818
     40  O7N      -22.1680   10.7990    0.7490 O.2   340  NAD340     -0.2670
     41  N7N      -22.4830    8.6440    0.2700 N.am  340  NAD340     -0.0839
     42  C4N      -21.9140    9.4440   -2.5950 C.2   340  NAD340      0.0033
     43  C5N      -21.6540   10.0210   -3.8220 C.2   340  NAD340      0.0157
     44  C6N      -21.4630   11.3820   -3.9420 C.2   340  NAD340      0.0633
@<TRIPOS>BOND
     1    34    33    1
     2    44    43    2
     3    44    36    1
     4    43    42    1
     5    33    35    1
     6    33    31    1
     7    36    35    1
     8    36    37    1
     9    35    30    1
    10    42    38    2
    11    32    31    1
    12    31    29    1
    13    37    38    1
    14    38    39    1
    15    30    29    1
    16    29    28    1
    17    39    41   am
    18    39    40    2
    19    28    27    1
    20    27    24    1
    21    24    26    2
    22    24    25    1
    23    24    23    1
    24    23     1    1
    25     4     1    1
    26     4     5    1
    27    18    17    1
    28    15    14    1
    29    15    16    2
    30    14    13    1
    31     1     2    2
    32     1     3    1
    33     5     6    1
    34    16    17    1
    35    16    22    1
    36    17    19    2
    37     7     6    1
    38     7    12    1
    39    13    22    1
    40    13    12    1
    41    19    20    1
    42    22    21    2
    43     6     8    1
    44    12    10    1
    45    20    21    1
    46     8    10    1
    47     8     9    1
    48    10    11    1
