@<TRIPOS>MOLECULE
3b1m_KRC_A_1.pdb
 38 42 0 0 0
SMALL
GASTEIGER

@<TRIPOS>ATOM
      1  C1        15.7740   50.8300   64.6170 C.2     1  KRC1        0.1045
      2  C2        16.1630   51.3720   63.4670 C.2     1  KRC1        0.1823
      3  C3        15.9890   50.6360   62.1930 C.3     1  KRC1        0.1135
      4  C4        15.2070   49.5540   62.1390 C.3     1  KRC1        0.1841
      5  C5        14.9780   48.7110   63.3990 C.3     1  KRC1        0.1173
      6  C6        14.8810   49.6450   64.6160 C.2     1  KRC1        0.1851
      7  O7        14.4690   48.9240   61.2220 O.3     1  KRC1       -0.4779
      8  C8        13.4550   48.1580   61.7360 C.ar    1  KRC1        0.1453
      9  C9        13.6810   47.9700   63.1160 C.ar    1  KRC1        0.0607
     10  C10       12.3410   47.5920   61.1330 C.ar    1  KRC1        0.1226
     11  C11       11.4420   46.8460   61.8930 C.ar    1  KRC1        0.1492
     12  C12       11.6630   46.6650   63.2530 C.ar    1  KRC1        0.0789
     13  C13       12.7740   47.2230   63.8640 C.ar    1  KRC1        0.1982
     14  O14       14.1550   49.4080   65.5780 O.2     1  KRC1       -0.2907
     15  O15       12.9800   47.0320   65.2130 O.3     1  KRC1       -0.2867
     16  O16       10.3340   46.2800   61.2970 O.3     1  KRC1       -0.4711
     17  C17       12.1040   47.7790   59.6940 C.2     1  KRC1        0.2710
     18  N18       10.8360   47.9200   59.2710 N.am    1  KRC1       -0.1966
     19  C19       16.1410   47.7400   63.5900 C.3     1  KRC1        0.0160
     20  O20       13.0450   47.7900   58.9090 O.2     1  KRC1       -0.2681
     21  C21       16.2490   51.3830   65.9010 C.2     1  KRC1        0.1790
     22  O22       16.7400   52.5980   63.4560 O.2     1  KRC1       -0.2910
     23  C23       17.7510   51.5090   66.1720 C.3     1  KRC1        0.0775
     24  O24       15.4430   51.7390   66.7480 O.2     1  KRC1       -0.2911
     25  C25        9.1820   45.7330   61.8970 C.3     1  KRC1        0.2525
     26  C26       10.5550   48.0910   57.8540 C.3     1  KRC1        0.1415
     27  C27        9.1190   48.5030   57.6710 C.ar    1  KRC1       -0.0045
     28  C28        8.7890   49.8260   57.3350 C.ar    1  KRC1       -0.0245
     29  C29        7.4490   50.1980   57.1720 C.ar    1  KRC1       -0.0045
     30  C30        6.4310   49.2540   57.3420 C.ar    1  KRC1       -0.0003
     31  C31        6.7490   47.9530   57.6720 C.ar    1  KRC1       -0.0003
     32  C32        8.0920   47.5690   57.8380 C.ar    1  KRC1       -0.0026
     33  C33        5.7310   47.0340   57.8370 C.ar    1  KRC1       -0.0000
     34  C34        6.0340   45.7080   58.1710 C.ar    1  KRC1       -0.0000
     35  C35        7.3670   45.3190   58.3370 C.ar    1  KRC1       -0.0000
     36  C36        8.3970   46.2550   58.1690 C.ar    1  KRC1       -0.0003
     37  C37        9.8750   50.8470   57.1500 C.3     1  KRC1        0.0261
     38  C38       10.3990   50.8580   55.7130 C.3     1  KRC1        0.0050
@<TRIPOS>BOND
     1    38    37    1
     2    37    28    1
     3    29    28   ar
     4    29    30   ar
     5    28    27   ar
     6    30    31   ar
     7    27    32   ar
     8    27    26    1
     9    31    33   ar
    10    31    32   ar
    11    33    34   ar
    12    32    36   ar
    13    26    18    1
    14    36    35   ar
    15    34    35   ar
    16    20    17    2
    17    18    17   am
    18    17    10    1
    19    10     8   ar
    20    10    11   ar
    21     7     8    1
    22     7     4    1
    23    16    11    1
    24    16    25    1
    25     8     9   ar
    26    11    12   ar
    27     4     3    1
    28     4     5    1
    29     3     2    1
    30     9     5    1
    31     9    13   ar
    32    12    13   ar
    33     5    19    1
    34     5     6    1
    35    22     2    1
    36     2     1    2
    37    13    15    1
    38     6     1    1
    39     6    14    2
    40     1    21    1
    41    21    23    1
    42    21    24    2
