@<TRIPOS>MOLECULE
3b1n_MZR_A_1.pdb
 18 19 0 0 0
SMALL
GASTEIGER

@<TRIPOS>ATOM
      1  N1         1.5810   59.2300   14.1440 N.am  401  MZR401     -0.0822
      2  O3        -0.3770   60.5080   15.4750 O.2   401  MZR401     -0.2680
      3  C4        -0.6010   59.2150   15.9920 C.2   401  MZR401      0.2742
      4  C5         0.1570   58.0310   15.6280 C.2   401  MZR401      0.1881
      5  C6         1.2820   58.0720   14.6830 C.2   401  MZR401      0.3061
      6  O6         1.8950   56.9940   14.4350 O.2   401  MZR401     -0.2648
      7  N7        -0.4000   57.0480   16.3680 N.2   401  MZR401     -0.2390
      8  C8        -1.4410   57.5410   17.1220 C.3   401  MZR401      0.2243
      9  N9        -1.5870   58.8910   16.8410 N.am  401  MZR401     -0.2289
     10  C1'       -2.5270   59.8140   17.4950 C.3   401  MZR401      0.2297
     11  C2'       -3.9760   59.3820   17.5470 C.3   401  MZR401      0.2310
     12  O2'       -4.6200   59.9310   16.3950 O.3   401  MZR401     -0.2158
     13  C3'       -4.4430   59.8530   18.9420 C.3   401  MZR401      0.2159
     14  O3'       -5.4870   60.8610   18.8630 O.3   401  MZR401     -0.2175
     15  C4'       -3.2040   60.4150   19.6160 C.3   401  MZR401      0.1828
     16  O4'       -2.1400   59.7860   18.8590 O.3   401  MZR401     -0.3325
     17  C5'       -3.0700   59.9580   21.0700 C.3   401  MZR401      0.2142
     18  O5'       -2.0140   60.5940   21.9140 O.3   401  MZR401     -0.2176
@<TRIPOS>BOND
     1     1     5   am
     2     6     5    2
     3     5     4    1
     4     2     3    2
     5     4     3    1
     6     4     7    2
     7     3     9   am
     8     7     8    1
     9    12    11    1
    10     9     8    1
    11     9    10    1
    12    10    11    1
    13    10    16    1
    14    11    13    1
    15    16    15    1
    16    14    13    1
    17    13    15    1
    18    15    17    1
    19    17    18    1
