@<TRIPOS>MOLECULE
3b1n_ADP_A_1.pdb
 27 29 0 0 0
SMALL
GASTEIGER

@<TRIPOS>ATOM
      1  PB         0.6950   59.5490   27.3210 P.3   402  ADP402      0.5373
      2  O1B       -0.8020   59.7370   27.0150 O.3   402  ADP402     -0.1143
      3  O2B        1.0910   58.1210   27.4740 O.3   402  ADP402     -0.1143
      4  O3B        1.5040   60.4170   26.4110 O.2   402  ADP402     -0.2221
      5  PA         0.4770   59.5640   30.2840 P.3   402  ADP402      0.2231
      6  O1A        1.8120   59.6050   30.9720 O.3   402  ADP402     -0.4370
      7  O2A       -0.3130   58.2870   30.3500 O.2   402  ADP402     -0.5169
      8  O3A        0.7120   60.1250   28.8400 O.3   402  ADP402     -0.2261
      9  O5'       -0.5240   60.6600   30.9260 O.3   402  ADP402     -0.3111
     10  C5'       -0.1810   62.0660   30.8530 C.3   402  ADP402      0.1813
     11  C4'       -0.5810   62.7410   32.1810 C.3   402  ADP402      0.1821
     12  O4'       -2.0230   62.5690   32.3480 O.3   402  ADP402     -0.3135
     13  C3'       -0.0090   62.1450   33.4570 C.3   402  ADP402      0.2184
     14  O3'        1.3170   62.6550   33.6460 O.3   402  ADP402     -0.2174
     15  C2'       -1.0350   62.5290   34.4950 C.3   402  ADP402      0.2570
     16  O2'       -0.8140   63.8860   34.8600 O.3   402  ADP402     -0.2130
     17  C1'       -2.3690   62.4630   33.7160 C.3   402  ADP402      0.3186
     18  N9        -2.8610   61.0990   33.9690 N.pl3 402  ADP402     -0.1439
     19  C8        -2.5910   59.9930   33.2260 C.3   402  ADP402      0.3377
     20  N7        -3.1570   58.8650   33.7380 N.2   402  ADP402     -0.2095
     21  C5        -3.7760   59.2480   34.8930 C.2   402  ADP402      0.2526
     22  C6        -4.5400   58.5970   35.9530 C.2   402  ADP402      0.4393
     23  N6        -4.7890   57.2760   35.9890 N.pl3 402  ADP402      0.2180
     24  N1        -4.9980   59.4060   36.9760 N.2   402  ADP402      0.0021
     25  C2        -4.8150   60.7390   36.9520 C.3   402  ADP402      0.5254
     26  N3        -4.1210   61.3810   36.0230 N.2   402  ADP402     -0.0055
     27  C4        -3.5880   60.6800   34.9940 C.2   402  ADP402      0.3518
@<TRIPOS>BOND
     1     4     1    2
     2     2     1    1
     3     1     3    1
     4     1     8    1
     5     8     5    1
     6     5     7    2
     7     5     9    1
     8     5     6    1
     9    10     9    1
    10    10    11    1
    11    11    12    1
    12    11    13    1
    13    12    17    1
    14    19    20    1
    15    19    18    1
    16    13    14    1
    17    13    15    1
    18    17    18    1
    19    17    15    1
    20    20    21    2
    21    18    27    1
    22    15    16    1
    23    21    27    1
    24    21    22    1
    25    27    26    2
    26    22    23    1
    27    22    24    2
    28    26    25    1
    29    25    24    1
