@<TRIPOS>MOLECULE
3b1p_ADP_A_1.pdb
 27 29 0 0 0
SMALL
GASTEIGER

@<TRIPOS>ATOM
      1  PB       -12.3900  -32.1340   17.2690 P.3   402  ADP402      0.5373
      2  O1B      -12.6900  -32.7220   15.9180 O.2   402  ADP402     -0.2221
      3  O2B      -11.3330  -32.8800   18.0770 O.3   402  ADP402     -0.1143
      4  O3B      -12.1010  -30.6970   17.2400 O.3   402  ADP402     -0.1143
      5  PA       -14.4480  -33.2690   19.0540 P.3   402  ADP402      0.2231
      6  O1A      -13.8720  -34.6710   18.9450 O.2   402  ADP402     -0.5169
      7  O2A      -14.5220  -32.7160   20.4740 O.3   402  ADP402     -0.4370
      8  O3A      -13.7840  -32.1880   18.1050 O.3   402  ADP402     -0.2261
      9  O5'      -15.9170  -33.4370   18.3960 O.3   402  ADP402     -0.3111
     10  C5'      -16.6940  -32.2510   18.2720 C.3   402  ADP402      0.1813
     11  C4'      -18.1670  -32.5700   18.5780 C.3   402  ADP402      0.1821
     12  O4'      -18.6090  -33.6070   17.6980 O.3   402  ADP402     -0.3135
     13  C3'      -18.4290  -33.1210   19.9530 C.3   402  ADP402      0.2184
     14  O3'      -18.5160  -32.0760   20.9290 O.3   402  ADP402     -0.2174
     15  C2'      -19.7020  -33.9240   19.7220 C.3   402  ADP402      0.2570
     16  O2'      -20.7790  -32.9520   19.7950 O.3   402  ADP402     -0.2130
     17  C1'      -19.5360  -34.4980   18.3090 C.3   402  ADP402      0.3186
     18  N9       -18.8790  -35.8120   18.4790 N.pl3 402  ADP402     -0.1439
     19  C8       -17.5330  -36.1110   18.4860 C.3   402  ADP402      0.3377
     20  N7       -17.3520  -37.4310   18.8000 N.2   402  ADP402     -0.2095
     21  C5       -18.6190  -37.9860   18.9340 C.2   402  ADP402      0.2526
     22  C6       -19.1890  -39.3330   19.2410 C.2   402  ADP402      0.4393
     23  N6       -18.3530  -40.3910   19.4420 N.pl3 402  ADP402      0.2180
     24  N1       -20.5410  -39.4540   19.3090 N.2   402  ADP402      0.0021
     25  C2       -21.3590  -38.3840   19.1040 C.3   402  ADP402      0.5254
     26  N3       -20.9270  -37.1440   18.8410 N.2   402  ADP402     -0.0055
     27  C4       -19.5940  -36.9060   18.7350 C.2   402  ADP402      0.3518
@<TRIPOS>BOND
     1     2     1    2
     2     4     1    1
     3     1     3    1
     4     1     8    1
     5    12    17    1
     6    12    11    1
     7     8     5    1
     8    10     9    1
     9    10    11    1
    10    17    18    1
    11    17    15    1
    12     9     5    1
    13    18    19    1
    14    18    27    1
    15    19    20    1
    16    11    13    1
    17    27    26    2
    18    27    21    1
    19    20    21    2
    20    26    25    1
    21    21    22    1
    22     6     5    2
    23     5     7    1
    24    25    24    1
    25    22    24    2
    26    22    23    1
    27    15    16    1
    28    15    13    1
    29    13    14    1
