@<TRIPOS>MOLECULE
3b1p_NOS_A_1.pdb
 19 21 0 0 0
SMALL
GASTEIGER

@<TRIPOS>ATOM
      1  N9        -5.4810  -30.1530    9.0480 N.pl3 401  NOS401     -0.1435
      2  C4        -4.8050  -29.0020    9.0890 C.2   401  NOS401      0.3528
      3  N3        -5.0050  -27.7100    8.6710 N.2   401  NOS401     -0.0334
      4  C2        -4.1180  -26.7300    8.8940 C.3   401  NOS401      0.4017
      5  N1        -2.9470  -27.0110    9.5540 N.2   401  NOS401     -0.1458
      6  C6        -2.6360  -28.2580    9.9910 C.1   401  NOS401      0.1792
      7  O6        -1.4950  -28.4470   10.7030 O.2   401  NOS401     -0.2203
      8  C5        -3.5940  -29.3550    9.8640 C.2   401  NOS401      0.2446
      9  N7        -3.6330  -30.6650   10.1700 N.2   401  NOS401     -0.2054
     10  C8        -4.8080  -31.1750    9.6680 C.3   401  NOS401      0.3382
     11  C5'       -9.6640  -31.6430   10.3790 C.3   401  NOS401      0.2143
     12  O5'      -10.0660  -30.5810   11.2790 O.3   401  NOS401     -0.2176
     13  C4'       -8.8810  -31.0090    9.2180 C.3   401  NOS401      0.1851
     14  O4'       -7.6530  -30.4690    9.6940 O.3   401  NOS401     -0.3134
     15  C1'       -6.8310  -30.2830    8.4880 C.3   401  NOS401      0.3186
     16  C2'       -7.0920  -31.5330    7.7050 C.3   401  NOS401      0.2570
     17  O2'       -7.0550  -31.1310    6.3310 O.3   401  NOS401     -0.2130
     18  C3'       -8.4730  -32.0070    8.1400 C.3   401  NOS401      0.2186
     19  O3'       -9.4230  -31.9600    7.0270 O.3   401  NOS401     -0.2174
@<TRIPOS>BOND
     1    17    16    1
     2    19    18    1
     3    16    18    1
     4    16    15    1
     5    18    13    1
     6    15     1    1
     7    15    14    1
     8     3     4    1
     9     3     2    2
    10     4     5    1
    11     1     2    1
    12     1    10    1
    13     2     8    1
    14    13    14    1
    15    13    11    1
    16     5     6    2
    17    10     9    1
    18     8     6    1
    19     8     9    2
    20     6     7    2
    21    11    12    1
