@<TRIPOS>MOLECULE
3b1q_NOS_A_1.pdb
 19 21 0 0 0
SMALL
GASTEIGER

@<TRIPOS>ATOM
      1  N9        29.5800   22.0060   65.2300 N.pl3 401  NOS401     -0.1435
      2  C4        30.7770   22.5670   65.1000 C.2   401  NOS401      0.3528
      3  N3        31.3530   23.7150   65.5550 N.2   401  NOS401     -0.0334
      4  C2        32.6270   24.0100   65.2530 C.3   401  NOS401      0.4017
      5  N1        33.3740   23.1920   64.4790 N.2   401  NOS401     -0.1458
      6  C6        32.8760   22.0430   63.9500 C.1   401  NOS401      0.1792
      7  O6        33.6010   21.2450   63.1770 O.2   401  NOS401     -0.2203
      8  C5        31.5150   21.6380   64.2390 C.2   401  NOS401      0.2446
      9  N7        30.7110   20.6020   63.9620 N.2   401  NOS401     -0.2054
     10  C8        29.5310   20.8410   64.5710 C.3   401  NOS401      0.3382
     11  C5'       27.0000   20.7040   68.9090 C.3   401  NOS401      0.2143
     12  O5'       28.0020   20.8110   69.9680 O.3   401  NOS401     -0.2176
     13  C4'       27.2910   21.8850   67.9710 C.3   401  NOS401      0.1851
     14  O4'       28.5500   21.7160   67.2270 O.3   401  NOS401     -0.3134
     15  C1'       28.5240   22.5950   66.1050 C.3   401  NOS401      0.3186
     16  C2'       27.0960   22.4470   65.6080 C.3   401  NOS401      0.2570
     17  O2'       26.7620   23.6950   64.9980 O.3   401  NOS401     -0.2130
     18  C3'       26.2830   22.0480   66.8230 C.3   401  NOS401      0.2186
     19  O3'       25.2190   22.9670   67.1420 O.3   401  NOS401     -0.2174
@<TRIPOS>BOND
     1     7     6    2
     2     6     8    1
     3     6     5    2
     4     9     8    2
     5     9    10    1
     6     8     2    1
     7     5     4    1
     8    10     1    1
     9    17    16    1
    10     2     1    1
    11     2     3    2
    12     1    15    1
    13     4     3    1
    14    16    15    1
    15    16    18    1
    16    15    14    1
    17    18    19    1
    18    18    13    1
    19    14    13    1
    20    13    11    1
    21    11    12    1
