@<TRIPOS>MOLECULE
3b1r_AMP_A_1.pdb
 23 25 0 0 0
SMALL
GASTEIGER

@<TRIPOS>ATOM
      1  P         53.6410  -20.7800   15.3030 P.3   501  AMP501      0.5327
      2  O1P       52.6680  -21.9290   15.5060 O.3   501  AMP501     -0.1145
      3  O2P       55.0900  -21.1180   15.5640 O.3   501  AMP501     -0.1145
      4  O3P       53.4520  -20.0750   13.9790 O.2   501  AMP501     -0.2224
      5  O5'       53.2090  -19.6810   16.3920 O.3   501  AMP501     -0.2675
      6  C5'       54.0790  -18.6410   16.8340 C.3   501  AMP501      0.1860
      7  C4'       53.2070  -17.4270   17.1100 C.3   501  AMP501      0.1823
      8  O4'       52.3630  -17.7090   18.2210 O.3   501  AMP501     -0.3135
      9  C3'       54.0400  -16.2200   17.5240 C.3   501  AMP501      0.2184
     10  O3'       54.1840  -15.3240   16.3940 O.3   501  AMP501     -0.2174
     11  C2'       53.3240  -15.6600   18.7610 C.3   501  AMP501      0.2570
     12  O2'       53.0470  -14.2650   18.6280 O.3   501  AMP501     -0.2130
     13  C1'       52.0250  -16.4730   18.8150 C.3   501  AMP501      0.3186
     14  N9        51.5100  -16.8650   20.1260 N.pl3 501  AMP501     -0.1439
     15  C8        52.2230  -17.4410   21.1100 C.3   501  AMP501      0.3377
     16  N7        51.4440  -17.7210   22.1660 N.2   501  AMP501     -0.2095
     17  C5        50.2010  -17.3230   21.8440 C.2   501  AMP501      0.2526
     18  C6        48.9120  -17.3230   22.5350 C.2   501  AMP501      0.4393
     19  N6        48.8410  -17.8260   23.7880 N.pl3 501  AMP501      0.2180
     20  N1        47.8480  -16.8280   21.8650 N.2   501  AMP501      0.0021
     21  C2        47.9390  -16.3280   20.6150 C.3   501  AMP501      0.5254
     22  N3        49.1030  -16.2850   19.9280 N.2   501  AMP501     -0.0055
     23  C4        50.2410  -16.7640   20.4940 C.2   501  AMP501      0.3518
@<TRIPOS>BOND
     1     4     1    2
     2     1     2    1
     3     1     3    1
     4     1     5    1
     5     5     6    1
     6    10     9    1
     7     6     7    1
     8     7     9    1
     9     7     8    1
    10     9    11    1
    11     8    13    1
    12    12    11    1
    13    11    13    1
    14    13    14    1
    15    22    23    2
    16    22    21    1
    17    14    23    1
    18    14    15    1
    19    23    17    1
    20    21    20    1
    21    15    16    1
    22    17    16    2
    23    17    18    1
    24    20    18    2
    25    18    19    1
