@<TRIPOS>MOLECULE
3b1t_YCL_A_1.pdb
 23 23 0 0 0
SMALL
GASTEIGER

@<TRIPOS>ATOM
      1  C1       -26.2840   20.0440  -21.7230 C.2   800  YCL800      0.3879
      2  O1       -25.5490   20.8160  -21.0650 O.co2 800  YCL800     -0.2406
      3  O2       -27.3160   19.5380  -21.2270 O.co2 800  YCL800     -0.2406
      4  NAA      -21.7900   15.6230  -22.9010 N.am  800  YCL800     -0.0863
      5  NAC      -23.4980    9.3500  -19.1690 N.2   800  YCL800      0.1917
      6  OAE      -21.4740   15.1510  -20.7480 O.2   800  YCL800     -0.2698
      7  OAF      -23.6300   18.4700  -21.5370 O.2   800  YCL800     -0.2684
      8  CAH      -26.1200   20.2460  -25.5110 C.ar  800  YCL800      0.0002
      9  CAI      -26.4600   20.4860  -24.1740 C.ar  800  YCL800      0.0067
     10  CAJ      -25.2010   19.2500  -25.8240 C.ar  800  YCL800      0.0002
     11  CAK      -25.8930   19.7280  -23.1440 C.ar  800  YCL800      0.0842
     12  CAL      -24.6320   18.4910  -24.7960 C.ar  800  YCL800      0.0048
     13  CAM      -23.7730   12.9910  -21.6690 C.3   800  YCL800      0.0576
     14  CAN      -23.9730   12.0980  -20.4370 C.3   800  YCL800      0.2511
     15  CAO      -24.5250   14.3220  -21.5910 C.3   800  YCL800      0.0356
     16  CAP      -24.3800    8.3370  -21.1750 C.3   800  YCL800      0.1388
     17  NAR      -24.2280   10.7500  -20.9310 N.pl3 800  YCL800     -0.0316
     18  NAS      -24.3730   16.5400  -22.4320 N.am  800  YCL800     -0.1940
     19  CAU      -22.2360   15.4490  -21.6650 C.2   800  YCL800      0.2806
     20  CAV      -24.0040    9.5520  -20.3780 C.2   800  YCL800      0.3901
     21  CAW      -24.2870   17.8790  -22.3950 C.2   800  YCL800      0.2654
     22  CAX      -24.9720   18.7150  -23.4550 C.ar  800  YCL800      0.0614
     23  CAZ      -23.7290   15.6330  -21.4640 C.3   800  YCL800      0.1748
@<TRIPOS>BOND
     1    10     8   ar
     2    10    12   ar
     3     8     9   ar
     4    12    22   ar
     5     9    11   ar
     6    22    11   ar
     7    22    21    1
     8    11     1    1
     9     4    19   am
    10    18    21   am
    11    18    23    1
    12    21     7    2
    13     1     3   ar
    14     1     2   ar
    15    13    15    1
    16    13    14    1
    17    19    23    1
    18    19     6    2
    19    15    23    1
    20    16    20    1
    21    17    14    1
    22    17    20    1
    23    20     5    2
