@<TRIPOS>MOLECULE
3b1u_YFF_A_1.pdb
 23 23 0 0 0
SMALL
GASTEIGER

@<TRIPOS>ATOM
      1  C1       -26.2830   19.8470  -21.9300 C.2   800  YFF800      0.3879
      2  O1       -26.1150   20.9990  -21.4730 O.co2 800  YFF800     -0.2406
      3  O2       -26.7750   18.9280  -21.2390 O.co2 800  YFF800     -0.2406
      4  NAA      -21.5490   15.7770  -22.7800 N.am  800  YFF800     -0.0863
      5  NAC      -23.6430    9.4760  -19.4820 N.2   800  YFF800      0.1917
      6  OAE      -21.7530   15.5310  -20.5710 O.2   800  YFF800     -0.2698
      7  OAF      -23.6250   18.3060  -21.7350 O.2   800  YFF800     -0.2684
      8  CAH      -26.1440   20.1050  -25.6990 C.ar  800  YFF800      0.0002
      9  CAI      -26.4820   20.3220  -24.3650 C.ar  800  YFF800      0.0067
     10  CAJ      -25.2020   19.1340  -26.0220 C.ar  800  YFF800      0.0002
     11  CAK      -25.8840   19.5730  -23.3520 C.ar  800  YFF800      0.0842
     12  CAL      -24.6040   18.3870  -25.0100 C.ar  800  YFF800      0.0048
     13  CAM      -23.2380   12.9420  -21.9920 C.3   800  YFF800      0.0576
     14  CAN      -23.7790   12.1420  -20.8130 C.3   800  YFF800      0.2511
     15  CAO      -24.1380   14.1020  -22.4180 C.3   800  YFF800      0.0356
     16  CAP      -24.2900    8.4140  -21.5720 C.3   800  YFF800      0.1388
     17  NAR      -24.0430   10.8190  -21.3550 N.pl3 800  YFF800     -0.0316
     18  NAS      -24.3580   16.4320  -22.7350 N.am  800  YFF800     -0.1940
     19  CAU      -22.2640   15.5970  -21.6750 C.2   800  YFF800      0.2806
     20  CAV      -23.9670    9.6330  -20.7570 C.2   800  YFF800      0.3901
     21  CAW      -24.2540   17.7600  -22.6290 C.2   800  YFF800      0.2654
     22  CAX      -24.9380   18.6010  -23.6740 C.ar  800  YFF800      0.0614
     23  CAZ      -23.7590   15.4600  -21.8190 C.3   800  YFF800      0.1748
@<TRIPOS>BOND
     1    10     8   ar
     2    10    12   ar
     3     8     9   ar
     4    12    22   ar
     5     9    11   ar
     6    22    11   ar
     7    22    21    1
     8    11     1    1
     9     4    19   am
    10    18    21   am
    11    18    23    1
    12    21     7    2
    13    15    13    1
    14    15    23    1
    15    13    14    1
    16     1     2   ar
    17     1     3   ar
    18    23    19    1
    19    19     6    2
    20    16    20    1
    21    17    14    1
    22    17    20    1
    23    20     5    2
