@<TRIPOS>MOLECULE
3b1v_GGM_A_1.pdb
 42 45 0 0 0
SMALL
GASTEIGER

@<TRIPOS>ATOM
      1  N1         6.0070   29.6820   33.1200 N.2   300  GGM300     -0.2485
      2  C2         5.9200   29.0830   34.3900 C.1   300  GGM300      0.2531
      3  N2         6.2870   29.7530   35.4950 N.pl3 300  GGM300     -0.0226
      4  N3         5.4730   27.8190   34.4740 N.2   300  GGM300     -0.3074
      5  C4         5.1160   27.1190   33.3680 C.2   300  GGM300      0.2300
      6  C5         5.1690   27.6570   32.1000 C.2   300  GGM300      0.2182
      7  C6         5.6290   28.9600   31.9690 C.1   300  GGM300      0.2372
      8  O6         5.6990   29.4780   30.8630 O.2   300  GGM300     -0.2069
      9  N7         4.7380   26.7170   31.2430 N.2   300  GGM300     -0.2322
     10  C8         4.4170   25.6310   31.9340 C.3   300  GGM300      0.2246
     11  N9         4.6410   25.8850   33.2260 N.pl3 300  GGM300     -0.2353
     12  CA         3.7990   24.2900   37.3920 C.2   300  GGM300      0.3425
     13  OA         2.7150   24.6160   38.5640 O.2   300  GGM300     -0.2448
     14  PA         3.5610   20.8370   31.6930 P.3   300  GGM300      0.2220
     15  PB         5.2420   19.1680   29.9800 P.3   300  GGM300      0.4669
     16  PG         5.6740   16.2930   30.3390 P.3   300  GGM300      0.4884
     17  C1'        4.4900   25.0650   34.4030 C.3   300  GGM300      0.2305
     18  O1A        2.7330   21.5570   30.7210 O.2   300  GGM300     -0.5170
     19  O1B        6.4070   19.6190   29.1280 O.2   300  GGM300     -0.2351
     20  O1G        4.2520   16.0050   30.0080 O.3   300  GGM300     -0.1240
     21  C2'        3.3170   24.2250   34.6710 C.3   300  GGM300      0.2406
     22  O2'        2.2520   25.0100   35.2980 O.3   300  GGM300     -0.2146
     23  O2A        2.9650   19.6720   32.3920 O.3   300  GGM300     -0.4370
     24  O2B        3.9700   18.8590   29.2790 O.3   300  GGM300     -0.1253
     25  O2G        6.6700   16.1690   29.0600 O.2   300  GGM300     -0.2331
     26  C3'        3.4050   22.9080   35.2670 C.3   300  GGM300      0.2329
     27  O3'        3.3810   23.1600   36.7060 O.3   300  GGM300     -0.4437
     28  O3A        5.0300   20.3470   31.0520 O.3   300  GGM300     -0.2360
     29  N3B        5.6740   17.8660   30.9440 N.3   300  GGM300     -0.0163
     30  O3G        6.1660   15.2900   31.4670 O.3   300  GGM300     -0.1240
     31  C4'        4.8910   22.6850   34.8190 C.3   300  GGM300      0.1895
     32  O4'        5.4860   23.9690   34.3600 O.3   300  GGM300     -0.3314
     33  C5'        5.0800   21.7210   33.6460 C.3   300  GGM300      0.1824
     34  O5'        4.0720   21.9430   32.6840 O.3   300  GGM300     -0.3111
     35  CA1        5.1460   25.1030   37.4980 C.ar  300  GGM300      0.0904
     36  NA1        4.0240   27.2400   37.3320 N.pl3 300  GGM300     -0.2355
     37  CA2        5.1640   26.5300   37.4630 C.ar  300  GGM300      0.0716
     38  CA3        6.4010   27.2150   37.5600 C.ar  300  GGM300      0.0163
     39  CA4        7.6090   26.5060   37.6870 C.ar  300  GGM300      0.0013
     40  CA5        7.5850   25.1000   37.7230 C.ar  300  GGM300      0.0003
     41  CA6        6.3630   24.4110   37.6340 C.ar  300  GGM300      0.0077
     42  CAM        3.7450   28.4650   38.1400 C.3   300  GGM300      0.1355
@<TRIPOS>BOND
     1    25    16    2
     2    19    15    2
     3    24    15    1
     4    15    29    1
     5    15    28    1
     6    20    16    1
     7    16    29    1
     8    16    30    1
     9    18    14    2
    10     8     7    2
    11    28    14    1
    12     9    10    1
    13     9     6    2
    14    14    23    1
    15    14    34    1
    16    10    11    1
    17     7     6    1
    18     7     1    2
    19     6     5    1
    20    34    33    1
    21     1     2    2
    22    11     5    1
    23    11    17    1
    24     5     4    2
    25    33    31    1
    26    32    17    1
    27    32    31    1
    28     2     4    2
    29     2     3    1
    30    17    21    1
    31    21    26    1
    32    21    22    1
    33    31    26    1
    34    26    27    1
    35    27    12    1
    36    36    37    1
    37    36    42    1
    38    12    35    1
    39    12    13    2
    40    37    35   ar
    41    37    38   ar
    42    35    41   ar
    43    38    39   ar
    44    41    40   ar
    45    39    40   ar
