@<TRIPOS>MOLECULE
3b1w_GDP_A_1.pdb
 28 30 0 0 0
SMALL
GASTEIGER

@<TRIPOS>ATOM
      1  PB         5.2240   -1.8380   -8.5620 P.3   300  GDP300      0.5373
      2  O1B        5.0910   -3.3060   -8.5640 O.3   300  GDP300     -0.1143
      3  O2B        5.3780   -1.2540  -10.0450 O.2   300  GDP300     -0.2221
      4  O3B        6.5270   -1.3340   -7.7510 O.3   300  GDP300     -0.1143
      5  O3A        3.9410   -1.1050   -7.9150 O.3   300  GDP300     -0.2261
      6  PA         4.0530    0.2920   -7.0650 P.3   300  GDP300      0.2231
      7  O1A        4.5500    0.0900   -5.6770 O.3   300  GDP300     -0.4370
      8  O2A        4.9980    1.2840   -7.9200 O.2   300  GDP300     -0.5169
      9  O5'        2.6040    0.9080   -7.1060 O.3   300  GDP300     -0.3111
     10  C5'        1.9820    1.2300   -8.3510 C.3   300  GDP300      0.1813
     11  C4'        0.8580    2.2230   -8.0760 C.3   300  GDP300      0.1799
     12  O4'       -0.0680    1.4520   -7.2880 O.3   300  GDP300     -0.3326
     13  C3'        1.2790    3.4330   -7.2170 C.3   300  GDP300      0.2158
     14  O3'        0.5520    4.5830   -7.6660 O.3   300  GDP300     -0.2175
     15  C2'        0.8890    3.0200   -5.7840 C.3   300  GDP300      0.2310
     16  O2'        0.5290    4.1340   -4.9920 O.3   300  GDP300     -0.2158
     17  C1'       -0.3450    2.1540   -6.0400 C.3   300  GDP300      0.2293
     18  N9        -0.5980    1.0790   -5.0490 N.pl3 300  GDP300     -0.2354
     19  C8         0.2600    0.1660   -4.5800 C.3   300  GDP300      0.2246
     20  N7        -0.3730   -0.6280   -3.7120 N.2   300  GDP300     -0.2322
     21  C5        -1.6440   -0.2290   -3.6210 C.2   300  GDP300      0.2182
     22  C6        -2.7630   -0.6670   -2.8890 C.1   300  GDP300      0.2372
     23  O6        -2.7050   -1.6250   -2.1170 O.2   300  GDP300     -0.2069
     24  N1        -3.9920    0.0050   -3.0500 N.2   300  GDP300     -0.2485
     25  C2        -4.0520    1.0990   -3.9390 C.1   300  GDP300      0.2531
     26  N2        -5.1840    1.7610   -4.1230 N.pl3 300  GDP300     -0.0226
     27  N3        -2.9590    1.4900   -4.6210 N.2   300  GDP300     -0.3074
     28  C4        -1.7780    0.8620   -4.4810 C.2   300  GDP300      0.2300
@<TRIPOS>BOND
     1     3     1    2
     2     2     1    1
     3     1     5    1
     4     1     4    1
     5    10    11    1
     6    10     9    1
     7    11    12    1
     8    11    13    1
     9     8     6    2
    10     5     6    1
    11    14    13    1
    12    12    17    1
    13    13    15    1
    14     9     6    1
    15     6     7    1
    16    17    15    1
    17    17    18    1
    18    15    16    1
    19    18    19    1
    20    18    28    1
    21    27    28    2
    22    27    25    2
    23    19    20    1
    24    28    21    1
    25    26    25    1
    26    25    24    2
    27    20    21    2
    28    21    22    1
    29    24    22    2
    30    22    23    2
