@<TRIPOS>MOLECULE
3b1x_GNP_A_1.pdb
 32 34 0 0 0
SMALL
GASTEIGER

@<TRIPOS>ATOM
      1  PG         5.8210   13.7020  -33.6840 P.3   300  GNP300      0.4884
      2  O1G        4.9860   13.8820  -32.4720 O.3   300  GNP300     -0.1240
      3  O2G        5.3610   12.3990  -34.5110 O.2   300  GNP300     -0.2331
      4  O3G        7.3500   13.3670  -33.3360 O.3   300  GNP300     -0.1240
      5  N3B        5.8400   14.9540  -34.6900 N.3   300  GNP300     -0.0163
      6  PB         6.2460   16.3700  -33.9830 P.3   300  GNP300      0.4669
      7  O1B        5.1990   16.8460  -33.0370 O.3   300  GNP300     -0.1253
      8  O2B        7.6510   16.1610  -33.2130 O.2   300  GNP300     -0.2351
      9  O3A        6.4230   17.4310  -35.1760 O.3   300  GNP300     -0.2360
     10  PA         7.8220   17.9410  -35.8340 P.3   300  GNP300      0.2220
     11  O1A        8.6820   18.6310  -34.8400 O.3   300  GNP300     -0.4370
     12  O2A        8.5400   16.6130  -36.4180 O.2   300  GNP300     -0.5170
     13  O5'        7.3430   18.8490  -37.0350 O.3   300  GNP300     -0.3111
     14  C5'        6.4540   18.3220  -38.0400 C.3   300  GNP300      0.1813
     15  C4'        6.5460   19.1060  -39.3880 C.3   300  GNP300      0.1799
     16  O4'        5.9580   20.4170  -39.1950 O.3   300  GNP300     -0.3326
     17  C3'        7.9890   19.3330  -39.8630 C.3   300  GNP300      0.2158
     18  O3'        8.0440   19.2250  -41.2870 O.3   300  GNP300     -0.2175
     19  C2'        8.2890   20.7600  -39.4090 C.3   300  GNP300      0.2310
     20  O2'        9.2680   21.3540  -40.2620 O.3   300  GNP300     -0.2158
     21  C1'        6.9160   21.4260  -39.5660 C.3   300  GNP300      0.2293
     22  N9         6.6810   22.5440  -38.6250 N.pl3 300  GNP300     -0.2354
     23  C8         6.8660   22.5300  -37.2990 C.3   300  GNP300      0.2246
     24  N7         6.5470   23.7180  -36.7890 N.2   300  GNP300     -0.2322
     25  C5         6.1550   24.5000  -37.7920 C.2   300  GNP300      0.2182
     26  C6         5.7160   25.8240  -37.8510 C.1   300  GNP300      0.2372
     27  O6         5.6270   26.5060  -36.8330 O.2   300  GNP300     -0.2069
     28  N1         5.3650   26.3700  -39.0930 N.2   300  GNP300     -0.2485
     29  C2         5.4700   25.5690  -40.2420 C.1   300  GNP300      0.2531
     30  N2         5.1450   26.0800  -41.4210 N.pl3 300  GNP300     -0.0226
     31  N3         5.8960   24.2920  -40.1530 N.2   300  GNP300     -0.3074
     32  C4         6.2370   23.7500  -38.9660 C.2   300  GNP300      0.2300
@<TRIPOS>BOND
     1    30    29    1
     2    18    17    1
     3    20    19    1
     4    29    31    2
     5    29    28    2
     6    31    32    2
     7    17    19    1
     8    17    15    1
     9    21    19    1
    10    21    16    1
    11    21    22    1
    12    15    16    1
    13    15    14    1
    14    28    26    2
    15    32    22    1
    16    32    25    1
    17    22    23    1
    18    14    13    1
    19    26    25    1
    20    26    27    2
    21    25    24    2
    22    23    24    1
    23    13    10    1
    24    12    10    2
    25    10     9    1
    26    10    11    1
    27     9     6    1
    28     5     6    1
    29     5     1    1
    30     3     1    2
    31     6     8    2
    32     6     7    1
    33     1     4    1
    34     1     2    1
