@<TRIPOS>MOLECULE
3b1y_GNH_A_1.pdb
 28 30 0 0 0
SMALL
GASTEIGER

@<TRIPOS>ATOM
      1  N3B        8.4330   16.9930  -33.5040 N.3   300  GNH300     -0.0178
      2  PB         9.7710   16.9970  -32.6210 P.3   300  GNH300      0.4738
      3  O1B        9.4940   17.2180  -31.1840 O.3   300  GNH300     -0.1247
      4  O2B       10.5010   15.5970  -32.8760 O.2   300  GNH300     -0.2343
      5  O3A       10.7310   18.1480  -33.2600 O.3   300  GNH300     -0.2354
      6  PA        11.9110   17.7640  -34.3500 P.3   300  GNH300      0.2220
      7  O1A       13.0540   17.0120  -33.7300 O.3   300  GNH300     -0.4370
      8  O2A       11.1760   16.9430  -35.5230 O.2   300  GNH300     -0.5170
      9  O5'       12.3570   19.1210  -34.9920 O.3   300  GNH300     -0.3111
     10  C5'       11.4090   19.9440  -35.6780 C.3   300  GNH300      0.1813
     11  C4'       12.1720   21.1540  -36.2630 C.3   300  GNH300      0.1799
     12  O4'       12.8000   21.8110  -35.1560 O.3   300  GNH300     -0.3326
     13  C3'       13.2940   20.6680  -37.2030 C.3   300  GNH300      0.2158
     14  O3'       13.4300   21.6130  -38.2470 O.3   300  GNH300     -0.2175
     15  C2'       14.5430   20.7020  -36.3460 C.3   300  GNH300      0.2310
     16  O2'       15.7120   20.9910  -37.1510 O.3   300  GNH300     -0.2158
     17  C1'       14.2000   21.8870  -35.4080 C.3   300  GNH300      0.2293
     18  N9        14.9250   21.8450  -34.0910 N.pl3 300  GNH300     -0.2354
     19  C8        15.0190   20.8700  -33.1820 C.3   300  GNH300      0.2246
     20  N7        15.7710   21.2500  -32.1560 N.2   300  GNH300     -0.2322
     21  C5        16.1620   22.4870  -32.4070 C.2   300  GNH300      0.2182
     22  C6        16.9450   23.3800  -31.7010 C.1   300  GNH300      0.2372
     23  O6        17.4400   23.0990  -30.6140 O.2   300  GNH300     -0.2069
     24  N1        17.1670   24.6310  -32.2450 N.2   300  GNH300     -0.2485
     25  C2        16.6070   24.9790  -33.4930 C.1   300  GNH300      0.2531
     26  N2        16.8310   26.1830  -34.0060 N.pl3 300  GNH300     -0.0226
     27  N3        15.8510   24.0900  -34.1530 N.2   300  GNH300     -0.3074
     28  C4        15.6290   22.8670  -33.6330 C.2   300  GNH300      0.2300
@<TRIPOS>BOND
     1    14    13    1
     2    13    15    1
     3    13    11    1
     4    16    15    1
     5    15    17    1
     6    11    10    1
     7    11    12    1
     8    10     9    1
     9     8     6    2
    10    17    12    1
    11    17    18    1
    12     9     6    1
    13     6     7    1
    14     6     5    1
    15    27    28    2
    16    27    25    2
    17    18    28    1
    18    18    19    1
    19    26    25    1
    20    28    21    1
    21     1     2    1
    22    25    24    2
    23     5     2    1
    24    19    20    1
    25     4     2    2
    26     2     3    1
    27    21    20    2
    28    21    22    1
    29    24    22    2
    30    22    23    2
