@<TRIPOS>MOLECULE
3b20_NAD_A_1.pdb
 44 48 0 0 0
SMALL
GASTEIGER

@<TRIPOS>ATOM
      1  PA       -18.8260   43.5340   -0.0350 P.3   340  NAD340      0.2189
      2  O1A      -18.6500   44.6290   -1.0530 O.2   340  NAD340     -0.5170
      3  O2A      -17.8970   42.3830   -0.4030 O.3   340  NAD340     -0.4371
      4  O5B      -20.4010   43.1500   -0.0660 O.3   340  NAD340     -0.3112
      5  C5B      -20.5190   41.8050   -0.5200 C.3   340  NAD340      0.1813
      6  C4B      -21.4470   41.6290   -1.7450 C.3   340  NAD340      0.1821
      7  O4B      -22.8330   41.9600   -1.5480 O.3   340  NAD340     -0.3135
      8  C3B      -20.9740   42.4630   -2.9520 C.3   340  NAD340      0.2184
      9  O3B      -20.4610   41.5320   -3.9020 O.3   340  NAD340     -0.2174
     10  C2B      -22.2780   43.1330   -3.4860 C.3   340  NAD340      0.2570
     11  O2B      -22.3390   43.2070   -4.9160 O.3   340  NAD340     -0.2130
     12  C1B      -23.3250   42.1420   -2.9140 C.3   340  NAD340      0.3186
     13  N9A      -24.7030   42.6590   -2.9460 N.pl3 340  NAD340     -0.1439
     14  C8A      -25.0620   43.9580   -2.7400 C.3   340  NAD340      0.3377
     15  N7A      -26.3560   44.0760   -2.8210 N.2   340  NAD340     -0.2095
     16  C5A      -26.9110   42.8600   -3.0800 C.2   340  NAD340      0.2526
     17  C6A      -28.2300   42.3950   -3.2590 C.2   340  NAD340      0.4393
     18  N6A      -29.2940   43.2920   -3.1830 N.pl3 340  NAD340      0.2180
     19  N1A      -28.4210   41.0930   -3.5150 N.2   340  NAD340      0.0021
     20  C2A      -27.4010   40.2490   -3.5880 C.3   340  NAD340      0.5254
     21  N3A      -26.1520   40.6550   -3.4190 N.2   340  NAD340     -0.0055
     22  C4A      -25.8580   41.9340   -3.1700 C.2   340  NAD340      0.3518
     23  O3       -18.4630   44.2330    1.3670 O.3   340  NAD340     -0.2703
     24  PN       -18.1370   43.1960    2.5870 P.3   340  NAD340      0.2189
     25  O1N      -16.8730   43.7470    3.2900 O.3   340  NAD340     -0.4371
     26  O2N      -17.9860   41.6890    2.1690 O.2   340  NAD340     -0.5170
     27  O5D      -19.3450   43.4370    3.6580 O.3   340  NAD340     -0.3112
     28  C5D      -20.4170   42.4790    3.6670 C.3   340  NAD340      0.1813
     29  C4D      -20.9830   42.4670    5.0960 C.3   340  NAD340      0.1799
     30  O4D      -20.0120   41.8370    5.9780 O.3   340  NAD340     -0.3327
     31  C3D      -21.1390   43.9270    5.6050 C.3   340  NAD340      0.2158
     32  O3D      -22.3910   44.1190    6.2800 O.3   340  NAD340     -0.2175
     33  C2D      -19.9600   44.1310    6.5930 C.3   340  NAD340      0.2309
     34  O2D      -20.3070   45.0460    7.6360 O.3   340  NAD340     -0.2158
     35  C1D      -19.7600   42.6940    7.1400 C.3   340  NAD340      0.2263
     36  N1N      -18.4260   42.4470    7.7320 N.pl3 340  NAD340     -0.2787
     37  C2N      -17.3300   42.8020    7.0630 C.3   340  NAD340      0.1244
     38  C3N      -16.0410   42.5810    7.5970 C.2   340  NAD340      0.0544
     39  C7N      -14.8420   42.9920    6.8100 C.2   340  NAD340      0.2818
     40  O7N      -13.7120   42.9260    7.2810 O.2   340  NAD340     -0.2670
     41  N7N      -15.0090   43.4500    5.5570 N.am  340  NAD340     -0.0839
     42  C4N      -15.9150   41.9590    8.8640 C.2   340  NAD340      0.0033
     43  C5N      -17.0840   41.6130    9.5310 C.2   340  NAD340      0.0157
     44  C6N      -18.3290   41.8660    8.9310 C.2   340  NAD340      0.0633
@<TRIPOS>BOND
     1    11    10    1
     2     9     8    1
     3    20    19    1
     4    20    21    1
     5    19    17    2
     6    10     8    1
     7    10    12    1
     8    21    22    2
     9    17    18    1
    10    17    16    1
    11    22    16    1
    12    22    13    1
    13    16    15    2
    14     8     6    1
    15    13    12    1
    16    13    14    1
    17    12     7    1
    18    15    14    1
    19     6     7    1
    20     6     5    1
    21     2     1    2
    22     5     4    1
    23     3     1    1
    24     4     1    1
    25     1    23    1
    26    23    24    1
    27    26    24    2
    28    24    25    1
    29    24    27    1
    30    27    28    1
    31    28    29    1
    32    29    31    1
    33    29    30    1
    34    41    39   am
    35    31    32    1
    36    31    33    1
    37    30    35    1
    38    33    35    1
    39    33    34    1
    40    39    40    2
    41    39    38    1
    42    37    38    1
    43    37    36    1
    44    35    36    1
    45    38    42    2
    46    36    44    1
    47    42    43    1
    48    44    43    2
