@<TRIPOS>MOLECULE
3b24_B2J_A_1.pdb
 11 11 0 0 0
SMALL
GASTEIGER

@<TRIPOS>ATOM
      1  C1        33.1270   37.9480   51.7240 C.3   237  B2J237      0.0137
      2  C2        32.4970   36.7920   52.5120 C.3   237  B2J237      0.0745
      3  S3        33.6450   35.3630   52.4470 S.3   237  B2J237     -0.0167
      4  C4        33.2200   34.6180   50.9370 C.1   237  B2J237      0.1899
      5  N5        34.2160   34.1190   50.2040 N.2   237  B2J237     -0.2517
      6  N6        31.9440   34.5230   50.5140 N.2   237  B2J237     -0.2717
      7  C7        31.6740   33.9270   49.3430 C.1   237  B2J237      0.1401
      8  C8        30.2030   33.7930   48.8770 C.3   237  B2J237      0.1448
      9  N9        32.6890   33.4320   48.5990 N.2   237  B2J237     -0.2621
     10  C10       33.9650   33.5690   49.0140 C.1   237  B2J237      0.2613
     11  N11       34.9910   33.1870   48.2730 N.pl3 237  B2J237     -0.0220
@<TRIPOS>BOND
     1    11    10    1
     2     9    10    2
     3     9     7    2
     4     8     7    1
     5    10     5    2
     6     7     6    2
     7     5     4    2
     8     6     4    2
     9     4     3    1
    10     1     2    1
    11     3     2    1
