@<TRIPOS>MOLECULE
3b25_B2K_A_1.pdb
 18 19 0 0 0
SMALL
GASTEIGER

@<TRIPOS>ATOM
      1  C1        63.7690   13.5020   25.2690 C.ar    1  B2K1        0.0185
      2  C2        63.1950   14.7200   24.9000 C.ar    1  B2K1       -0.0029
      3  C3        62.1550   14.7630   23.9570 C.ar    1  B2K1       -0.0218
      4  C4        61.5710   16.1120   23.5430 C.3     1  B2K1        0.0310
      5  C5        61.6720   13.5830   23.3850 C.ar    1  B2K1       -0.0029
      6  C6        62.2190   12.3600   23.8020 C.ar    1  B2K1        0.0185
      7  C7        63.2840   12.3250   24.7120 C.ar    1  B2K1        0.1128
      8  S8        64.0120   10.7840   25.1820 S.O2    1  B2K1        0.0523
      9  O9        63.1540    9.6790   24.6380 O.2     1  B2K1       -0.1621
     10  O10       64.0950   10.7180   26.6780 O.2     1  B2K1       -0.1621
     11  C11       65.6530   10.7280   24.5230 C.2     1  B2K1        0.2377
     12  N12       66.6820   11.2610   25.2270 N.2     1  B2K1       -0.3108
     13  C13       65.8780   10.2000   23.2470 C.3     1  B2K1        0.1351
     14  C14       67.1860   10.1630   22.7690 C.2     1  B2K1        0.1093
     15  C15       67.4740    9.5680   21.3810 C.3     1  B2K1        0.0630
     16  N16       68.1910   10.7140   23.4910 N.2     1  B2K1       -0.3342
     17  C17       67.9480   11.2170   24.7230 C.1     1  B2K1        0.2418
     18  N18       68.9740   11.6660   25.4190 N.pl3   1  B2K1       -0.0232
@<TRIPOS>BOND
     1    15    14    1
     2    14    13    1
     3    14    16    2
     4    13    11    1
     5     5     6   ar
     6     5     3   ar
     7    16    17    2
     8     4     3    1
     9     6     7   ar
    10     3     2   ar
    11    11     8    1
    12    11    12    2
    13     9     8    2
    14     7     8    1
    15     7     1   ar
    16    17    12    2
    17    17    18    1
    18     2     1   ar
    19     8    10    2
