@<TRIPOS>MOLECULE
3b26_B2L_A_1.pdb
 21 24 0 0 0
SMALL
GASTEIGER

@<TRIPOS>ATOM
      1  C1        -3.1480   11.3090    1.5130 C.3     1  B2L1        0.1690
      2  O2        -3.9000   10.1970    2.0890 O.3     1  B2L1       -0.3442
      3  C3        -3.7490    9.0130    1.2290 C.3     1  B2L1        0.1690
      4  C4        -2.4470    8.6980    0.7920 C.ar    1  B2L1        0.0071
      5  C5        -2.1160    7.3820    0.4490 C.ar    1  B2L1       -0.0019
      6  C6        -0.8210    7.0850    0.0110 C.ar    1  B2L1       -0.0002
      7  C7         0.1570    8.0860   -0.0230 C.ar    1  B2L1        0.0000
      8  C8        -0.1450    9.4190    0.3380 C.ar    1  B2L1        0.0017
      9  C9        -1.4700    9.7200    0.7420 C.ar    1  B2L1       -0.0032
     10  C10       -1.8300   11.0480    1.0700 C.ar    1  B2L1        0.0071
     11  C11       -0.8660   12.0680    1.0440 C.ar    1  B2L1       -0.0018
     12  C12        0.4330   11.7720    0.6130 C.ar    1  B2L1        0.0020
     13  C13        0.8170   10.4610    0.2730 C.ar    1  B2L1        0.0268
     14  C14        2.1390   10.2860   -0.1670 C.2     1  B2L1        0.1294
     15  N15        3.1580   10.7770    0.5790 N.2     1  B2L1       -0.3299
     16  C16        2.4300    9.7690   -1.4440 C.3     1  B2L1        0.1152
     17  C17        3.7660    9.6930   -1.8470 C.2     1  B2L1        0.1078
     18  C18        4.1410    9.0490   -3.1980 C.3     1  B2L1        0.0630
     19  N19        4.7400   10.1540   -1.0280 N.2     1  B2L1       -0.3343
     20  C20        4.4390   10.7120    0.1600 C.1     1  B2L1        0.2405
     21  N21        5.4180   11.1680    0.9380 N.pl3   1  B2L1       -0.0232
@<TRIPOS>BOND
     1    18    17    1
     2    17    16    1
     3    17    19    2
     4    16    14    1
     5    19    20    2
     6    14    13    1
     7    14    15    2
     8     7     6   ar
     9     7     8   ar
    10     6     5   ar
    11    20    15    2
    12    20    21    1
    13    13     8   ar
    14    13    12   ar
    15     8     9   ar
    16     5     4   ar
    17    12    11   ar
    18     9     4   ar
    19     9    10   ar
    20     4     3    1
    21    11    10   ar
    22    10     1    1
    23     3     2    1
    24     1     2    1
