@<TRIPOS>MOLECULE
3b27_B2T_A_1.pdb
 16 17 0 0 0
SMALL
GASTEIGER

@<TRIPOS>ATOM
      1  C1        13.6390    4.6690   12.6910 C.3     1  B2T1        0.0872
      2  S2        12.1830    5.4520   11.9770 S.3     1  B2T1       -0.0158
      3  C3        10.8620    4.5170   12.6220 C.1     1  B2T1        0.1903
      4  N4        11.0520    3.2590   13.0550 N.2     1  B2T1       -0.2673
      5  N5         9.6570    5.0710   12.5410 N.2     1  B2T1       -0.2516
      6  C6         8.5880    4.3960   12.9960 C.1     1  B2T1        0.2616
      7  N7         7.3810    4.9180   12.9250 N.pl3   1  B2T1       -0.0220
      8  N10        8.7510    3.1240   13.4250 N.2     1  B2T1       -0.2576
      9  C11        9.9710    2.5570   13.4650 C.1     1  B2T1        0.1631
     10  C12       10.0890    1.2360   13.9260 C.ar    1  B2T1        0.0978
     11  C13       10.9340    0.9760   15.0050 C.ar    1  B2T1        0.0129
     12  C14       11.0630   -0.3510   15.4580 C.ar    1  B2T1        0.0008
     13  C15       10.3470   -1.3750   14.8200 C.ar    1  B2T1        0.0009
     14  C16        9.5130   -1.1260   13.7380 C.ar    1  B2T1        0.0121
     15  C17        9.3780    0.1960   13.2900 C.ar    1  B2T1        0.0690
     16 CL18        8.3840    0.4520   11.8910 Cl      1  B2T1       -0.0815
@<TRIPOS>BOND
     1    16    15    1
     2     2     3    1
     3     2     1    1
     4     5     3    2
     5     5     6    2
     6     3     4    2
     7     7     6    1
     8     6     8    2
     9     4     9    2
    10    15    14   ar
    11    15    10   ar
    12     8     9    2
    13     9    10    1
    14    14    13   ar
    15    10    11   ar
    16    13    12   ar
    17    11    12   ar
