@<TRIPOS>MOLECULE
3b28_B2X_A_1.pdb
 23 26 0 0 0
SMALL
GASTEIGER

@<TRIPOS>ATOM
      1  C1       -23.9080   23.2670  -22.9890 C.3   237  B2X237      0.1691
      2  O2       -24.5700   23.9950  -24.0910 O.3   237  B2X237     -0.3442
      3  C3       -25.5380   23.0720  -24.6350 C.3   237  B2X237      0.1690
      4  C4       -26.5460   22.6340  -23.6990 C.ar  237  B2X237      0.0071
      5  C5       -27.8780   22.3890  -24.0700 C.ar  237  B2X237     -0.0019
      6  C6       -28.8340   22.0500  -23.0900 C.ar  237  B2X237     -0.0002
      7  C7       -28.4580   21.9560  -21.7480 C.ar  237  B2X237      0.0007
      8  C8       -27.1320   22.1980  -21.3490 C.ar  237  B2X237      0.0118
      9  C9       -26.1830   22.5640  -22.3360 C.ar  237  B2X237     -0.0025
     10  C10      -24.8500   22.8500  -21.9760 C.ar  237  B2X237      0.0079
     11  C11      -24.4670   22.7890  -20.6430 C.ar  237  B2X237      0.0103
     12  C12      -25.3820   22.4130  -19.6680 C.ar  237  B2X237      0.0688
     13 CL13      -24.7470   22.2560  -18.0450 Cl    237  B2X237     -0.0815
     14  C14      -26.7200   22.1360  -19.9860 C.ar  237  B2X237      0.0977
     15  C15      -27.6260   21.7480  -18.9440 C.1   237  B2X237      0.1631
     16  N16      -28.2540   20.5590  -18.9950 N.2   237  B2X237     -0.2673
     17  N17      -27.8410   22.5450  -17.8770 N.2   237  B2X237     -0.2576
     18  C18      -28.6480   22.1580  -16.8690 C.1   237  B2X237      0.2616
     19  N19      -28.8040   22.9630  -15.8310 N.pl3 237  B2X237     -0.0220
     20  N22      -29.2520   20.9640  -16.9110 N.2   237  B2X237     -0.2516
     21  C23      -29.0880   20.2340  -17.9880 C.1   237  B2X237      0.1903
     22  S24      -29.8700   18.6920  -18.0000 S.3   237  B2X237     -0.0158
     23  C25      -29.7550   18.1800  -19.7110 C.3   237  B2X237      0.0872
@<TRIPOS>BOND
     1     3     2    1
     2     3     4    1
     3     2     1    1
     4     5     4   ar
     5     5     6   ar
     6     4     9   ar
     7     6     7   ar
     8     1    10    1
     9     9    10   ar
    10     9     8   ar
    11    10    11   ar
    12     7     8   ar
    13     8    14   ar
    14    11    12   ar
    15    14    12   ar
    16    14    15    1
    17    23    22    1
    18    12    13    1
    19    16    15    2
    20    16    21    2
    21    15    17    2
    22    22    21    1
    23    21    20    2
    24    17    18    2
    25    20    18    2
    26    18    19    1
