@<TRIPOS>MOLECULE
3b29_GSH_A_1.pdb
 20 19 0 0 0
SMALL
GASTEIGER

@<TRIPOS>ATOM
      1  N1       108.3550   49.8940   27.1850 N.3   201  GSH201     -0.1208
      2  CA1      107.3910   48.7950   27.3470 C.3   201  GSH201      0.1948
      3  C1       108.0960   47.6120   28.0280 C.2   201  GSH201      0.3819
      4  O11      109.3460   47.6270   28.0300 O.co2 201  GSH201     -0.2441
      5  O12      107.3750   46.7350   28.5540 O.co2 201  GSH201     -0.2441
      6  CB1      106.8450   48.4030   25.9680 C.3   201  GSH201      0.0402
      7  CG1      105.9230   47.1830   26.0300 C.3   201  GSH201      0.0889
      8  CD1      104.6960   47.4240   26.9160 C.2   201  GSH201      0.2418
      9  OE1      104.0060   48.4330   26.7900 O.2   201  GSH201     -0.2733
     10  N2       104.4580   46.4630   27.8060 N.am  201  GSH201     -0.1968
     11  CA2      103.3160   46.4890   28.7340 C.3   201  GSH201      0.1843
     12  C2       103.7130   47.0500   30.1040 C.2   201  GSH201      0.2627
     13  O2       102.8560   47.4550   30.8850 O.2   201  GSH201     -0.2714
     14  CB2      102.8110   45.0560   28.9210 C.3   201  GSH201      0.0997
     15  SG2      104.1660   43.8500   29.1870 S.3   201  GSH201     -0.0797
     16  N3       105.0130   47.0460   30.3840 N.am  201  GSH201     -0.1917
     17  CA3      105.5120   47.5390   31.6780 C.3   201  GSH201      0.2285
     18  C3       106.5250   48.6690   31.4830 C.2   201  GSH201      0.3865
     19  O31      106.6780   49.1110   30.3240 O.co2 201  GSH201     -0.2437
     20  O32      107.1240   49.0690   32.5040 O.co2 201  GSH201     -0.2437
@<TRIPOS>BOND
     1     6     7    1
     2     6     2    1
     3     7     8    1
     4     9     8    2
     5     8    10   am
     6     1     2    1
     7     2     3    1
     8    10    11    1
     9     3     4   ar
    10     3     5   ar
    11    11    14    1
    12    11    12    1
    13    14    15    1
    14    12    16   am
    15    12    13    2
    16    19    18   ar
    17    16    17    1
    18    18    17    1
    19    18    20   ar
