@<TRIPOS>MOLECULE
3b29_LSM_A_1.pdb
 12 11 0 0 0
SMALL
GASTEIGER

@<TRIPOS>ATOM
      1 SE         79.7970   63.7920   20.5580 Se    207  LSM207      0.0000
      2  C1        80.9780   63.4220   22.0720 C.3   207  LSM207      0.0000
      3  C2        81.4500   64.7230   22.7290 C.3   207  LSM207      0.0000
      4  C3        82.4560   64.4380   23.8490 C.3   207  LSM207      0.0000
      5  C4        83.1520   65.7210   24.3100 C.3   207  LSM207      0.0000
      6  C5        84.4380   65.4060   25.0790 C.3   207  LSM207      0.0000
      7  C6        84.9030   66.6140   25.8970 C.3   207  LSM207      0.0000
      8  C7        86.2180   66.3150   26.6240 C.3   207  LSM207      0.0000
      9  C8        86.6510   67.4990   27.4950 C.3   207  LSM207      0.0000
     10  C9        87.0330   67.0380   28.9060 C.3   207  LSM207      0.0000
     11  C1'       79.3240   61.9570   20.0830 C.3   207  LSM207      0.0000
     12  C10       88.2250   67.8310   29.4510 C.3   207  LSM207      0.0000
@<TRIPOS>BOND
     1    11     1    1
     2     1     2    1
     3     2     3    1
     4     3     4    1
     5     4     5    1
     6     5     6    1
     7     6     7    1
     8     7     8    1
     9     8     9    1
    10     9    10    1
    11    10    12    1
