@<TRIPOS>MOLECULE
3b2d_MAN_A_1.pdb
 11 11 0 0 0
SMALL
GASTEIGER

@<TRIPOS>ATOM
      1  C1        27.8570  -21.7450    3.2280 C.3   805  MAN805      0.1777
      2  C2        28.8430  -22.7050    2.5710 C.3   805  MAN805      0.2141
      3  C3        28.5420  -24.1420    3.0110 C.3   805  MAN805      0.2173
      4  C4        28.4580  -24.2620    4.5310 C.3   805  MAN805      0.2142
      5  C5        27.4950  -23.2080    5.0780 C.3   805  MAN805      0.1810
      6  C6        27.3950  -23.2250    6.6000 C.3   805  MAN805      0.2141
      7  O2        30.1330  -22.3090    2.9800 O.3   805  MAN805     -0.2176
      8  O3        29.5230  -25.0260    2.5250 O.3   805  MAN805     -0.2175
      9  O4        28.0190  -25.5530    4.8780 O.3   805  MAN805     -0.2176
     10  O5        27.8930  -21.9180    4.6360 O.3   805  MAN805     -0.3481
     11  O6        28.5800  -22.7180    7.1750 O.3   805  MAN805     -0.2176
@<TRIPOS>BOND
     1     8     3    1
     2     2     7    1
     3     2     3    1
     4     2     1    1
     5     3     4    1
     6     1    10    1
     7     4     9    1
     8     4     5    1
     9    10     5    1
    10     5     6    1
    11     6    11    1
