@<TRIPOS>MOLECULE
3b2e_ADP_A_1.pdb
 27 29 0 0 0
SMALL
GASTEIGER

@<TRIPOS>ATOM
      1  PB        82.0720   27.5200   -1.2380 P.3   401  ADP401      0.5373
      2  O1B       80.6510   27.6350   -1.5270 O.3   401  ADP401     -0.1143
      3  O2B       82.9660   27.7470   -2.5580 O.2   401  ADP401     -0.2221
      4  O3B       82.3530   26.0720   -0.6020 O.3   401  ADP401     -0.1143
      5  PA        81.6780   28.4960    1.1830 P.3   401  ADP401      0.2231
      6  O1A       80.2930   28.9270    0.9420 O.2   401  ADP401     -0.5169
      7  O2A       81.6770   27.0110    1.7770 O.3   401  ADP401     -0.4370
      8  O3A       82.5470   28.5860   -0.1830 O.3   401  ADP401     -0.2261
      9  O5'       82.4010   29.5500    2.1030 O.3   401  ADP401     -0.3111
     10  C5'       81.7800   29.5590    3.3080 C.3   401  ADP401      0.1813
     11  C4'       82.5330   30.5510    4.1340 C.3   401  ADP401      0.1821
     12  O4'       82.5380   31.6440    3.5670 O.3   401  ADP401     -0.3135
     13  C3'       81.8510   30.6000    5.4890 C.3   401  ADP401      0.2184
     14  O3'       82.7370   30.0980    6.5090 O.3   401  ADP401     -0.2174
     15  C2'       81.4840   32.0540    5.6660 C.3   401  ADP401      0.2570
     16  O2'       82.0890   32.5900    6.8280 O.3   401  ADP401     -0.2130
     17  C1'       82.0300   32.6960    4.4310 C.3   401  ADP401      0.3186
     18  N9        81.0240   33.5440    3.7590 N.pl3 401  ADP401     -0.1439
     19  C8        80.2850   33.2430    2.6530 C.3   401  ADP401      0.3377
     20  N7        79.5290   34.2450    2.3430 N.2   401  ADP401     -0.2095
     21  C5        79.7300   35.2450    3.2220 C.2   401  ADP401      0.2526
     22  C6        79.2220   36.5460    3.3900 C.2   401  ADP401      0.4393
     23  N6        78.2930   37.0620    2.5150 N.pl3 401  ADP401      0.2180
     24  N1        79.6630   37.2790    4.4140 N.2   401  ADP401      0.0021
     25  C2        80.5650   36.8150    5.2740 C.3   401  ADP401      0.5254
     26  N3        81.0670   35.6090    5.1430 N.2   401  ADP401     -0.0055
     27  C4        80.6790   34.7990    4.1460 C.2   401  ADP401      0.3518
@<TRIPOS>BOND
     1     3     1    2
     2     2     1    1
     3     1     4    1
     4     1     8    1
     5     8     5    1
     6     6     5    2
     7     5     7    1
     8     5     9    1
     9     9    10    1
    10    20    19    1
    11    20    21    2
    12    23    22    1
    13    19    18    1
    14    21    22    1
    15    21    27    1
    16    10    11    1
    17    22    24    2
    18    12    11    1
    19    12    17    1
    20    18    27    1
    21    18    17    1
    22    11    13    1
    23    27    26    2
    24    24    25    1
    25    17    15    1
    26    26    25    1
    27    13    15    1
    28    13    14    1
    29    15    16    1
