@<TRIPOS>MOLECULE
3b2p_ARG_A_1.pdb
 12 11 0 0 0
SMALL
GASTEIGER

@<TRIPOS>ATOM
      1  N        -63.4690   20.0150   -9.3100 N.3   900  ARG900     -0.1208
      2  CA       -64.5060   19.6790   -8.2900 C.3   900  ARG900      0.1944
      3  C        -63.9760   18.7030   -7.2440 C.2   900  ARG900      0.3819
      4  O        -62.9870   18.0220   -7.3950 O.co2 900  ARG900     -0.2441
      5  CB       -65.7520   19.0550   -8.9390 C.3   900  ARG900      0.0343
      6  CG       -66.6150   20.0290   -9.6680 C.3   900  ARG900      0.0490
      7  CD       -67.4280   19.3380  -10.7150 C.3   900  ARG900      0.2205
      8  NE       -68.7600   19.8950  -10.7200 N.pl3 900  ARG900     -0.0865
      9  CZ       -69.6470   19.7440  -11.6960 C.cat 900  ARG900      0.5346
     10  NH1      -69.3430   19.0370  -12.8030 N.pl3 900  ARG900      0.1354
     11  NH2      -70.8370   20.3310  -11.5510 N.pl3 900  ARG900      0.1354
     12  OXT      -64.5640   18.5500   -6.1780 O.co2 900  ARG900     -0.2441
@<TRIPOS>BOND
     1    10     9    1
     2     9    11    1
     3     9     8    2
     4     8     7    1
     5     7     6    1
     6     6     5    1
     7     1     2    1
     8     5     2    1
     9     2     3    1
    10     4     3   ar
    11     3    12   ar
