@<TRIPOS>MOLECULE
3b2q_ATP_A_1.pdb
 31 33 0 0 0
SMALL
GASTEIGER

@<TRIPOS>ATOM
      1  PG       -25.3330  -18.1210   18.1580 P.3   461  ATP461      0.5373
      2  O1G      -23.9650  -17.8060   17.6030 O.3   461  ATP461     -0.1143
      3  O2G      -26.4230  -18.2120   17.1170 O.2   461  ATP461     -0.2221
      4  O3G      -25.3510  -19.2350   19.1780 O.3   461  ATP461     -0.1143
      5  PB       -24.6620  -15.6060   19.1770 P.3   461  ATP461      0.2277
      6  O1B      -23.6320  -16.0200   20.2010 O.3   461  ATP461     -0.4368
      7  O2B      -24.2220  -15.1690   17.8010 O.2   461  ATP461     -0.5168
      8  O3B      -25.7170  -16.8100   19.0100 O.3   461  ATP461     -0.2258
      9  PA       -25.1000  -12.8960   19.7040 P.3   461  ATP461      0.2189
     10  O1A      -25.7940  -12.2780   18.5140 O.2   461  ATP461     -0.5170
     11  O2A      -23.5940  -12.8470   19.8070 O.3   461  ATP461     -0.4371
     12  O3A      -25.5630  -14.4340   19.8140 O.3   461  ATP461     -0.2700
     13  O5'      -25.7180  -12.2460   21.0410 O.3   461  ATP461     -0.3112
     14  C5'      -24.8890  -11.5070   21.9370 C.3   461  ATP461      0.1813
     15  C4'      -25.0810  -10.0150   21.6920 C.3   461  ATP461      0.1821
     16  O4'      -26.1820   -9.5410   22.4740 O.3   461  ATP461     -0.3135
     17  C3'      -23.8440   -9.2300   22.1060 C.3   461  ATP461      0.2184
     18  O3'      -23.3440   -8.5000   20.9800 O.3   461  ATP461     -0.2174
     19  C2'      -24.2970   -8.2580   23.1800 C.3   461  ATP461      0.2570
     20  O2'      -24.0810   -6.9150   22.7300 O.3   461  ATP461     -0.2130
     21  C1'      -25.7890   -8.4960   23.3680 C.3   461  ATP461      0.3186
     22  N9       -26.0510   -8.9170   24.7680 N.pl3 461  ATP461     -0.1439
     23  C8       -25.4520   -8.4160   25.8650 C.3   461  ATP461      0.3377
     24  N7       -25.9140   -9.0150   26.9920 N.2   461  ATP461     -0.2095
     25  C5       -26.8330   -9.9240   26.6190 C.2   461  ATP461      0.2526
     26  C6       -27.7090  -10.9030   27.3060 C.2   461  ATP461      0.4393
     27  N6       -27.6930  -11.0310   28.6550 N.pl3 461  ATP461      0.2180
     28  N1       -28.5240  -11.6630   26.5410 N.2   461  ATP461      0.0021
     29  C2       -28.5490  -11.5450   25.2010 C.3   461  ATP461      0.5254
     30  N3       -27.7830  -10.6800   24.5120 N.2   461  ATP461     -0.0055
     31  C4       -26.9190   -9.8560   25.1520 C.2   461  ATP461      0.3518
@<TRIPOS>BOND
     1     3     1    2
     2     2     1    1
     3     7     5    2
     4     1     8    1
     5     1     4    1
     6    10     9    2
     7     8     5    1
     8     5    12    1
     9     5     6    1
    10     9    11    1
    11     9    12    1
    12     9    13    1
    13    18    17    1
    14    13    14    1
    15    15    14    1
    16    15    17    1
    17    15    16    1
    18    17    19    1
    19    16    21    1
    20    20    19    1
    21    19    21    1
    22    21    22    1
    23    30    31    2
    24    30    29    1
    25    22    31    1
    26    22    23    1
    27    31    25    1
    28    29    28    1
    29    23    24    1
    30    28    26    2
    31    25    24    2
    32    25    26    1
    33    26    27    1
