@<TRIPOS>MOLECULE
3b2q_AES_B_1.pdb
 13 13 0 0 0
SMALL
GASTEIGER

@<TRIPOS>ATOM
      1  C3       -43.0340  -23.5690   -8.5740 C.ar  462  AES462     -0.0028
      2  C2       -43.5250  -23.0900   -9.8120 C.ar  462  AES462      0.0208
      3  C1       -44.8050  -22.4890   -9.8820 C.ar  462  AES462      0.1382
      4  S        -45.4240  -21.8890  -11.4390 S.O2  462  AES462      0.1484
      5  F        -46.7450  -21.0790  -11.8090 F     462  AES462     -0.0562
      6  O1S      -44.3740  -21.6760  -12.3880 O.2   462  AES462     -0.1378
      7  O2S      -45.3880  -20.7180  -10.6610 O.2   462  AES462     -0.1378
      8  C6       -45.5930  -22.3740   -8.6980 C.ar  462  AES462      0.0208
      9  C5       -45.1030  -22.8470   -7.4720 C.ar  462  AES462     -0.0028
     10  C4       -43.8180  -23.4490   -7.3990 C.ar  462  AES462     -0.0206
     11  C7       -43.2640  -23.9620   -6.0760 C.3   462  AES462      0.0468
     12  C8       -44.3760  -24.4300   -5.1190 C.3   462  AES462      0.1140
     13  N8       -43.7740  -24.9040   -3.8630 N.3   462  AES462     -0.1310
@<TRIPOS>BOND
     1     6     4    2
     2     5     4    1
     3     4     7    2
     4     4     3    1
     5     3     2   ar
     6     3     8   ar
     7     2     1   ar
     8     8     9   ar
     9     1    10   ar
    10     9    10   ar
    11    10    11    1
    12    11    12    1
    13    12    13    1
