@<TRIPOS>MOLECULE
3b2r_VDN_A_1.pdb
 34 37 0 0 0
SMALL
GASTEIGER

@<TRIPOS>ATOM
      1  C1        30.5490    4.8870   -0.1590 C.3     1  VDN1        0.0512
      2  C2        29.6160    4.1470   -1.1200 C.3     1  VDN1        0.2056
      3  O3        28.3150    4.0590   -0.5200 O.3     1  VDN1       -0.4748
      4  C4        27.3910    3.5780   -1.3960 C.ar    1  VDN1        0.1489
      5  C5        27.7690    2.6910   -2.3970 C.ar    1  VDN1        0.0390
      6  C6        26.8090    2.1630   -3.2530 C.ar    1  VDN1        0.0231
      7  C7        25.4740    2.5220   -3.1050 C.ar    1  VDN1        0.1231
      8  C8        25.0950    3.4120   -2.1070 C.ar    1  VDN1        0.0341
      9  C9        26.0560    3.9420   -1.2520 C.ar    1  VDN1        0.1114
     10  S10       24.2950    1.8390   -4.2030 S.O2    1  VDN1        0.0634
     11  O11       23.9580    0.4470   -3.7610 O.2     1  VDN1       -0.1528
     12  O12       23.0510    2.6750   -4.2180 O.2     1  VDN1       -0.1528
     13  C13       22.3080    2.9420   -9.9710 C.3     1  VDN1        0.0188
     14  N14       24.9910    1.8090   -5.6780 N.3     1  VDN1       -0.1527
     15  C15       24.7100    0.5790   -6.4350 C.3     1  VDN1        0.1131
     16  C16       23.3930    0.6520   -7.2120 C.3     1  VDN1        0.0915
     17  N17       23.3950    1.8510   -8.0600 N.3     1  VDN1       -0.2702
     18  C18       23.3980    3.0170   -7.1670 C.3     1  VDN1        0.0915
     19  C19       24.7310    3.0550   -6.4170 C.3     1  VDN1        0.1131
     20  C20       22.1820    1.8660   -8.8900 C.3     1  VDN1        0.0722
     21  C21       25.6890    4.8360   -0.2510 C.1     1  VDN1        0.1184
     22  N22       26.3530    6.0640   -0.1460 N.2     1  VDN1       -0.2785
     23  C23       25.9790    6.9310    0.8860 C.1     1  VDN1        0.2158
     24  C24       24.9670    6.5090    1.7370 C.3     1  VDN1        0.2637
     25  N25       24.3750    5.2570    1.5370 N.pl3   1  VDN1       -0.1572
     26  N26       24.7210    4.5110    0.6210 N.2     1  VDN1       -0.1078
     27  O27       26.5500    8.0090    1.0500 O.2     1  VDN1       -0.2113
     28  C28       24.3370    7.0570    2.8470 C.2     1  VDN1        0.1253
     29  N29       23.4190    6.2170    3.3180 N.2     1  VDN1       -0.3955
     30  C30       23.4200    5.1270    2.5540 C.2     1  VDN1        0.1799
     31  C31       24.6430    8.4280    3.4520 C.3     1  VDN1        0.0646
     32  C32       22.5700    3.8670    2.7220 C.3     1  VDN1        0.0765
     33  C33       23.4250    2.6950    3.2110 C.3     1  VDN1        0.0089
     34  C34       24.0980    3.0160    4.5480 C.3     1  VDN1        0.0005
@<TRIPOS>BOND
     1    13    20    1
     2    20    17    1
     3    17    16    1
     4    17    18    1
     5    16    15    1
     6    18    19    1
     7    15    14    1
     8    19    14    1
     9    14    10    1
    10    12    10    2
    11    10    11    2
    12    10     7    1
    13     6     7   ar
    14     6     5   ar
    15     7     8   ar
    16     5     4   ar
    17     8     9   ar
    18     4     9   ar
    19     4     3    1
    20     9    21    1
    21     2     3    1
    22     2     1    1
    23    21    22    2
    24    21    26    2
    25    22    23    2
    26    26    25    1
    27    23    27    2
    28    23    24    1
    29    25    24    1
    30    25    30    1
    31    24    28    1
    32    30    32    1
    33    30    29    2
    34    32    33    1
    35    28    29    2
    36    28    31    1
    37    33    34    1
