@<TRIPOS>MOLECULE
3b2s_COA_A_1.pdb
 45 47 0 0 0
SMALL
GASTEIGER

@<TRIPOS>ATOM
      1  N1A      -23.4360  -43.0730  -40.9900 N.2   454  COA454      0.0021
      2  C2A      -22.6490  -42.1630  -40.2980 C.3   454  COA454      0.5254
      3  N3A      -23.2610  -41.2390  -39.4680 N.2   454  COA454     -0.0055
      4  C4A      -24.6260  -41.2330  -39.3440 C.2   454  COA454      0.3518
      5  C5A      -25.4240  -42.1350  -40.0520 C.2   454  COA454      0.2526
      6  C6A      -24.8180  -43.0740  -40.8980 C.2   454  COA454      0.4393
      7  N6A      -25.5370  -43.6740  -41.8570 N.pl3 454  COA454      0.2180
      8  N7A      -26.7220  -41.8810  -39.7360 N.2   454  COA454     -0.2095
      9  C8A      -26.7640  -40.8490  -38.8570 C.3   454  COA454      0.3377
     10  N9A      -25.4720  -40.4400  -38.6110 N.pl3 454  COA454     -0.1439
     11  C1B      -25.0200  -39.3480  -37.7300 C.3   454  COA454      0.3185
     12  C2B      -25.3630  -37.9700  -38.2910 C.3   454  COA454      0.2543
     13  O2B      -24.4310  -37.5620  -39.2740 O.3   454  COA454     -0.2131
     14  C3B      -25.3260  -37.1270  -37.0280 C.3   454  COA454      0.1928
     15  O3B      -23.9900  -36.8570  -36.6720 O.3   454  COA454     -0.2673
     16  P3B      -23.3540  -35.3930  -36.8200 P.3   454  COA454      0.5327
     17  O7A      -23.3220  -34.9620  -38.2750 O.2   454  COA454     -0.2224
     18  O8A      -24.1950  -34.3910  -36.0460 O.3   454  COA454     -0.1145
     19  O9A      -21.9390  -35.4640  -36.3030 O.3   454  COA454     -0.1145
     20  C4B      -25.8070  -38.0900  -35.9590 C.3   454  COA454      0.1795
     21  O4B      -25.6050  -39.4080  -36.4390 O.3   454  COA454     -0.3136
     22  C5B      -27.2600  -37.8660  -35.5670 C.3   454  COA454      0.1812
     23  O5B      -27.4380  -38.6720  -34.4290 O.3   454  COA454     -0.3112
     24  P1A      -28.5040  -38.2780  -33.2860 P.3   454  COA454      0.2189
     25  O1A      -28.3820  -39.2810  -32.1550 O.3   454  COA454     -0.4371
     26  O2A      -29.9130  -38.2770  -33.8760 O.2   454  COA454     -0.5170
     27  O3A      -28.1420  -36.7610  -32.8480 O.3   454  COA454     -0.2703
     28  P2A      -26.9400  -36.2830  -31.8820 P.3   454  COA454      0.2188
     29  O4A      -26.4110  -34.9940  -32.4840 O.2   454  COA454     -0.5170
     30  O5A      -25.9000  -37.3700  -31.6630 O.3   454  COA454     -0.4371
     31  O6A      -27.6210  -35.9480  -30.4370 O.3   454  COA454     -0.3138
     32  CBP      -28.6620  -36.4250  -28.2830 C.3   454  COA454      0.0645
     33  CCP      -27.7800  -36.9360  -29.4250 C.3   454  COA454      0.1519
     34  CDP      -28.9520  -37.6280  -27.3900 C.3   454  COA454      0.0056
     35  CEP      -27.8610  -35.4150  -27.4810 C.3   454  COA454      0.0056
     36  CAP      -29.9480  -35.7520  -28.8480 C.3   454  COA454      0.2312
     37  OAP      -30.6280  -36.5920  -29.7680 O.3   454  COA454     -0.2131
     38  C9P      -30.9760  -35.2440  -27.8510 C.2   454  COA454      0.2719
     39  O9P      -31.9970  -36.1170  -27.4920 O.2   454  COA454     -0.2706
     40  N8P      -30.9180  -33.9930  -27.3690 N.am  454  COA454     -0.2028
     41  C7P      -31.2030  -33.6550  -25.9670 C.3   454  COA454      0.1249
     42  C6P      -32.6420  -33.1730  -25.7470 C.3   454  COA454      0.1119
     43  C5P      -32.7790  -32.2980  -24.5300 C.2   454  COA454      0.2625
     44  O5P      -31.7800  -32.0660  -23.8350 O.2   454  COA454     -0.2716
     45  N4P      -33.9980  -31.7970  -24.2680 N.am  454  COA454     -0.0877
@<TRIPOS>BOND
     1     7     6    1
     2     1     6    2
     3     1     2    1
     4     6     5    1
     5     2     3    1
     6     5     8    2
     7     5     4    1
     8     8     9    1
     9     3     4    2
    10     4    10    1
    11    13    12    1
    12     9    10    1
    13    10    11    1
    14    12    11    1
    15    12    14    1
    16    17    16    2
    17    11    21    1
    18    14    15    1
    19    14    20    1
    20    16    15    1
    21    16    19    1
    22    16    18    1
    23    21    20    1
    24    20    22    1
    25    22    23    1
    26    23    24    1
    27    26    24    2
    28    24    27    1
    29    24    25    1
    30    27    28    1
    31    29    28    2
    32    28    30    1
    33    28    31    1
    34    31    33    1
    35    37    36    1
    36    33    32    1
    37    36    32    1
    38    36    38    1
    39    32    35    1
    40    32    34    1
    41    38    39    2
    42    38    40   am
    43    40    41    1
    44    41    42    1
    45    42    43    1
    46    43    45   am
    47    43    44    2
