@<TRIPOS>MOLECULE
3b2s_B2S_A_1.pdb
 21 24 0 0 0
SMALL
GASTEIGER

@<TRIPOS>ATOM
      1  C13      -29.1790  -32.5530  -16.5020 C.3   455  B2S455      0.1716
      2  O2       -30.1340  -33.1390  -17.4850 O.3   455  B2S455     -0.3510
      3  C12      -30.5730  -31.9810  -16.7110 C.3   455  B2S455      0.1474
      4  C5       -31.7700  -32.1690  -15.7640 C.3   455  B2S455      0.0374
      5  C14      -31.9060  -33.6140  -15.2160 C.3   455  B2S455      0.0028
      6  C4       -32.9100  -31.8390  -16.7830 C.3   455  B2S455      0.0382
      7  C3       -32.2350  -31.0880  -17.9730 C.3   455  B2S455      0.1814
      8  O3       -32.9050  -29.8470  -18.2950 O.3   455  B2S455     -0.2205
      9  C2       -30.8320  -30.7310  -17.4760 C.3   455  B2S455      0.1723
     10  O1       -30.9260  -29.5230  -16.6400 O.3   455  B2S455     -0.3534
     11  C11      -31.2460  -29.7120  -15.1870 C.3   455  B2S455      0.1210
     12  C10      -31.4520  -28.5010  -14.4650 C.3   455  B2S455      0.0371
     13  C9       -30.9600  -28.6330  -13.1520 C.3   455  B2S455      0.0626
     14  C16      -31.0070  -27.4470  -12.1750 C.3   455  B2S455      0.0079
     15  C8       -30.4510  -29.8920  -12.7440 C.2   455  B2S455      0.1805
     16  O5       -30.0300  -30.0550  -11.5920 O.2   455  B2S455     -0.2934
     17  C7       -30.4170  -31.1050  -13.7490 C.3   455  B2S455      0.2133
     18  O4       -30.2290  -32.3840  -13.1250 O.3   455  B2S455     -0.2150
     19  C6       -31.6950  -31.0910  -14.6350 C.3   455  B2S455      0.0928
     20  C15      -32.9770  -31.0630  -13.7570 C.3   455  B2S455      0.1873
     21  O6       -32.5550  -31.1430  -12.3790 O.3   455  B2S455     -0.2202
@<TRIPOS>BOND
     1     8     7    1
     2     7     9    1
     3     7     6    1
     4     2     3    1
     5     2     1    1
     6     9     3    1
     7     9    10    1
     8     6     4    1
     9     3     1    1
    10     3     4    1
    11    10    11    1
    12     4     5    1
    13     4    19    1
    14    11    19    1
    15    11    12    1
    16    19    20    1
    17    19    17    1
    18    12    13    1
    19    20    21    1
    20    17    18    1
    21    17    15    1
    22    13    15    1
    23    13    14    1
    24    15    16    2
