@<TRIPOS>MOLECULE
3b2t_M33_A_1.pdb
 27 29 0 0 0
SMALL
GASTEIGER

@<TRIPOS>ATOM
      1  PB        26.8760  -22.2150  -31.7810 P.3   1996  M331996     0.3749
      2  O1B       27.1880  -20.8710  -31.2450 O.2   1996  M331996    -0.2552
      3  O2B       27.2500  -23.4960  -31.1410 O.3   1996  M331996    -0.1395
      4  C3B       26.5580  -22.3560  -33.5580 C.3   1996  M331996     0.1312
      5  PA        24.7770  -22.6150  -29.9560 P.3   1996  M331996     0.2208
      6  O1A       23.6300  -21.7370  -29.6320 O.2   1996  M331996    -0.5170
      7  O2A       25.9420  -22.6180  -29.0410 O.3   1996  M331996    -0.4371
      8  O3A       25.3040  -22.2250  -31.4290 O.3   1996  M331996    -0.2486
      9  O5'       24.2520  -24.1260  -30.1430 O.3   1996  M331996    -0.3111
     10  C5'       25.1070  -25.2350  -29.8470 C.3   1996  M331996     0.1813
     11  C4'       24.4420  -26.5720  -30.1880 C.3   1996  M331996     0.1821
     12  O4'       23.1590  -26.6290  -29.5350 O.3   1996  M331996    -0.3135
     13  C3'       24.1430  -26.6170  -31.6890 C.3   1996  M331996     0.2184
     14  O3'       23.9260  -27.9690  -32.1010 O.3   1996  M331996    -0.2174
     15  C2'       22.8200  -25.8570  -31.7160 C.3   1996  M331996     0.2570
     16  O2'       22.1350  -26.1610  -32.9340 O.3   1996  M331996    -0.2130
     17  C1'       22.1420  -26.5800  -30.5520 C.3   1996  M331996     0.3186
     18  N9        20.9480  -25.8420  -30.0810 N.pl3 1996  M331996    -0.1439
     19  C8        20.9100  -24.5550  -29.7410 C.3   1996  M331996     0.3377
     20  N7        19.6740  -24.2220  -29.3770 N.2   1996  M331996    -0.2095
     21  C5        18.9120  -25.3080  -29.4840 C.2   1996  M331996     0.2526
     22  C6        17.5680  -25.5720  -29.2530 C.2   1996  M331996     0.4393
     23  N6        16.7480  -24.6130  -28.8330 N.pl3 1996  M331996     0.2180
     24  N1        17.1090  -26.8130  -29.4710 N.2   1996  M331996     0.0021
     25  C2        17.9110  -27.7730  -29.8970 C.3   1996  M331996     0.5254
     26  N3        19.1940  -27.5560  -30.1270 N.2   1996  M331996    -0.0055
     27  C4        19.7240  -26.3410  -29.9320 C.2   1996  M331996     0.3518
@<TRIPOS>BOND
     1     4     1    1
     2    16    15    1
     3    14    13    1
     4     1     8    1
     5     1     2    2
     6     1     3    1
     7    15    13    1
     8    15    17    1
     9    13    11    1
    10     8     5    1
    11    17    18    1
    12    17    12    1
    13    11    10    1
    14    11    12    1
    15     9     5    1
    16     9    10    1
    17    26    27    2
    18    26    25    1
    19    18    27    1
    20    18    19    1
    21     5     6    2
    22     5     7    1
    23    27    21    1
    24    25    24    1
    25    19    20    1
    26    21    20    2
    27    21    22    1
    28    24    22    2
    29    22    23    1
