@<TRIPOS>MOLECULE
3b2w_9NH_A_1.pdb
 45 49 0 0 0
SMALL
GASTEIGER

@<TRIPOS>ATOM
      1  C1        19.7580    3.5410   19.8200 C.3   601  9NH601      0.1101
      2  C2        17.9380    1.4070   16.4560 C.ar  601  9NH601      0.0159
      3  C3        20.9130    4.8100   18.1490 C.3   601  9NH601      0.1101
      4  N6        14.7510   -5.7290   14.2800 N.am  601  9NH601     -0.1756
      5  C7         7.6060   -8.7440   11.3190 C.ar  601  9NH601      0.0189
      6  C8         6.5610   -8.8180   10.3370 C.ar  601  9NH601      0.0014
      7  C9         6.9020   -8.7700    8.9420 C.ar  601  9NH601      0.0062
      8  C10        8.2740   -8.6490    8.5090 C.ar  601  9NH601      0.1001
      9  C11        9.2810   -8.5820    9.5520 C.ar  601  9NH601      0.1592
     10  C12       12.8290   -6.6190   13.1900 C.ar  601  9NH601      0.0209
     11  C13       13.9260   -6.7880   14.0710 C.ar  601  9NH601      0.0698
     12  C14        8.6800   -8.5810    7.0250 C.3   601  9NH601      0.4207
     13  C15       14.1540   -8.0490   14.7320 C.ar  601  9NH601     -0.0065
     14  C16       15.3390   -8.1580   15.6400 C.3   601  9NH601      0.0324
     15  C19       16.4360   -3.4860   14.7090 C.2   601  9NH601      0.2945
     16  C20       18.3240   -2.3820   14.0540 C.1   601  9NH601      0.1725
     17  C21       15.2130   -2.5220   16.4890 C.3   601  9NH601      0.2553
     18  C22       13.2950   -9.2120   14.5530 C.ar  601  9NH601     -0.0028
     19  C24       11.9580   -7.7510   12.9840 C.ar  601  9NH601      0.0567
     20  C27       15.8140   -5.5530   13.4730 C.2   601  9NH601      0.2762
     21  C30       20.4920    1.4520   16.0360 C.ar  601  9NH601      0.0159
     22  C31       19.0780   -0.2210   14.9330 C.ar  601  9NH601      0.0827
     23  C23       12.1750   -9.0510   13.6580 C.ar  601  9NH601      0.0043
     24  C25       10.8430   -7.5340   12.0170 C.2   601  9NH601      0.2691
     25  N3         9.9160   -8.5310   11.9460 N.am  601  9NH601     -0.1732
     26  C26        8.9790   -8.6240   10.9480 C.ar  601  9NH601      0.1010
     27  F1         7.6230   -8.7210    6.2490 F     601  9NH601     -0.1658
     28  F3         9.5020   -9.6040    6.7670 F     601  9NH601     -0.1658
     29  F2         9.2900   -7.3990    6.7540 F     601  9NH601     -0.1658
     30  N1        18.6700   -3.3050   13.1440 N.2   601  9NH601     -0.1680
     31  C17       17.8930   -4.3660   12.9690 C.2   601  9NH601      0.1222
     32  C18       16.7150   -4.4750   13.7660 C.2   601  9NH601      0.1419
     33  N4        17.2330   -2.4520   14.8440 N.2   601  9NH601     -0.2987
     34  N7        19.1220   -1.3010   14.0840 N.pl3 601  9NH601     -0.1357
     35  F4        10.5520   -8.4690    9.2270 F     601  9NH601     -0.2029
     36  O1        16.0150   -6.2550   12.5000 O.2   601  9NH601     -0.2677
     37  O2        10.7770   -6.5320   11.3110 O.2   601  9NH601     -0.2680
     38  O3        15.3690   -3.5760   15.5370 O.2   601  9NH601     -0.4470
     39  C28       17.8560    0.3060   15.5740 C.ar  601  9NH601      0.0186
     40  C29       19.2670    1.9490   16.6610 C.ar  601  9NH601      0.0480
     41  C5        20.3850    0.3380   15.1480 C.ar  601  9NH601      0.0186
     42  N2        19.9790    4.9220   19.3120 N.3   601  9NH601     -0.2144
     43  C4        20.0920    4.2150   17.0130 C.3   601  9NH601      0.1096
     44  N5        19.3620    3.0120   17.4910 N.pl3 601  9NH601     -0.3045
     45  C6        18.7520    2.9650   18.8430 C.3   601  9NH601      0.1096
@<TRIPOS>BOND
     1    27    12    1
     2    29    12    1
     3    28    12    1
     4    12     8    1
     5     8     7   ar
     6     8     9   ar
     7     7     6   ar
     8    35     9    1
     9     9    26   ar
    10     6     5   ar
    11    26     5   ar
    12    26    25    1
    13    37    24    2
    14    25    24   am
    15    24    19    1
    16    36    20    2
    17    31    30    1
    18    31    32    2
    19    19    10   ar
    20    19    23   ar
    21    30    16    2
    22    10    11   ar
    23    20    32    1
    24    20     4   am
    25    23    18   ar
    26    32    15    1
    27    16    34    1
    28    16    33    2
    29    11     4    1
    30    11    13   ar
    31    34    22    1
    32    18    13   ar
    33    15    33    2
    34    15    38    1
    35    13    14    1
    36    22    41   ar
    37    22    39   ar
    38    41    21   ar
    39    38    17    1
    40    39     2   ar
    41    21    40   ar
    42     2    40   ar
    43    40    44    1
    44    43    44    1
    45    43     3    1
    46    44    45    1
    47     3    42    1
    48    45     1    1
    49    42     1    1
