@<TRIPOS>MOLECULE
3b2x_LYS_A_1.pdb
 10 9 0 0 0
SMALL
GASTEIGER

@<TRIPOS>ATOM
      1  N         63.5070  -20.0860   -9.4780 N.3   960  LYS960     -0.1208
      2  CA        64.6040  -19.7830   -8.4980 C.3   960  LYS960      0.1943
      3  C         64.0530  -18.8680   -7.4210 C.2   960  LYS960      0.3819
      4  O         64.5020  -18.9050   -6.2680 O.co2 960  LYS960     -0.2441
      5  CB        65.7890  -19.0740   -9.1790 C.3   960  LYS960      0.0307
      6  CG        66.3900  -19.8180  -10.3940 C.3   960  LYS960      0.0036
      7  CD        67.7190  -19.1950  -10.8500 C.3   960  LYS960      0.0206
      8  CE        68.1020  -19.6480  -12.2660 C.3   960  LYS960      0.1093
      9  NZ        69.4730  -19.2070  -12.6770 N.3   960  LYS960     -0.1314
     10  OXT       63.1910  -18.0400   -7.7290 O.co2 960  LYS960     -0.2441
@<TRIPOS>BOND
     1     9     8    1
     2     8     7    1
     3     7     6    1
     4     6     5    1
     5     1     2    1
     6     5     2    1
     7     2     3    1
     8    10     3   ar
     9     3     4   ar
