@<TRIPOS>MOLECULE
3b30_ETB_A_1.pdb
 46 48 0 0 0
SMALL
GASTEIGER

@<TRIPOS>ATOM
      1  N1A      -23.2850  -42.8440  -40.6950 N.2   452  ETB452      0.0021
      2  C2A      -22.5550  -41.9130  -40.0550 C.3   452  ETB452      0.5254
      3  N3A      -23.1160  -41.0180  -39.2340 N.2   452  ETB452     -0.0055
      4  C4A      -24.4120  -41.0450  -39.0000 C.2   452  ETB452      0.3518
      5  C5A      -25.1840  -41.9650  -39.6380 C.2   452  ETB452      0.2526
      6  C6A      -24.6130  -42.8860  -40.5210 C.2   452  ETB452      0.4393
      7  N6A      -25.3300  -43.7030  -41.2550 N.pl3 452  ETB452      0.2180
      8  N7A      -26.4140  -41.7320  -39.2630 N.2   452  ETB452     -0.2095
      9  C8A      -26.4500  -40.7050  -38.4260 C.3   452  ETB452      0.3377
     10  N9A      -25.2040  -40.2640  -38.2650 N.pl3 452  ETB452     -0.1439
     11  C1B      -24.7550  -39.1130  -37.5190 C.3   452  ETB452      0.3185
     12  C2B      -25.1910  -37.8130  -38.1450 C.3   452  ETB452      0.2543
     13  O2B      -24.4890  -37.5020  -39.2670 O.3   452  ETB452     -0.2131
     14  C3B      -25.0580  -36.8630  -36.9870 C.3   452  ETB452      0.1928
     15  O3B      -23.7350  -36.5350  -36.8830 O.3   452  ETB452     -0.2673
     16  P3B      -23.1850  -35.1280  -36.8180 P.3   452  ETB452      0.5327
     17  O7A      -23.2470  -34.7720  -38.1240 O.2   452  ETB452     -0.2224
     18  O8A      -24.0340  -34.2760  -36.1090 O.3   452  ETB452     -0.1145
     19  O9A      -21.8650  -35.2130  -36.3080 O.3   452  ETB452     -0.1145
     20  C4B      -25.3730  -37.7660  -35.8480 C.3   452  ETB452      0.1795
     21  O4B      -25.3180  -39.0690  -36.2690 O.3   452  ETB452     -0.3136
     22  C5B      -26.7370  -37.4270  -35.3250 C.3   452  ETB452      0.1812
     23  O5B      -27.0920  -38.2250  -34.2790 O.3   452  ETB452     -0.3112
     24  P1A      -28.1760  -37.8320  -33.2470 P.3   452  ETB452      0.2189
     25  O1A      -28.1260  -38.9590  -32.3410 O.3   452  ETB452     -0.4371
     26  O2A      -29.4600  -37.6450  -33.8700 O.2   452  ETB452     -0.5170
     27  O3A      -27.8740  -36.4450  -32.6200 O.3   452  ETB452     -0.2703
     28  P2A      -26.7020  -35.9600  -31.7630 P.3   452  ETB452      0.2188
     29  O4A      -26.3940  -34.7360  -32.3370 O.2   452  ETB452     -0.5170
     30  O5A      -25.7250  -36.9360  -31.7020 O.3   452  ETB452     -0.4371
     31  O6A      -27.2780  -35.7510  -30.3490 O.3   452  ETB452     -0.3138
     32  CBP      -28.5560  -36.1320  -28.4160 C.3   452  ETB452      0.0645
     33  CCP      -27.7770  -36.7670  -29.5670 C.3   452  ETB452      0.1519
     34  CDP      -28.8620  -37.2260  -27.4600 C.3   452  ETB452      0.0056
     35  CEP      -27.8510  -35.0500  -27.6420 C.3   452  ETB452      0.0056
     36  CAP      -29.7930  -35.4670  -29.0000 C.3   452  ETB452      0.2312
     37  OAP      -30.5000  -36.3310  -29.7770 O.3   452  ETB452     -0.2131
     38  C9P      -30.6300  -34.8640  -27.9180 C.2   452  ETB452      0.2719
     39  O9P      -31.5560  -35.6760  -27.4020 O.2   452  ETB452     -0.2706
     40  N8P      -30.3600  -33.6460  -27.5070 N.am  452  ETB452     -0.2028
     41  C7P      -31.1500  -32.8640  -26.6130 C.3   452  ETB452      0.1248
     42  C6P      -30.9970  -33.1530  -25.1360 C.3   452  ETB452      0.1102
     43  C5P      -31.9370  -32.3130  -24.3020 C.2   452  ETB452      0.2432
     44  O5P      -33.1640  -32.2030  -24.5190 O.2   452  ETB452     -0.2733
     45  N4P      -31.3490  -31.6690  -23.3570 N.am  452  ETB452     -0.2035
     46  C3P      -31.9690  -31.4330  -22.0910 C.3   452  ETB452      0.1385
@<TRIPOS>BOND
     1     7     6    1
     2     1     6    2
     3     1     2    1
     4     6     5    1
     5     2     3    1
     6     5     8    2
     7     5     4    1
     8    13    12    1
     9     8     9    1
    10     3     4    2
    11     4    10    1
    12     9    10    1
    13    10    11    1
    14    12    11    1
    15    12    14    1
    16    17    16    2
    17    11    21    1
    18    14    15    1
    19    14    20    1
    20    15    16    1
    21    16    19    1
    22    16    18    1
    23    21    20    1
    24    20    22    1
    25    22    23    1
    26    23    24    1
    27    26    24    2
    28    24    27    1
    29    24    25    1
    30    27    28    1
    31    29    28    2
    32    28    30    1
    33    28    31    1
    34    31    33    1
    35    37    36    1
    36    33    32    1
    37    36    32    1
    38    36    38    1
    39    32    35    1
    40    32    34    1
    41    38    40   am
    42    38    39    2
    43    40    41    1
    44    41    42    1
    45    42    43    1
    46    44    43    2
    47    43    45   am
    48    45    46    1
