@<TRIPOS>MOLECULE
3b34_PHE_A_1.pdb
 12 12 0 0 0
SMALL
GASTEIGER

@<TRIPOS>ATOM
      1  N        -64.0660   20.4230   -9.4300 N.3   900  PHE900     -0.1205
      2  CA       -64.6810   19.8750   -8.1900 C.3   900  PHE900      0.1986
      3  C        -63.6410   19.0530   -7.4450 C.2   900  PHE900      0.3822
      4  O        -63.3470   17.8880   -7.7760 O.co2 900  PHE900     -0.2440
      5  CB       -65.9170   19.0320   -8.5070 C.3   900  PHE900      0.0569
      6  CG       -67.0020   19.7910   -9.2270 C.ar  900  PHE900     -0.0202
      7  CD1      -67.8280   20.6790   -8.5420 C.ar  900  PHE900     -0.0042
      8  CD2      -67.2050   19.6020  -10.5930 C.ar  900  PHE900     -0.0042
      9  CE1      -68.8510   21.3700   -9.2040 C.ar  900  PHE900     -0.0003
     10  CE2      -68.2200   20.2910  -11.2660 C.ar  900  PHE900     -0.0003
     11  CZ       -69.0430   21.1740  -10.5680 C.ar  900  PHE900     -0.0000
     12  OXT      -63.0380   19.5480   -6.5010 O.co2 900  PHE900     -0.2440
@<TRIPOS>BOND
     1    10     8   ar
     2    10    11   ar
     3     8     6   ar
     4    11     9   ar
     5     1     2    1
     6     6     7   ar
     7     6     5    1
     8     9     7   ar
     9     5     2    1
    10     2     3    1
    11     4     3   ar
    12     3    12   ar
