@<TRIPOS>MOLECULE
3b37_TYR_A_1.pdb
 13 13 0 0 0
SMALL
GASTEIGER

@<TRIPOS>ATOM
      1  N         56.5380  -20.5260   37.7630 N.3   900  TYR900     -0.1205
      2  CA        55.8350  -19.9740   36.5850 C.3   900  TYR900      0.1986
      3  C         56.7710  -19.0600   35.8060 C.2   900  TYR900      0.3822
      4  O         56.8700  -17.8590   36.0720 O.co2 900  TYR900     -0.2440
      5  CB        54.6470  -19.1400   37.0110 C.3   900  TYR900      0.0569
      6  CG        53.5110  -19.8230   37.7120 C.ar  900  TYR900     -0.0200
      7  CD1       53.3030  -19.6300   39.0810 C.ar  900  TYR900     -0.0009
      8  CD2       52.5880  -20.5860   37.0040 C.ar  900  TYR900     -0.0009
      9  CE1       52.2240  -20.1940   39.7300 C.ar  900  TYR900      0.0417
     10  CE2       51.5010  -21.1620   37.6500 C.ar  900  TYR900      0.0417
     11  CZ        51.3240  -20.9600   39.0140 C.ar  900  TYR900      0.1957
     12  OH        50.2420  -21.5220   39.6620 O.3   900  TYR900     -0.2866
     13  OXT       57.4810  -19.5080   34.9230 O.co2 900  TYR900     -0.2440
@<TRIPOS>BOND
     1    13     3   ar
     2     3     4   ar
     3     3     2    1
     4     2     5    1
     5     2     1    1
     6     8    10   ar
     7     8     6   ar
     8     5     6    1
     9    10    11   ar
    10     6     7   ar
    11    11    12    1
    12    11     9   ar
    13     7     9   ar
