@<TRIPOS>MOLECULE
3b3b_TRP_A_1.pdb
 15 16 0 0 0
SMALL
GASTEIGER

@<TRIPOS>ATOM
      1  N        -49.6280   45.0530    9.5420 N.3   900  TRP900     -0.1205
      2  CA       -49.6470   45.9320    8.3560 C.3   900  TRP900      0.1984
      3  C        -48.3790   45.5730    7.5850 C.2   900  TRP900      0.3822
      4  O        -47.2570   45.8850    7.9480 O.co2 900  TRP900     -0.2440
      5  CB       -49.6060   47.4120    8.7550 C.3   900  TRP900      0.0549
      6  CG       -50.9230   48.0710    9.1890 C.2   900  TRP900     -0.0138
      7  CD1      -52.0430   48.2610    8.4170 C.2   900  TRP900      0.0907
      8  CD2      -51.2080   48.6880   10.4630 C.3   900  TRP900      0.0819
      9  NE1      -53.0110   48.9300    9.1420 N.2   900  TRP900     -0.2482
     10  CE2      -52.5220   49.2090   10.3950 C.2   900  TRP900      0.0665
     11  CE3      -50.4850   48.8490   11.6470 C.2   900  TRP900     -0.0164
     12  CZ2      -53.1230   49.8860   11.4710 C.2   900  TRP900      0.0153
     13  CZ3      -51.0870   49.5210   12.7280 C.2   900  TRP900     -0.0038
     14  CH2      -52.3840   50.0260   12.6320 C.2   900  TRP900      0.0009
     15  OXT      -48.4270   44.8780    6.5870 O.co2 900  TRP900     -0.2440
@<TRIPOS>BOND
     1    15     3   ar
     2     3     4   ar
     3     3     2    1
     4     2     5    1
     5     2     1    1
     6     7     9    1
     7     7     6    2
     8     5     6    1
     9     9    10    2
    10     6     8    1
    11    10     8    1
    12    10    12    1
    13     8    11    1
    14    12    14    2
    15    11    13    2
    16    14    13    1
