@<TRIPOS>MOLECULE
3b3f_SAH_A_1.pdb
 26 28 0 0 0
SMALL
GASTEIGER

@<TRIPOS>ATOM
      1  N         53.7310   36.7300  135.3100 N.3   481  SAH481     -0.1208
      2  CA        52.6660   35.8370  135.8880 C.3   481  SAH481      0.1952
      3  CB        51.6660   35.3560  134.8440 C.3   481  SAH481      0.0422
      4  CG        52.2800   34.7220  133.6040 C.3   481  SAH481      0.0597
      5  SD        50.9860   34.1220  132.4930 S.3   481  SAH481     -0.1375
      6  C         53.3190   34.6080  136.4870 C.2   481  SAH481      0.3819
      7  O         54.5210   34.4150  136.2120 O.co2 481  SAH481     -0.2441
      8  OXT       52.6710   33.8160  137.2130 O.co2 481  SAH481     -0.2441
      9  C5'       51.2240   35.4480  131.2830 C.3   481  SAH481      0.0899
     10  C4'       50.4340   36.7090  131.6060 C.3   481  SAH481      0.1630
     11  O4'       50.7340   37.6860  130.6520 O.3   481  SAH481     -0.3153
     12  C3'       48.9150   36.5550  131.5820 C.3   481  SAH481      0.2168
     13  O3'       48.4590   37.2020  132.7530 O.3   481  SAH481     -0.2175
     14  C2'       48.4390   37.3130  130.3440 C.3   481  SAH481      0.2569
     15  O2'       47.1840   37.9900  130.4730 O.3   481  SAH481     -0.2130
     16  C1'       49.5520   38.3500  130.2140 C.3   481  SAH481      0.3185
     17  N9        49.8360   38.8400  128.8530 N.pl3 481  SAH481     -0.1439
     18  C8        50.0100   38.0660  127.7300 C.3   481  SAH481      0.3377
     19  N7        50.2810   38.8870  126.7070 N.2   481  SAH481     -0.2095
     20  C5        50.3050   40.1740  127.1520 C.2   481  SAH481      0.2526
     21  C6        50.5480   41.3840  126.5070 C.2   481  SAH481      0.4393
     22  N6        50.8200   41.4090  125.1970 N.pl3 481  SAH481      0.2180
     23  N1        50.5390   42.5570  127.2250 N.2   481  SAH481      0.0021
     24  C2        50.2540   42.5290  128.5770 C.3   481  SAH481      0.5254
     25  N3        50.0050   41.3220  129.2110 N.2   481  SAH481     -0.0055
     26  C4        50.0390   40.1580  128.5050 C.2   481  SAH481      0.3518
@<TRIPOS>BOND
     1    22    21    1
     2    21    20    1
     3    21    23    2
     4    19    20    2
     5    19    18    1
     6    20    26    1
     7    23    24    1
     8    18    17    1
     9    26    17    1
    10    26    25    2
    11    24    25    1
    12    17    16    1
    13    16    14    1
    14    16    11    1
    15    14    15    1
    16    14    12    1
    17    11    10    1
    18     9    10    1
    19     9     5    1
    20    12    10    1
    21    12    13    1
    22     5     4    1
    23     4     3    1
    24     3     2    1
    25     1     2    1
    26     2     6    1
    27     7     6   ar
    28     6     8   ar
