@<TRIPOS>MOLECULE
3b3k_LRG_A_1.pdb
 24 26 0 0 0
SMALL
GASTEIGER

@<TRIPOS>ATOM
      1  CAI       16.6020   61.2790   16.4460 C.ar    1  LRG1       -0.0041
      2  CAE       16.3350   61.1190   15.0870 C.ar    1  LRG1       -0.0003
      3  CAC       17.3720   60.8170   14.2070 C.ar    1  LRG1       -0.0000
      4  CAF       18.6700   60.6720   14.6840 C.ar    1  LRG1       -0.0003
      5  CAJ       18.9350   60.8300   16.0400 C.ar    1  LRG1       -0.0041
      6  CAT       17.9020   61.1350   16.9230 C.ar    1  LRG1       -0.0180
      7  CAQ       18.2000   61.3340   18.4120 C.3     1  LRG1        0.0818
      8  CAX       18.7960   62.7150   18.6850 C.3     1  LRG1        0.2719
      9  CAS       19.0800   62.8320   20.1850 C.2     1  LRG1        0.4044
     10  OAB       18.1160   63.1100   20.9320 O.co2   1  LRG1       -0.2416
     11  OAA       20.2520   62.6460   20.5770 O.co2   1  LRG1       -0.2416
     12  OAR       19.9880   62.8560   17.8950 O.3     1  LRG1       -0.4673
     13  CAU       20.6360   64.0580   17.9570 C.ar    1  LRG1        0.1392
     14  CAN       19.9910   65.2310   18.3410 C.ar    1  LRG1        0.0369
     15  CAP       20.6690   66.4430   18.3170 C.ar    1  LRG1        0.0031
     16  CAM       21.9690   64.1090   17.5650 C.ar    1  LRG1        0.0369
     17  CAO       22.6430   65.3250   17.5380 C.ar    1  LRG1        0.0031
     18  CAW       22.0010   66.5050   17.9070 C.ar    1  LRG1        0.0002
     19  CAV       22.6520   67.7310   17.7900 C.ar    1  LRG1        0.0000
     20  CAK       24.0210   67.7860   17.5400 C.ar    1  LRG1        0.0000
     21  CAG       24.6700   69.0110   17.4010 C.ar    1  LRG1        0.0000
     22  CAD       23.9510   70.1920   17.5120 C.ar    1  LRG1        0.0000
     23  CAH       22.5840   70.1520   17.7640 C.ar    1  LRG1        0.0000
     24  CAL       21.9400   68.9240   17.9030 C.ar    1  LRG1        0.0000
@<TRIPOS>BOND
     1     3     4   ar
     2     3     2   ar
     3     4     5   ar
     4     2     1   ar
     5     5     6   ar
     6     1     6   ar
     7     6     7    1
     8    21    22   ar
     9    21    20   ar
    10    22    23   ar
    11    17    16   ar
    12    17    18   ar
    13    20    19   ar
    14    16    13   ar
    15    23    24   ar
    16    19    24   ar
    17    19    18    1
    18    12    13    1
    19    12     8    1
    20    18    15   ar
    21    13    14   ar
    22    15    14   ar
    23     7     8    1
    24     8     9    1
    25     9    11   ar
    26     9    10   ar
