@<TRIPOS>MOLECULE
3b3m_JI1_A_1.pdb
 18 19 0 0 0
SMALL
GASTEIGER

@<TRIPOS>ATOM
      1  N1        12.9580    0.5230   23.7900 N.2   800  JI1800     -0.3922
      2  C2        14.1600    0.5050   23.1820 C.2   800  JI1800      0.2181
      3  N2        15.0160   -0.4460   23.4820 N.pl3 800  JI1800     -0.0932
      4  C3        14.4970    1.4980   22.2340 C.2   800  JI1800      0.0466
      5  C4        13.5490    2.5070   21.9500 C.2   800  JI1800     -0.0149
      6  C5        12.2940    2.4980   22.6070 C.3   800  JI1800      0.0805
      7  C6        12.0300    1.4630   23.5390 C.2   800  JI1800      0.0929
      8  N1'        9.5730   -1.5690   24.5010 N.3   800  JI1800     -0.2165
      9  C2'        8.4520   -0.7770   25.0960 C.3   800  JI1800      0.1060
     10  C3'        8.2430    0.4440   24.1680 C.3   800  JI1800      0.0919
     11  C4'        9.6140    0.5750   23.4300 C.3   800  JI1800      0.0415
     12  C5'       10.0440   -0.8950   23.2800 C.3   800  JI1800      0.0906
     13  C7        10.6740    1.3840   24.2720 C.3   800  JI1800      0.0577
     14  N8         7.8900    1.6420   24.9810 N.3   800  JI1800     -0.2179
     15  C9         6.5140    1.8280   25.4980 C.3   800  JI1800      0.0914
     16  C10        6.4690    2.8700   26.6300 C.3   800  JI1800      0.0543
     17  C11        5.1630    2.7110   27.4410 C.3   800  JI1800      0.1836
     18  O12        4.0650    2.9800   26.5660 O.3   800  JI1800     -0.2204
@<TRIPOS>BOND
     1     5     4    2
     2     5     6    1
     3     4     2    1
     4     6     7    1
     5     2     3    1
     6     2     1    2
     7    12    11    1
     8    12     8    1
     9    11    10    1
    10    11    13    1
    11     7     1    2
    12     7    13    1
    13    10    14    1
    14    10     9    1
    15     8     9    1
    16    14    15    1
    17    15    16    1
    18    18    17    1
    19    16    17    1
