@<TRIPOS>MOLECULE
3b3m_H4B_A_1.pdb
 17 18 0 0 0
SMALL
GASTEIGER

@<TRIPOS>ATOM
      1  N1         9.8780    2.6760   33.5050 N.2   760  H4B760     -0.2683
      2  C2        10.0570    2.3010   32.2170 C.1   760  H4B760      0.2608
      3  N2        11.2620    2.1840   31.6710 N.pl3 760  H4B760     -0.0220
      4  N3         8.9520    2.0440   31.4720 N.2   760  H4B760     -0.2474
      5  C4         7.6190    2.1390   31.9460 C.1   760  H4B760      0.2441
      6  O4         6.6840    1.8760   31.1760 O.2   760  H4B760     -0.2063
      7  C4A        7.5210    2.5430   33.2990 C.2   760  H4B760      0.2463
      8  C8A        8.6370    2.8060   34.0810 C.1   760  H4B760      0.1270
      9  N5         6.1700    2.6740   33.8510 N.2   760  H4B760     -0.2460
     10  N8         8.5520    3.1830   35.3620 N.2   760  H4B760     -0.2054
     11  C6         6.1040    3.6290   35.0320 C.3   760  H4B760      0.1627
     12  C7         7.2330    3.3230   36.0120 C.3   760  H4B760      0.1643
     13  C9         4.6860    3.5180   35.6160 C.3   760  H4B760      0.2063
     14  O9         4.2870    2.1910   35.9800 O.3   760  H4B760     -0.2183
     15  C10        4.5200    4.4510   36.8380 C.3   760  H4B760      0.1842
     16  C11        3.1030    4.5310   37.2760 C.3   760  H4B760      0.0383
     17  O10        4.9690    5.7340   36.3690 O.3   760  H4B760     -0.2204
@<TRIPOS>BOND
     1     6     5    2
     2     4     5    2
     3     4     2    2
     4     3     2    1
     5     5     7    1
     6     2     1    2
     7     7     9    2
     8     7     8    1
     9     1     8    2
    10     9    11    1
    11     8    10    2
    12    11    13    1
    13    11    12    1
    14    10    12    1
    15    13    14    1
    16    13    15    1
    17    17    15    1
    18    15    16    1
