@<TRIPOS>MOLECULE
3b3m_HEM_A_1.pdb
 43 50 0 0 0
SMALL
GASTEIGER

@<TRIPOS>ATOM
      1 FE         15.7190    4.4930   24.1790 Fe    750  HEM750      0.0000
      2  CHA       12.9450    4.6880   26.2420 C.2   750  HEM750      0.0000
      3  CHB       16.6850    1.5910   25.7660 C.2   750  HEM750      0.0000
      4  CHC       17.5790    3.5470   21.4450 C.2   750  HEM750      0.0000
      5  CHD       14.4910    7.1580   22.3830 C.2   750  HEM750      0.0000
      6  NA        15.0070    3.4150   25.6880 N.2   750  HEM750      0.0000
      7  C1A       13.8380    3.6250   26.4210 C.2   750  HEM750      0.0000
      8  C2A       13.6440    2.5770   27.3890 C.2   750  HEM750      0.0000
      9  C3A       14.6880    1.7310   27.2900 C.2   750  HEM750      0.0000
     10  C4A       15.5450    2.2460   26.2350 C.2   750  HEM750      0.0000
     11  CMA       14.9910    0.5470   28.2130 C.3   750  HEM750      0.0000
     12  CAA       12.4470    2.4510   28.3130 C.3   750  HEM750      0.0000
     13  CBA       11.4470    1.7650   27.3980 C.3   750  HEM750      0.0000
     14  CGA       10.1620    1.3990   28.0880 C.2   750  HEM750      0.0000
     15  O1A       10.2040    1.1010   29.3030 O.co2 750  HEM750      0.0000
     16  O2A        9.1160    1.3950   27.4090 O.co2 750  HEM750      0.0000
     17  NB        16.9770    2.9990   23.7680 N.ar  750  HEM750      0.0000
     18  C1B       17.3430    1.9340   24.5870 C.ar  750  HEM750      0.0000
     19  C2B       18.3940    1.1500   23.9910 C.ar  750  HEM750      0.0000
     20  C3B       18.6560    1.6760   22.7740 C.ar  750  HEM750      0.0000
     21  C4B       17.7690    2.8080   22.6250 C.ar  750  HEM750      0.0000
     22  CMB       19.1390   -0.0330   24.6570 C.3   750  HEM750      0.0000
     23  CAB       19.5950    1.1100   21.9000 C.2   750  HEM750      0.0000
     24  CBB       20.3600    1.6830   20.9310 C.2   750  HEM750      0.0000
     25  NC        15.9080    5.1410   22.3060 N.2   750  HEM750      0.0000
     26  C1C       16.6990    4.6170   21.2920 C.2   750  HEM750      0.0000
     27  C2C       16.7270    5.4750   20.1240 C.2   750  HEM750      0.0000
     28  C3C       15.9730    6.5800   20.4230 C.2   750  HEM750      0.0000
     29  C4C       15.4530    6.3420   21.7610 C.2   750  HEM750      0.0000
     30  CMC       17.5530    5.1960   18.8660 C.3   750  HEM750      0.0000
     31  CAC       15.6540    7.7280   19.6250 C.2   750  HEM750      0.0000
     32  CBC       16.2340    8.0960   18.4560 C.2   750  HEM750      0.0000
     33  ND        14.1440    5.7090   24.3520 N.ar  750  HEM750      0.0000
     34  C1D       13.8390    6.8450   23.5750 C.ar  750  HEM750      0.0000
     35  C2D       12.6970    7.5450   24.1010 C.ar  750  HEM750      0.0000
     36  C3D       12.2650    6.8150   25.1450 C.ar  750  HEM750      0.0000
     37  C4D       13.1150    5.6720   25.2870 C.ar  750  HEM750      0.0000
     38  CMD       12.1230    8.8850   23.6430 C.3   750  HEM750      0.0000
     39  CAD       11.0430    7.0740   26.0220 C.3   750  HEM750      0.0000
     40  CBD        9.8450    6.6320   25.2010 C.3   750  HEM750      0.0000
     41  CGD        8.5660    6.6930   25.9870 C.2   750  HEM750      0.0000
     42  O1D        8.4060    7.6500   26.7710 O.co2 750  HEM750      0.0000
     43  O2D        7.7240    5.7840   25.8170 O.co2 750  HEM750      0.0000
@<TRIPOS>BOND
     1    32    31    2
     2    30    27    1
     3    31    28    1
     4    27    28    2
     5    27    26    1
     6    28    29    1
     7    24    23    2
     8    26     4    2
     9    26    25    1
    10     4    21    1
    11    29    25    2
    12    29     5    1
    13    23    20    1
    14    25     1    1
    15     5    34    2
    16    21    20   ar
    17    21    17   ar
    18    20    19   ar
    19    34    35   ar
    20    34    33   ar
    21    38    35    1
    22    17     1    1
    23    17    18   ar
    24    19    18   ar
    25    19    22    1
    26    35    36   ar
    27     1    33    1
    28     1     6    1
    29    33    37   ar
    30    18     3    1
    31    36    37   ar
    32    36    39    1
    33    40    41    1
    34    40    39    1
    35    37     2    2
    36     6    10    1
    37     6     7    2
    38     3    10    2
    39    43    41   ar
    40    41    42   ar
    41    10     9    1
    42     2     7    1
    43     7     8    1
    44     9     8    2
    45     9    11    1
    46     8    12    1
    47    13    14    1
    48    13    12    1
    49    16    14   ar
    50    14    15   ar
