@<TRIPOS>MOLECULE
3b3n_JI2_A_1.pdb
 17 18 0 0 0
SMALL
GASTEIGER

@<TRIPOS>ATOM
      1  C6        14.7910    0.0480   23.2710 C.2   800  JI2800      0.2181
      2  N6        15.6470   -0.8470   23.7420 N.pl3 800  JI2800     -0.0932
      3  C5        15.1610    0.9210   22.1840 C.2   800  JI2800      0.0466
      4  C4        14.1900    1.8850   21.7110 C.2   800  JI2800     -0.0149
      5  C3        12.8670    1.9760   22.3140 C.3   800  JI2800      0.0805
      6  C2        12.5710    1.0640   23.3990 C.2   800  JI2800      0.0929
      7  N1        13.5300    0.1530   23.8230 N.2   800  JI2800     -0.3922
      8  N1'       10.0860   -1.8080   24.7800 N.3   800  JI2800     -0.2165
      9  C2'        9.1250   -0.8160   25.3820 C.3   800  JI2800      0.1060
     10  C3'        8.7800    0.1150   24.1780 C.3   800  JI2800      0.0919
     11  C4'       10.1000    0.1700   23.3880 C.3   800  JI2800      0.0415
     12  C5'       10.4880   -1.3360   23.4240 C.3   800  JI2800      0.0906
     13  C7        11.1870    1.0790   24.1120 C.3   800  JI2800      0.0577
     14  N8         8.3550    1.4250   24.6870 N.3   800  JI2800     -0.2164
     15  C9         6.9050    1.6060   24.9610 C.3   800  JI2800      0.1092
     16  C10        6.6400    2.9660   25.5720 C.3   800  JI2800      0.1280
     17  N11        7.0140    3.9970   24.5660 N.3   800  JI2800     -0.1298
@<TRIPOS>BOND
     1     4     3    2
     2     4     5    1
     3     3     1    1
     4     5     6    1
     5     1     2    1
     6     1     7    2
     7    11    12    1
     8    11    13    1
     9    11    10    1
    10     6     7    2
    11     6    13    1
    12    12     8    1
    13    10    14    1
    14    10     9    1
    15    17    16    1
    16    14    15    1
    17     8     9    1
    18    15    16    1
