@<TRIPOS>MOLECULE
3b3n_HEM_A_1.pdb
 43 50 0 0 0
SMALL
GASTEIGER

@<TRIPOS>ATOM
      1 FE         15.9620    4.3870   24.3720 Fe    750  HEM750      0.0000
      2  CHA       13.1290    4.4650   26.3390 C.2   750  HEM750      0.0000
      3  CHB       16.9800    1.5270   26.0180 C.2   750  HEM750      0.0000
      4  CHC       17.9130    3.4510   21.6870 C.2   750  HEM750      0.0000
      5  CHD       14.7420    7.0750   22.6100 C.2   750  HEM750      0.0000
      6  NA        15.2850    3.3220   25.9020 N.2   750  HEM750      0.0000
      7  C1A       14.0420    3.4580   26.5570 C.2   750  HEM750      0.0000
      8  C2A       13.8180    2.4360   27.5330 C.2   750  HEM750      0.0000
      9  C3A       14.9440    1.6720   27.5060 C.2   750  HEM750      0.0000
     10  C4A       15.8420    2.2030   26.4890 C.2   750  HEM750      0.0000
     11  CMA       15.2290    0.4300   28.3660 C.3   750  HEM750      0.0000
     12  CAA       12.5240    2.2940   28.3090 C.3   750  HEM750      0.0000
     13  CBA       11.5080    1.4690   27.5220 C.3   750  HEM750      0.0000
     14  CGA       10.1760    1.3150   28.2410 C.2   750  HEM750      0.0000
     15  O1A       10.1950    1.0280   29.4650 O.co2 750  HEM750      0.0000
     16  O2A        9.1200    1.4760   27.5910 O.co2 750  HEM750      0.0000
     17  NB        17.2420    2.8620   23.9830 N.ar  750  HEM750      0.0000
     18  C1B       17.6420    1.8260   24.8440 C.ar  750  HEM750      0.0000
     19  C2B       18.7870    1.0800   24.3200 C.ar  750  HEM750      0.0000
     20  C3B       19.0520    1.5910   23.0880 C.ar  750  HEM750      0.0000
     21  C4B       18.0970    2.6980   22.8710 C.ar  750  HEM750      0.0000
     22  CMB       19.5440   -0.1220   24.9490 C.3   750  HEM750      0.0000
     23  CAB       20.0040    0.9630   22.2650 C.2   750  HEM750      0.0000
     24  CBB       20.5920    1.3900   21.1130 C.2   750  HEM750      0.0000
     25  NC        16.1730    5.0610   22.4940 N.2   750  HEM750      0.0000
     26  C1C       17.0040    4.5480   21.5080 C.2   750  HEM750      0.0000
     27  C2C       17.0170    5.4040   20.3350 C.2   750  HEM750      0.0000
     28  C3C       16.2380    6.5140   20.6450 C.2   750  HEM750      0.0000
     29  C4C       15.7040    6.2620   21.9680 C.2   750  HEM750      0.0000
     30  CMC       17.6570    5.0150   19.0010 C.3   750  HEM750      0.0000
     31  CAC       15.9340    7.6890   19.9070 C.2   750  HEM750      0.0000
     32  CBC       16.2960    7.9090   18.6220 C.2   750  HEM750      0.0000
     33  ND        14.3560    5.5710   24.5330 N.ar  750  HEM750      0.0000
     34  C1D       14.0580    6.7330   23.8070 C.ar  750  HEM750      0.0000
     35  C2D       12.8830    7.3950   24.3360 C.ar  750  HEM750      0.0000
     36  C3D       12.4160    6.6000   25.3230 C.ar  750  HEM750      0.0000
     37  C4D       13.3070    5.4930   25.4400 C.ar  750  HEM750      0.0000
     38  CMD       12.3690    8.7890   23.9280 C.3   750  HEM750      0.0000
     39  CAD       11.1720    6.7700   26.2100 C.3   750  HEM750      0.0000
     40  CBD        9.9130    6.3310   25.4520 C.3   750  HEM750      0.0000
     41  CGD        8.6620    6.4920   26.2930 C.2   750  HEM750      0.0000
     42  O1D        8.5870    7.4820   27.0370 O.co2 750  HEM750      0.0000
     43  O2D        7.7540    5.6460   26.2080 O.co2 750  HEM750      0.0000
@<TRIPOS>BOND
     1    32    31    2
     2    30    27    1
     3    31    28    1
     4    27    28    2
     5    27    26    1
     6    28    29    1
     7    24    23    2
     8    26     4    2
     9    26    25    1
    10     4    21    1
    11    29    25    2
    12    29     5    1
    13    23    20    1
    14    25     1    1
    15     5    34    2
    16    21    20   ar
    17    21    17   ar
    18    20    19   ar
    19    34    35   ar
    20    34    33   ar
    21    38    35    1
    22    17     1    1
    23    17    18   ar
    24    19    18   ar
    25    19    22    1
    26    35    36   ar
    27     1    33    1
    28     1     6    1
    29    33    37   ar
    30    18     3    1
    31    36    37   ar
    32    36    39    1
    33    37     2    2
    34    40    39    1
    35    40    41    1
    36     6    10    1
    37     6     7    2
    38     3    10    2
    39    43    41   ar
    40    41    42   ar
    41     2     7    1
    42    10     9    1
    43     7     8    1
    44     9     8    2
    45     9    11    1
    46    13    14    1
    47    13    12    1
    48     8    12    1
    49    16    14   ar
    50    14    15   ar
