@<TRIPOS>MOLECULE
3b3n_H4B_A_1.pdb
 17 18 0 0 0
SMALL
GASTEIGER

@<TRIPOS>ATOM
      1  N1        10.0670    2.5560   33.8010 N.2   760  H4B760     -0.2683
      2  C2        10.2430    2.1810   32.5130 C.1   760  H4B760      0.2608
      3  N2        11.4480    2.0540   31.9720 N.pl3 760  H4B760     -0.0220
      4  N3         9.1270    1.9360   31.7640 N.2   760  H4B760     -0.2474
      5  C4         7.7900    2.0460   32.2460 C.1   760  H4B760      0.2441
      6  O4         6.8500    1.7880   31.4840 O.2   760  H4B760     -0.2063
      7  C4A        7.6990    2.4460   33.6040 C.2   760  H4B760      0.2463
      8  C8A        8.8250    2.6960   34.3820 C.1   760  H4B760      0.1270
      9  N5         6.3400    2.6030   34.1730 N.2   760  H4B760     -0.2460
     10  N8         8.7470    3.0690   35.6640 N.2   760  H4B760     -0.2054
     11  C6         6.3140    3.5710   35.3660 C.3   760  H4B760      0.1627
     12  C7         7.4340    3.2140   36.3250 C.3   760  H4B760      0.1643
     13  C9         4.8960    3.5160   35.9750 C.3   760  H4B760      0.2063
     14  O9         4.4620    2.2230   36.3680 O.3   760  H4B760     -0.2183
     15  C10        4.7390    4.4580   37.1960 C.3   760  H4B760      0.1842
     16  C11        3.3070    4.5540   37.6120 C.3   760  H4B760      0.0383
     17  O10        5.2160    5.7440   36.7560 O.3   760  H4B760     -0.2204
@<TRIPOS>BOND
     1     6     5    2
     2     4     5    2
     3     4     2    2
     4     3     2    1
     5     5     7    1
     6     2     1    2
     7     7     9    2
     8     7     8    1
     9     1     8    2
    10     9    11    1
    11     8    10    2
    12    11    13    1
    13    11    12    1
    14    10    12    1
    15    13    14    1
    16    13    15    1
    17    17    15    1
    18    15    16    1
