@<TRIPOS>MOLECULE
3b3o_JI3_A_1.pdb
 26 28 0 0 0
SMALL
GASTEIGER

@<TRIPOS>ATOM
      1  C21        2.8670    5.7550   26.9090 C.ar  800  JI3800     -0.0020
      2  C22        1.4600    6.0020   26.8630 C.ar  800  JI3800      0.0111
      3  C23        0.5590    5.1450   27.5840 C.ar  800  JI3800      0.0577
      4 CL         -1.2050    5.4350   27.5240 Cl    800  JI3800     -0.0822
      5  C24        1.0760    4.0490   28.3470 C.ar  800  JI3800      0.0111
      6  C25        2.4820    3.8070   28.3890 C.ar  800  JI3800     -0.0020
      7  C26        3.3780    4.6570   27.6700 C.ar  800  JI3800     -0.0047
      8  C6        14.4270    0.1880   23.4450 C.2   800  JI3800      0.2001
      9  N6        15.3110   -0.6580   23.9050 N.pl3 800  JI3800     -0.0977
     10  C5        14.7270    1.0310   22.2900 C.3   800  JI3800      0.1001
     11  C4        13.6950    1.9450   21.8310 C.2   800  JI3800     -0.0332
     12  C3        12.4030    2.0190   22.4990 C.2   800  JI3800      0.0196
     13  C2        12.1760    1.1560   23.6370 C.2   800  JI3800      0.1098
     14  N1        13.1720    0.2900   24.0620 N.2   800  JI3800     -0.3924
     15  N1'        9.7660   -1.6470   25.0240 N.3   800  JI3800     -0.2165
     16  C2'        8.6950   -0.7550   25.6390 C.3   800  JI3800      0.1060
     17  C3'        8.3620    0.2760   24.4900 C.3   800  JI3800      0.0919
     18  C4'        9.6840    0.3480   23.6650 C.3   800  JI3800      0.0419
     19  C5'       10.0510   -1.1670   23.6360 C.3   800  JI3800      0.0906
     20  C7        10.8140    1.1790   24.3990 C.3   800  JI3800      0.0619
     21  C8        13.9570    2.8580   20.6060 C.3   800  JI3800      0.0269
     22  N8         7.9830    1.5830   25.1010 N.3   800  JI3800     -0.2164
     23  C9         6.5840    1.7310   25.6160 C.3   800  JI3800      0.1075
     24  C10        6.3510    3.1140   26.1940 C.3   800  JI3800      0.1078
     25  N11        5.1670    3.0420   27.1000 N.3   800  JI3800     -0.2118
     26  C12        4.8960    4.3770   27.7120 C.3   800  JI3800      0.1150
@<TRIPOS>BOND
     1    21    11    1
     2    11    10    1
     3    11    12    2
     4    10     8    1
     5    12    13    1
     6     8     9    1
     7     8    14    2
     8    19    18    1
     9    19    15    1
    10    13    14    2
    11    13    20    1
    12    18    20    1
    13    18    17    1
    14    17    22    1
    15    17    16    1
    16    15    16    1
    17    22    23    1
    18    23    24    1
    19    24    25    1
    20     2     1   ar
    21     2     3   ar
    22     1     7   ar
    23    25    26    1
    24     4     3    1
    25     3     5   ar
    26     7    26    1
    27     7     6   ar
    28     5     6   ar
