@<TRIPOS>MOLECULE
3b3o_H4B_A_1.pdb
 17 18 0 0 0
SMALL
GASTEIGER

@<TRIPOS>ATOM
      1  N1         9.9420    2.6210   33.9440 N.2   760  H4B760     -0.2683
      2  C2        10.0930    2.2180   32.6660 C.1   760  H4B760      0.2608
      3  N2        11.2830    2.1030   32.0980 N.pl3 760  H4B760     -0.0220
      4  N3         8.9690    1.9160   31.9500 N.2   760  H4B760     -0.2474
      5  C4         7.6360    1.9960   32.4480 C.1   760  H4B760      0.2441
      6  O4         6.6940    1.6930   31.7000 O.2   760  H4B760     -0.2063
      7  C4A        7.5620    2.4310   33.7980 C.2   760  H4B760      0.2463
      8  C8A        8.7080    2.7410   34.5500 C.1   760  H4B760      0.1270
      9  N5         6.2270    2.5500   34.4090 N.2   760  H4B760     -0.2460
     10  N8         8.6530    3.1400   35.8330 N.2   760  H4B760     -0.2054
     11  C6         6.2170    3.5820   35.5590 C.3   760  H4B760      0.1627
     12  C7         7.3580    3.2640   36.5230 C.3   760  H4B760      0.1643
     13  C9         4.7990    3.5570   36.1720 C.3   760  H4B760      0.2063
     14  O9         4.4270    2.2590   36.5690 O.3   760  H4B760     -0.2183
     15  C10        4.6680    4.4660   37.4050 C.3   760  H4B760      0.1842
     16  C11        3.2530    4.5230   37.8910 C.3   760  H4B760      0.0383
     17  O10        5.1200    5.7550   36.9840 O.3   760  H4B760     -0.2204
@<TRIPOS>BOND
     1     6     5    2
     2     4     5    2
     3     4     2    2
     4     3     2    1
     5     5     7    1
     6     2     1    2
     7     7     9    2
     8     7     8    1
     9     1     8    2
    10     9    11    1
    11     8    10    2
    12    11    13    1
    13    11    12    1
    14    10    12    1
    15    13    14    1
    16    13    15    1
    17    17    15    1
    18    15    16    1
