@<TRIPOS>MOLECULE
3b3o_HEM_A_1.pdb
 43 50 0 0 0
SMALL
GASTEIGER

@<TRIPOS>ATOM
      1 FE         15.7640    4.3810   24.4830 Fe    750  HEM750      0.0000
      2  CHA       12.9330    4.4740   26.5360 C.2   750  HEM750      0.0000
      3  CHB       16.7720    1.4670   26.1320 C.2   750  HEM750      0.0000
      4  CHC       17.6890    3.3710   21.7930 C.2   750  HEM750      0.0000
      5  CHD       14.5280    7.0060   22.6310 C.2   750  HEM750      0.0000
      6  NA        15.0100    3.2180   26.0070 N.2   750  HEM750      0.0000
      7  C1A       13.8200    3.4170   26.7360 C.2   750  HEM750      0.0000
      8  C2A       13.6810    2.4360   27.7570 C.2   750  HEM750      0.0000
      9  C3A       14.7690    1.6550   27.6900 C.2   750  HEM750      0.0000
     10  C4A       15.5930    2.1090   26.5900 C.2   750  HEM750      0.0000
     11  CMA       15.0310    0.5280   28.6610 C.3   750  HEM750      0.0000
     12  CAA       12.4820    2.2000   28.6510 C.3   750  HEM750      0.0000
     13  CBA       11.4150    1.5850   27.7570 C.3   750  HEM750      0.0000
     14  CGA       10.0900    1.4330   28.4690 C.2   750  HEM750      0.0000
     15  O1A       10.1210    1.2260   29.7130 O.co2 750  HEM750      0.0000
     16  O2A        9.0340    1.5100   27.7850 O.co2 750  HEM750      0.0000
     17  NB        17.0940    2.8570   24.1290 N.ar  750  HEM750      0.0000
     18  C1B       17.4550    1.7950   24.9830 C.ar  750  HEM750      0.0000
     19  C2B       18.5210    0.9800   24.4120 C.ar  750  HEM750      0.0000
     20  C3B       18.7770    1.4840   23.1720 C.ar  750  HEM750      0.0000
     21  C4B       17.8800    2.6410   23.0000 C.ar  750  HEM750      0.0000
     22  CMB       19.1890   -0.2870   25.0040 C.3   750  HEM750      0.0000
     23  CAB       19.7120    0.8680   22.2960 C.2   750  HEM750      0.0000
     24  CBB       20.5010    1.4770   21.3570 C.2   750  HEM750      0.0000
     25  NC        16.0780    5.0660   22.6110 N.2   750  HEM750      0.0000
     26  C1C       16.8950    4.5130   21.6210 C.2   750  HEM750      0.0000
     27  C2C       16.9160    5.3310   20.4460 C.2   750  HEM750      0.0000
     28  C3C       16.0640    6.3880   20.7160 C.2   750  HEM750      0.0000
     29  C4C       15.5700    6.2340   22.0510 C.2   750  HEM750      0.0000
     30  CMC       17.7290    5.0870   19.1610 C.3   750  HEM750      0.0000
     31  CAC       15.6260    7.4160   19.8430 C.2   750  HEM750      0.0000
     32  CBC       16.3340    8.0710   18.8890 C.2   750  HEM750      0.0000
     33  ND        14.0930    5.4980   24.5730 N.ar  750  HEM750      0.0000
     34  C1D       13.8030    6.6440   23.7790 C.ar  750  HEM750      0.0000
     35  C2D       12.6900    7.3610   24.3260 C.ar  750  HEM750      0.0000
     36  C3D       12.2700    6.6190   25.3880 C.ar  750  HEM750      0.0000
     37  C4D       13.0750    5.4480   25.5240 C.ar  750  HEM750      0.0000
     38  CMD       12.1740    8.7460   23.8690 C.3   750  HEM750      0.0000
     39  CAD       11.1030    6.8940   26.3090 C.3   750  HEM750      0.0000
     40  CBD        9.8420    6.6760   25.4880 C.3   750  HEM750      0.0000
     41  CGD        8.6150    6.6380   26.3520 C.2   750  HEM750      0.0000
     42  O1D        8.4550    7.5710   27.1710 O.co2 750  HEM750      0.0000
     43  O2D        7.8230    5.6810   26.2170 O.co2 750  HEM750      0.0000
@<TRIPOS>BOND
     1    32    31    2
     2    30    27    1
     3    31    28    1
     4    27    28    2
     5    27    26    1
     6    28    29    1
     7    24    23    2
     8    26     4    2
     9    26    25    1
    10     4    21    1
    11    29    25    2
    12    29     5    1
    13    23    20    1
    14    25     1    1
    15     5    34    2
    16    21    20   ar
    17    21    17   ar
    18    20    19   ar
    19    34    35   ar
    20    34    33   ar
    21    38    35    1
    22    17     1    1
    23    17    18   ar
    24    35    36   ar
    25    19    18   ar
    26    19    22    1
    27     1    33    1
    28     1     6    1
    29    33    37   ar
    30    18     3    1
    31    36    37   ar
    32    36    39    1
    33    40    39    1
    34    40    41    1
    35    37     2    2
    36     6    10    1
    37     6     7    2
    38     3    10    2
    39    43    41   ar
    40    41    42   ar
    41     2     7    1
    42    10     9    1
    43     7     8    1
    44     9     8    2
    45     9    11    1
    46    13    14    1
    47    13    12    1
    48     8    12    1
    49    16    14   ar
    50    14    15   ar
