@<TRIPOS>MOLECULE
3b3p_JI7_A_1.pdb
 26 28 0 0 0
SMALL
GASTEIGER

@<TRIPOS>ATOM
      1  C5        14.5980    1.0800   22.0670 C.3   800  JI7800      0.1001
      2  C4        13.6420    2.0400   21.6490 C.2   800  JI7800     -0.0332
      3  C3        12.4540    2.1560   22.4010 C.2   800  JI7800      0.0196
      4  C2        12.2540    1.3280   23.5190 C.2   800  JI7800      0.1098
      5  N1        13.1850    0.4040   23.9070 N.2   800  JI7800     -0.3924
      6  C6        14.3430    0.2630   23.2160 C.2   800  JI7800      0.2001
      7  C7        11.0180    1.3770   24.3780 C.3   800  JI7800      0.0619
      8  C4'        9.7210    0.8550   23.7400 C.3   800  JI7800      0.0419
      9  C3'        8.5630    0.9300   24.7390 C.3   800  JI7800      0.0919
     10  C2'        8.4560   -0.5290   25.2800 C.3   800  JI7800      0.1060
     11  N1'        9.5300   -1.2910   24.6400 N.3   800  JI7800     -0.2165
     12  C5'        9.7140   -0.6180   23.3550 C.3   800  JI7800      0.0906
     13  N8         7.3540    1.3820   24.0460 N.3   800  JI7800     -0.2164
     14  C9         6.2180    1.5900   24.9290 C.3   800  JI7800      0.1075
     15  C10        6.2950    2.9720   25.5780 C.3   800  JI7800      0.1078
     16  N11        4.9810    3.3240   26.0730 N.3   800  JI7800     -0.2118
     17  C12        4.7990    3.0390   27.4930 C.3   800  JI7800      0.1151
     18  C26        3.4000    3.4370   27.8600 C.ar  800  JI7800     -0.0040
     19  C25        2.4610    2.4880   28.3770 C.ar  800  JI7800     -0.0028
     20  C24        1.1340    2.8940   28.7090 C.ar  800  JI7800      0.0006
     21  C23        0.7380    4.2510   28.5250 C.ar  800  JI7800      0.0114
     22  C22        1.6720    5.1970   28.0110 C.ar  800  JI7800      0.0574
     23  C21        2.9880    4.7920   27.6820 C.ar  800  JI7800      0.0085
     24 CL          1.2070    6.8390   27.7800 Cl    800  JI7800     -0.0823
     25  C8        13.8610    2.9150   20.4430 C.3   800  JI7800      0.0269
     26  N6        15.3050   -0.6550   23.5890 N.pl3 800  JI7800     -0.0977
@<TRIPOS>BOND
     1    25     2    1
     2     2     1    1
     3     2     3    2
     4     1     6    1
     5     3     4    1
     6     6    26    1
     7     6     5    2
     8    12     8    1
     9    12    11    1
    10     4     5    2
    11     4     7    1
    12     8     7    1
    13     8     9    1
    14    13     9    1
    15    13    14    1
    16    11    10    1
    17     9    10    1
    18    14    15    1
    19    15    16    1
    20    16    17    1
    21    17    18    1
    22    23    18   ar
    23    23    22   ar
    24    24    22    1
    25    18    19   ar
    26    22    21   ar
    27    19    20   ar
    28    21    20   ar
