@<TRIPOS>MOLECULE
3b3p_HEM_A_1.pdb
 43 50 0 0 0
SMALL
GASTEIGER

@<TRIPOS>ATOM
      1 FE         15.7140    4.4000   24.2900 Fe    750  HEM750      0.0000
      2  CHA       12.8750    4.6210   26.2910 C.2   750  HEM750      0.0000
      3  CHB       16.5670    1.5250   25.9480 C.2   750  HEM750      0.0000
      4  CHC       17.6600    3.3780   21.5860 C.2   750  HEM750      0.0000
      5  CHD       14.5460    7.0670   22.4960 C.2   750  HEM750      0.0000
      6  NA        14.9840    3.3850   25.8770 N.2   750  HEM750      0.0000
      7  C1A       13.7720    3.6050   26.5720 C.2   750  HEM750      0.0000
      8  C2A       13.5820    2.6270   27.6310 C.2   750  HEM750      0.0000
      9  C3A       14.6750    1.7960   27.5710 C.2   750  HEM750      0.0000
     10  C4A       15.4940    2.2380   26.4510 C.2   750  HEM750      0.0000
     11  CMA       14.9800    0.6910   28.5900 C.3   750  HEM750      0.0000
     12  CAA       12.3770    2.4560   28.5570 C.3   750  HEM750      0.0000
     13  CBA       11.4620    1.5970   27.6760 C.3   750  HEM750      0.0000
     14  CGA       10.0920    1.3550   28.2850 C.2   750  HEM750      0.0000
     15  O1A       10.0670    0.9840   29.4810 O.co2 750  HEM750      0.0000
     16  O2A        9.0630    1.5270   27.5730 O.co2 750  HEM750      0.0000
     17  NB        16.9330    2.8460   23.9030 N.ar  750  HEM750      0.0000
     18  C1B       17.2900    1.8390   24.7970 C.ar  750  HEM750      0.0000
     19  C2B       18.4300    1.0820   24.3180 C.ar  750  HEM750      0.0000
     20  C3B       18.7400    1.5490   23.0930 C.ar  750  HEM750      0.0000
     21  C4B       17.7740    2.6260   22.7890 C.ar  750  HEM750      0.0000
     22  CMB       19.1850   -0.0230   25.0300 C.3   750  HEM750      0.0000
     23  CAB       19.8870    1.0840   22.4530 C.2   750  HEM750      0.0000
     24  CBB       20.2010    1.1960   21.1390 C.2   750  HEM750      0.0000
     25  NC        15.9760    5.0670   22.4120 N.2   750  HEM750      0.0000
     26  C1C       16.8260    4.5330   21.3960 C.2   750  HEM750      0.0000
     27  C2C       16.8420    5.4100   20.1890 C.2   750  HEM750      0.0000
     28  C3C       16.0120    6.4900   20.5390 C.2   750  HEM750      0.0000
     29  C4C       15.4860    6.2440   21.8700 C.2   750  HEM750      0.0000
     30  CMC       17.5880    5.1620   18.8610 C.3   750  HEM750      0.0000
     31  CAC       15.6310    7.6190   19.8100 C.2   750  HEM750      0.0000
     32  CBC       16.2370    8.1310   18.7150 C.2   750  HEM750      0.0000
     33  ND        14.1390    5.6460   24.4530 N.ar  750  HEM750      0.0000
     34  C1D       13.9090    6.7880   23.7080 C.ar  750  HEM750      0.0000
     35  C2D       12.8210    7.5340   24.2010 C.ar  750  HEM750      0.0000
     36  C3D       12.3270    6.8000   25.1950 C.ar  750  HEM750      0.0000
     37  C4D       13.1050    5.6120   25.3340 C.ar  750  HEM750      0.0000
     38  CMD       12.2400    8.7990   23.6510 C.3   750  HEM750      0.0000
     39  CAD       11.0520    7.0490   25.9620 C.3   750  HEM750      0.0000
     40  CBD        9.9270    6.5980   25.0490 C.3   750  HEM750      0.0000
     41  CGD        8.7510    6.0500   25.8170 C.2   750  HEM750      0.0000
     42  O1D        8.1110    6.8370   26.5450 O.co2 750  HEM750      0.0000
     43  O2D        8.4830    4.8260   25.6920 O.co2 750  HEM750      0.0000
@<TRIPOS>BOND
     1    32    31    2
     2    30    27    1
     3    31    28    1
     4    27    28    2
     5    27    26    1
     6    28    29    1
     7    24    23    2
     8    26     4    2
     9    26    25    1
    10     4    21    1
    11    29    25    2
    12    29     5    1
    13    25     1    1
    14    23    20    1
    15     5    34    2
    16    21    20   ar
    17    21    17   ar
    18    20    19   ar
    19    38    35    1
    20    34    35   ar
    21    34    33   ar
    22    17     1    1
    23    17    18   ar
    24    35    36   ar
    25     1    33    1
    26     1     6    1
    27    19    18   ar
    28    19    22    1
    29    33    37   ar
    30    18     3    1
    31    40    41    1
    32    40    39    1
    33    36    37   ar
    34    36    39    1
    35    37     2    2
    36    43    41   ar
    37    41    42   ar
    38     6    10    1
    39     6     7    2
    40     3    10    2
    41     2     7    1
    42    10     9    1
    43     7     8    1
    44     9     8    2
    45     9    11    1
    46    16    14   ar
    47     8    12    1
    48    13    14    1
    49    13    12    1
    50    14    15   ar
