@<TRIPOS>MOLECULE
3b3p_H4B_A_1.pdb
 17 18 0 0 0
SMALL
GASTEIGER

@<TRIPOS>ATOM
      1  N1         9.9060    2.6350   33.8130 N.2   760  H4B760     -0.2683
      2  C2        10.0940    2.3160   32.5010 C.1   760  H4B760      0.2608
      3  N2        11.2980    2.1960   31.9560 N.pl3 760  H4B760     -0.0220
      4  N3         8.9990    2.1130   31.7320 N.2   760  H4B760     -0.2474
      5  C4         7.6590    2.2080   32.1830 C.1   760  H4B760      0.2441
      6  O4         6.7440    1.9930   31.3770 O.2   760  H4B760     -0.2063
      7  C4A        7.5430    2.5460   33.5580 C.2   760  H4B760      0.2463
      8  C8A        8.6560    2.7610   34.3750 C.1   760  H4B760      0.1270
      9  N5         6.1920    2.6720   34.1220 N.2   760  H4B760     -0.2460
     10  N8         8.5470    3.0800   35.6800 N.2   760  H4B760     -0.2054
     11  C6         6.1380    3.6290   35.3300 C.3   760  H4B760      0.1627
     12  C7         7.2260    3.2260   36.3210 C.3   760  H4B760      0.1643
     13  C9         4.7050    3.5430   35.8510 C.3   760  H4B760      0.2063
     14  O9         4.3810    2.2150   36.2350 O.3   760  H4B760     -0.2183
     15  C10        4.4590    4.4540   37.0650 C.3   760  H4B760      0.1842
     16  C11        3.0520    4.3710   37.5190 C.3   760  H4B760      0.0383
     17  O10        4.7640    5.7670   36.6160 O.3   760  H4B760     -0.2204
@<TRIPOS>BOND
     1     6     5    2
     2     4     5    2
     3     4     2    2
     4     3     2    1
     5     5     7    1
     6     2     1    2
     7     7     9    2
     8     7     8    1
     9     1     8    2
    10     9    11    1
    11     8    10    2
    12    11    13    1
    13    11    12    1
    14    10    12    1
    15    13    14    1
    16    13    15    1
    17    17    15    1
    18    15    16    1
