@<TRIPOS>MOLECULE
3b3x_A33_A_1.pdb
 13 12 0 0 0
SMALL
GASTEIGER

@<TRIPOS>ATOM
      1  C1        52.2260   45.7470  -18.0300 C.2   300  A33300      0.3669
      2  C2        50.7880   46.0730  -18.4720 C.3   300  A33300      0.1431
      3  C3        50.0200   47.1040  -17.6030 C.3   300  A33300      0.1912
      4  C4        50.6530   48.4980  -17.5640 C.3   300  A33300      0.1431
      5  C5        49.7930   49.6530  -18.1230 C.2   300  A33300      0.3669
      6  O92       49.9880   46.9750  -15.1810 O.co2 300  A33300     -0.2441
      7  C9        49.9220   46.3950  -16.2880 C.2   300  A33300      0.3811
      8  O91       49.7790   45.1720  -16.4100 O.co2 300  A33300     -0.2441
      9  O12       52.4630   45.4090  -16.8270 O.co2 300  A33300     -0.2456
     10  O11       53.1630   45.8180  -18.8850 O.co2 300  A33300     -0.2456
     11  NZ        48.6510   47.3150  -18.0410 N.3   300  A33300     -0.1217
     12  O51       49.5400   49.6980  -19.3480 O.co2 300  A33300     -0.2456
     13  O52       49.3730   50.5800  -17.3860 O.co2 300  A33300     -0.2456
@<TRIPOS>BOND
     1    12     5   ar
     2    10     1   ar
     3     2     1    1
     4     2     3    1
     5     5     4    1
     6     5    13   ar
     7    11     3    1
     8     1     9   ar
     9     3     4    1
    10     3     7    1
    11     8     7   ar
    12     7     6   ar
