@<TRIPOS>MOLECULE
3b42_HEM_A_1.pdb
 43 50 0 0 0
SMALL
GASTEIGER

@<TRIPOS>ATOM
      1 FE         13.3150   24.5670   38.1730 Fe    199  HEM199      0.0000
      2  CHA       13.5950   23.7820   41.5070 C.2   199  HEM199      0.0000
      3  CHB       14.0160   27.8290   38.8860 C.2   199  HEM199      0.0000
      4  CHC       12.8870   25.4110   34.8590 C.2   199  HEM199      0.0000
      5  CHD       12.7090   21.2910   37.4170 C.2   199  HEM199      0.0000
      6  NA        13.6970   25.5810   39.8350 N.2   199  HEM199      0.0000
      7  C1A       13.7670   25.1120   41.1380 C.2   199  HEM199      0.0000
      8  C2A       14.1470   26.1800   42.0450 C.2   199  HEM199      0.0000
      9  C3A       14.2980   27.3060   41.3070 C.2   199  HEM199      0.0000
     10  C4A       14.0030   26.9250   39.9380 C.2   199  HEM199      0.0000
     11  CMA       14.7090   28.7040   41.7910 C.3   199  HEM199      0.0000
     12  CAA       14.3280   26.0590   43.5560 C.3   199  HEM199      0.0000
     13  CBA       15.7470   26.0700   44.1050 C.3   199  HEM199      0.0000
     14  CGA       16.5700   24.8590   43.6920 C.2   199  HEM199      0.0000
     15  O1A       16.0060   23.7520   43.5690 O.co2 199  HEM199      0.0000
     16  O2A       17.7940   25.0080   43.5180 O.co2 199  HEM199      0.0000
     17  NB        13.4730   26.2220   37.1100 N.ar  199  HEM199      0.0000
     18  C1B       13.7420   27.5080   37.5710 C.ar  199  HEM199      0.0000
     19  C2B       13.6280   28.4950   36.5310 C.ar  199  HEM199      0.0000
     20  C3B       13.2750   27.8380   35.4000 C.ar  199  HEM199      0.0000
     21  C4B       13.2040   26.4300   35.7520 C.ar  199  HEM199      0.0000
     22  CMB       13.8740   30.0030   36.6990 C.3   199  HEM199      0.0000
     23  CAB       13.0220   28.4590   34.0140 C.3   199  HEM199      0.0000
     24  CBB       14.2160   29.2070   33.4280 C.3   199  HEM199      0.0000
     25  NC        12.9310   23.5770   36.5090 N.2   199  HEM199      0.0000
     26  C1C       12.7780   24.0720   35.2230 C.2   199  HEM199      0.0000
     27  C2C       12.4110   22.9980   34.2980 C.2   199  HEM199      0.0000
     28  C3C       12.3620   21.8600   35.0090 C.2   199  HEM199      0.0000
     29  C4C       12.6980   22.2120   36.3780 C.2   199  HEM199      0.0000
     30  CMC       12.0250   23.1390   32.8260 C.3   199  HEM199      0.0000
     31  CAC       11.8810   20.4910   34.5280 C.3   199  HEM199      0.0000
     32  CBC       12.7280   19.8850   33.4170 C.3   199  HEM199      0.0000
     33  ND        13.2330   22.9060   39.2140 N.ar  199  HEM199      0.0000
     34  C1D       12.9730   21.6220   38.7480 C.ar  199  HEM199      0.0000
     35  C2D       12.9980   20.6490   39.8190 C.ar  199  HEM199      0.0000
     36  C3D       13.2200   21.3250   40.9600 C.ar  199  HEM199      0.0000
     37  C4D       13.3690   22.7360   40.5990 C.ar  199  HEM199      0.0000
     38  CMD       12.8680   19.1250   39.6840 C.3   199  HEM199      0.0000
     39  CAD       13.3280   20.6840   42.3380 C.3   199  HEM199      0.0000
     40  CBD       14.7860   20.5980   42.7780 C.3   199  HEM199      0.0000
     41  CGD       14.9390   19.9780   44.1540 C.2   199  HEM199      0.0000
     42  O1D       14.2510   20.4370   45.0900 O.co2 199  HEM199      0.0000
     43  O2D       15.7480   19.0370   44.2970 O.co2 199  HEM199      0.0000
@<TRIPOS>BOND
     1    30    27    1
     2    32    31    1
     3    24    23    1
     4    23    20    1
     5    27    28    2
     6    27    26    1
     7    31    28    1
     8     4    26    2
     9     4    21    1
    10    28    29    1
    11    26    25    1
    12    20    21   ar
    13    20    19   ar
    14    21    17   ar
    15    29    25    2
    16    29     5    1
    17    25     1    1
    18    19    22    1
    19    19    18   ar
    20    17    18   ar
    21    17     1    1
    22     5    34    2
    23    18     3    1
    24     1    33    1
    25     1     6    1
    26    34    33   ar
    27    34    35   ar
    28     3    10    2
    29    33    37   ar
    30    38    35    1
    31    35    36   ar
    32     6    10    1
    33     6     7    2
    34    10     9    1
    35    37    36   ar
    36    37     2    2
    37    36    39    1
    38     7     2    1
    39     7     8    1
    40     9    11    1
    41     9     8    2
    42     8    12    1
    43    39    40    1
    44    40    41    1
    45    16    14   ar
    46    12    13    1
    47    15    14   ar
    48    14    13    1
    49    41    43   ar
    50    41    42   ar
