@<TRIPOS>MOLECULE
3b47_HEM_A_1.pdb
 43 50 0 0 0
SMALL
GASTEIGER

@<TRIPOS>ATOM
      1 FE          2.0280   39.7350  -17.7420 Fe    199  HEM199      0.0000
      2  CHA        3.6230   42.3010  -19.3260 C.2   199  HEM199      0.0000
      3  CHB        5.0110   38.1290  -17.2840 C.2   199  HEM199      0.0000
      4  CHC        0.4470   37.3430  -15.8570 C.2   199  HEM199      0.0000
      5  CHD       -0.9740   41.2700  -18.2520 C.2   199  HEM199      0.0000
      6  NA         3.8980   40.1290  -18.1740 N.2   199  HEM199      0.0000
      7  C1A        4.4050   41.2610  -18.8000 C.2   199  HEM199      0.0000
      8  C2A        5.8570   41.1640  -18.9550 C.2   199  HEM199      0.0000
      9  C3A        6.2280   39.9610  -18.4900 C.2   199  HEM199      0.0000
     10  C4A        5.0200   39.3300  -17.9750 C.2   199  HEM199      0.0000
     11  CMA        7.6380   39.3750  -18.5290 C.3   199  HEM199      0.0000
     12  CAA        6.7690   42.2460  -19.5110 C.3   199  HEM199      0.0000
     13  CBA        7.1820   41.9880  -20.9490 C.3   199  HEM199      0.0000
     14  CGA        6.0030   41.9590  -21.8990 C.2   199  HEM199      0.0000
     15  O1A        5.3210   42.9950  -22.0360 O.co2 199  HEM199      0.0000
     16  O2A        5.7530   40.8950  -22.5040 O.co2 199  HEM199      0.0000
     17  NB         2.5860   38.0840  -16.8060 N.ar  199  HEM199      0.0000
     18  C1B        3.8670   37.5370  -16.7430 C.ar  199  HEM199      0.0000
     19  C2B        3.8720   36.3020  -15.9870 C.ar  199  HEM199      0.0000
     20  C3B        2.5990   36.0870  -15.5490 C.ar  199  HEM199      0.0000
     21  C4B        1.8120   37.2040  -16.0640 C.ar  199  HEM199      0.0000
     22  CMB        5.0990   35.4030  -15.8160 C.3   199  HEM199      0.0000
     23  CAB        2.0310   34.9470  -14.6790 C.3   199  HEM199      0.0000
     24  CBB        2.9330   34.4560  -13.5120 C.3   199  HEM199      0.0000
     25  NC         0.1630   39.4080  -17.1380 N.2   199  HEM199      0.0000
     26  C1C       -0.3220   38.3680  -16.3790 C.2   199  HEM199      0.0000
     27  C2C       -1.7650   38.4540  -16.2110 C.2   199  HEM199      0.0000
     28  C3C       -2.1670   39.5520  -16.8570 C.2   199  HEM199      0.0000
     29  C4C       -0.9640   40.1620  -17.4080 C.2   199  HEM199      0.0000
     30  CMC       -2.6020   37.4090  -15.4720 C.3   199  HEM199      0.0000
     31  CAC       -3.6040   40.0060  -17.1530 C.3   199  HEM199      0.0000
     32  CBC       -4.4150   40.3610  -15.9040 C.3   199  HEM199      0.0000
     33  ND         1.4480   41.3680  -18.6290 N.ar  199  HEM199      0.0000
     34  C1D        0.1460   41.7980  -18.8540 C.ar  199  HEM199      0.0000
     35  C2D        0.1040   43.0580  -19.5690 C.ar  199  HEM199      0.0000
     36  C3D        1.3760   43.4420  -19.7540 C.ar  199  HEM199      0.0000
     37  C4D        2.2300   42.3640  -19.1850 C.ar  199  HEM199      0.0000
     38  CMD       -1.1330   43.8470  -19.9990 C.3   199  HEM199      0.0000
     39  CAD        1.7570   44.8040  -20.3400 C.3   199  HEM199      0.0000
     40  CBD        2.3830   45.7500  -19.3180 C.3   199  HEM199      0.0000
     41  CGD        2.5490   47.1640  -19.8530 C.2   199  HEM199      0.0000
     42  O1D        1.5780   47.9510  -19.7860 O.co2 199  HEM199      0.0000
     43  O2D        3.6480   47.4860  -20.3510 O.co2 199  HEM199      0.0000
@<TRIPOS>BOND
     1    16    14   ar
     2    15    14   ar
     3    14    13    1
     4    13    12    1
     5    43    41   ar
     6    39    36    1
     7    39    40    1
     8    38    35    1
     9    41    42   ar
    10    41    40    1
    11    36    35   ar
    12    36    37   ar
    13    35    34   ar
    14    12     8    1
    15     2    37    2
    16     2     7    1
    17    37    33   ar
    18     8     7    1
    19     8     9    2
    20    34    33   ar
    21    34     5    2
    22     7     6    2
    23    33     1    1
    24    11     9    1
    25     9    10    1
    26     5    29    1
    27     6    10    1
    28     6     1    1
    29    10     3    2
    30     1    25    1
    31     1    17    1
    32    29    25    2
    33    29    28    1
    34     3    18    1
    35    31    28    1
    36    31    32    1
    37    25    26    1
    38    28    27    2
    39    17    18   ar
    40    17    21   ar
    41    18    19   ar
    42    26    27    1
    43    26     4    2
    44    27    30    1
    45    21     4    1
    46    21    20   ar
    47    19    22    1
    48    19    20   ar
    49    20    23    1
    50    23    24    1
