@<TRIPOS>MOLECULE
3b4f_TUO_A_1.pdb
 23 25 0 0 0
SMALL
GASTEIGER

@<TRIPOS>ATOM
      1  CAE       -2.4140    1.6580   11.2490 C.ar  300  TUO300      0.0001
      2  CAA       -1.9940    0.4340   10.7000 C.ar  300  TUO300      0.0000
      3  CAB       -2.8160   -0.6950   10.7670 C.ar  300  TUO300      0.0000
      4  CAC       -4.0750   -0.6110   11.3640 C.ar  300  TUO300      0.0000
      5  CAG       -4.4930    0.6050   11.8950 C.ar  300  TUO300      0.0001
      6  CAF       -3.6840    1.7580   11.8330 C.ar  300  TUO300      0.0027
      7  CAN       -4.1570    2.9510   12.4100 C.2   300  TUO300      0.0367
      8  CAM       -4.7460    2.9690   13.6630 C.ar  300  TUO300      0.0335
      9  CAL       -5.0200    1.9580   14.5960 C.ar  300  TUO300      0.0226
     10  CAK       -5.6280    2.3050   15.7980 C.ar  300  TUO300      0.1252
     11  SAJ       -6.1020    1.2520   17.1160 S.O2  300  TUO300      0.0935
     12  OAS       -5.2090    0.8740   18.2180 O.2   300  TUO300     -0.1503
     13  OAD       -7.5510    1.0130   17.0290 O.2   300  TUO300     -0.1503
     14  NAI       -5.6520   -0.1380   16.4070 N.3   300  TUO300      0.0392
     15  CAT       -5.9790    3.6350   16.0300 C.ar  300  TUO300      0.0226
     16  CAU       -5.7020    4.6350   15.1040 C.ar  300  TUO300      0.0334
     17  CAV       -5.0820    4.3000   13.9150 C.ar  300  TUO300      0.1317
     18  NAW       -4.7130    5.0600   12.8800 N.2   300  TUO300     -0.3972
     19  CAO       -4.1610    4.2810   11.9520 C.2   300  TUO300      0.1875
     20  CAP       -3.6340    4.9130   10.6450 C.2   300  TUO300      0.3119
     21  OAH       -3.1760    6.0570   10.6680 O.2   300  TUO300     -0.2641
     22  NAQ       -3.7040    4.2100    9.5330 N.am  300  TUO300     -0.0864
     23  NAR       -4.2070    2.9650    9.4790 N.3   300  TUO300      0.0074
@<TRIPOS>BOND
     1    23    22    1
     2    22    20   am
     3    20    21    2
     4    20    19    1
     5     2     3   ar
     6     2     1   ar
     7     3     4   ar
     8     1     6   ar
     9     4     5   ar
    10     6     5   ar
    11     6     7    1
    12    19     7    1
    13    19    18    2
    14     7     8    2
    15    18    17    2
    16     8    17   ar
    17     8     9   ar
    18    17    16   ar
    19     9    10   ar
    20    16    15   ar
    21    10    15   ar
    22    10    11    1
    23    14    11    1
    24    13    11    2
    25    11    12    2
