@<TRIPOS>MOLECULE
3b4p_3B4_A_1.pdb
 16 17 0 0 0
SMALL
GASTEIGER

@<TRIPOS>ATOM
      1  CAJ       41.7840    0.0650   92.8670 C.3   500  3B4500      0.0216
      2  CAH       42.2500   -1.3750   92.7860 C.3   500  3B4500      0.0018
      3  CAG       41.1000   -2.2780   92.2790 C.3   500  3B4500      0.0001
      4  CAI       40.5000   -1.8310   91.0180 C.3   500  3B4500      0.0018
      5  CAK       40.2170   -0.3180   91.0040 C.3   500  3B4500      0.0216
      6  CAP       41.4200    0.5530   91.5720 C.3   500  3B4500      0.0925
      7  NAL       40.8630    1.9650   91.6760 N.pl3 500  3B4500     -0.2391
      8  CAN       41.5550    2.9200   92.4130 C.ar  500  3B4500      0.0716
      9  CAE       42.8640    3.1700   92.0240 C.ar  500  3B4500      0.0163
     10  CAC       43.5890    4.1180   92.6800 C.ar  500  3B4500      0.0013
     11  CAD       43.0420    4.8160   93.7290 C.ar  500  3B4500      0.0003
     12  CAF       41.7200    4.6100   94.1170 C.ar  500  3B4500      0.0079
     13  CAO       40.9560    3.6270   93.4680 C.ar  500  3B4500      0.0946
     14  CAM       39.5210    3.3710   93.8690 C.2   500  3B4500      0.3890
     15  OAB       39.1530    3.8620   94.9270 O.co2 500  3B4500     -0.2405
     16  OAA       38.7870    2.7530   93.1230 O.co2 500  3B4500     -0.2405
@<TRIPOS>BOND
     1     5     4    1
     2     5     6    1
     3     4     3    1
     4     6     7    1
     5     6     1    1
     6     7     8    1
     7     9     8   ar
     8     9    10   ar
     9     3     2    1
    10     8    13   ar
    11    10    11   ar
    12     2     1    1
    13    16    14   ar
    14    13    14    1
    15    13    12   ar
    16    11    12   ar
    17    14    15   ar
