@<TRIPOS>MOLECULE
3b4x_HEM_A_1.pdb
 43 50 0 0 0
SMALL
GASTEIGER

@<TRIPOS>ATOM
      1 FE         79.2520   -4.9800   69.9590 Fe    410  HEM410      0.0000
      2  CHA       78.0580   -8.1530   71.1930 C.2   410  HEM410      0.0000
      3  CHB       78.7570   -6.1390   66.6080 C.2   410  HEM410      0.0000
      4  CHC       80.3590   -1.8280   68.7430 C.2   410  HEM410      0.0000
      5  CHD       79.7100   -3.8830   73.3350 C.2   410  HEM410      0.0000
      6  NA        78.5780   -6.7250   69.1150 N.ar  410  HEM410      0.0000
      7  C1A       78.1140   -7.9510   69.8130 C.ar  410  HEM410      0.0000
      8  C2A       77.7380   -8.8500   68.8000 C.ar  410  HEM410      0.0000
      9  C3A       77.9340   -8.3120   67.5700 C.ar  410  HEM410      0.0000
     10  C4A       78.4480   -7.0050   67.6610 C.ar  410  HEM410      0.0000
     11  CMA       77.6280   -9.0180   66.2650 C.3   410  HEM410      0.0000
     12  CAA       77.1740  -10.2300   69.0630 C.3   410  HEM410      0.0000
     13  CBA       78.1690  -11.2740   68.7920 C.3   410  HEM410      0.0000
     14  CGA       77.4880  -12.6120   69.0870 C.2   410  HEM410      0.0000
     15  O1A       76.2350  -12.6500   69.0140 O.co2 410  HEM410      0.0000
     16  O2A       78.1670  -13.6100   69.3940 O.co2 410  HEM410      0.0000
     17  NB        79.5080   -4.1780   68.0920 N.2   410  HEM410      0.0000
     18  C1B       79.2410   -4.8400   66.7980 C.2   410  HEM410      0.0000
     19  C2B       79.5620   -3.9000   65.8130 C.2   410  HEM410      0.0000
     20  C3B       79.9910   -2.7280   66.3460 C.2   410  HEM410      0.0000
     21  C4B       79.9930   -2.8060   67.7860 C.2   410  HEM410      0.0000
     22  CMB       79.4330   -4.1530   64.3300 C.3   410  HEM410      0.0000
     23  CAB       80.3750   -1.5970   65.5020 C.3   410  HEM410      0.0000
     24  CBB       80.7900   -0.4730   66.2680 C.3   410  HEM410      0.0000
     25  NC        79.8880   -3.2580   70.8470 N.ar  410  HEM410      0.0000
     26  C1C       80.3120   -2.0280   70.1400 C.ar  410  HEM410      0.0000
     27  C2C       80.6520   -1.1130   71.1500 C.ar  410  HEM410      0.0000
     28  C3C       80.4770   -1.6710   72.4080 C.ar  410  HEM410      0.0000
     29  C4C       80.0120   -2.9920   72.2970 C.ar  410  HEM410      0.0000
     30  CMC       81.1400    0.2950   70.8640 C.3   410  HEM410      0.0000
     31  CAC       80.7200   -1.0380   73.7000 C.3   410  HEM410      0.0000
     32  CBC       81.1810    0.3080   73.5520 C.3   410  HEM410      0.0000
     33  ND        78.9660   -5.8240   71.8060 N.2   410  HEM410      0.0000
     34  C1D       79.2290   -5.1760   73.1200 C.2   410  HEM410      0.0000
     35  C2D       78.8860   -6.1350   74.0880 C.2   410  HEM410      0.0000
     36  C3D       78.4420   -7.2740   73.5150 C.2   410  HEM410      0.0000
     37  C4D       78.4500   -7.1820   72.1140 C.2   410  HEM410      0.0000
     38  CMD       78.9890   -5.9150   75.5810 C.3   410  HEM410      0.0000
     39  CAD       77.9900   -8.4820   74.2750 C.3   410  HEM410      0.0000
     40  CBD       76.4650   -8.5140   74.2250 C.3   410  HEM410      0.0000
     41  CGD       75.8720   -9.6920   74.9560 C.2   410  HEM410      0.0000
     42  O1D       76.4190  -10.7980   74.7700 O.co2 410  HEM410      0.0000
     43  O2D       74.6570   -9.6150   75.2180 O.co2 410  HEM410      0.0000
@<TRIPOS>BOND
     1    22    19    1
     2    23    24    1
     3    23    20    1
     4    19    20    2
     5    19    18    1
     6    11     9    1
     7    20    21    1
     8     3    18    1
     9     3    10    2
    10    18    17    2
    11     9    10   ar
    12     9     8   ar
    13    10     6   ar
    14    21    17    1
    15    21     4    2
    16    17     1    1
    17     4    26    1
    18    13    12    1
    19    13    14    1
    20     8    12    1
    21     8     7   ar
    22    15    14   ar
    23    14    16   ar
    24     6     7   ar
    25     6     1    1
    26     7     2    2
    27     1    25    1
    28     1    33    1
    29    26    25   ar
    30    26    27   ar
    31    25    29   ar
    32    30    27    1
    33    27    28   ar
    34     2    37    1
    35    33    37    2
    36    33    34    1
    37    37    36    1
    38    29    28   ar
    39    29     5    1
    40    28    31    1
    41    34     5    2
    42    34    35    1
    43    36    35    2
    44    36    39    1
    45    32    31    1
    46    35    38    1
    47    40    39    1
    48    40    41    1
    49    42    41   ar
    50    41    43   ar
