@<TRIPOS>MOLECULE
3b4y_F42_A_1.pdb
 44 46 0 0 0
SMALL
GASTEIGER

@<TRIPOS>ATOM
      1  N1       -11.2470   19.4380   33.3950 N.2   338  F42338     -0.2957
      2  C2       -11.1820   19.6850   32.0720 C.1   338  F42338      0.3661
      3  O2       -10.9990   18.7230   31.3020 O.2   338  F42338     -0.1745
      4  N3       -11.2890   20.9530   31.5990 N.2   338  F42338     -0.2365
      5  C4       -11.4590   21.9790   32.4380 C.1   338  F42338      0.2009
      6  O4       -11.5710   23.2330   31.9560 O.2   338  F42338     -0.2129
      7  C4A      -11.5430   21.7320   33.9060 C.3   338  F42338      0.1911
      8  C5       -11.7670   22.8710   34.8470 C.3   338  F42338      0.0539
      9  C5A      -11.2260   22.5430   36.1920 C.ar  338  F42338     -0.0067
     10  C6       -10.9400   23.5800   37.0780 C.ar  338  F42338      0.0003
     11  C7       -10.6780   23.3070   38.4180 C.ar  338  F42338      0.0418
     12  C8       -10.7240   21.9840   38.8690 C.ar  338  F42338      0.1970
     13  O8M      -10.4900   21.6670   40.1670 O.3   338  F42338     -0.2865
     14  C9       -11.0320   20.9430   37.9950 C.ar  338  F42338      0.0566
     15  C9A      -11.2680   21.2230   36.6380 C.ar  338  F42338      0.0526
     16  N10      -11.0650   20.1040   35.6890 N.pl3 338  F42338     -0.2619
     17  C10      -11.4440   20.4090   34.3220 C.2   338  F42338      0.1960
     18  C1'      -11.8220   18.9990   36.2030 C.3   338  F42338      0.1331
     19  C2'      -11.3770   17.6370   35.7510 C.3   338  F42338      0.2048
     20  O2'      -10.0650   17.4330   35.1680 O.3   338  F42338     -0.2185
     21  C3'      -11.8080   16.8080   36.9600 C.3   338  F42338      0.2165
     22  O3'      -12.4250   15.7030   36.3660 O.3   338  F42338     -0.2175
     23  C4'      -10.8300   16.3960   38.0480 C.3   338  F42338      0.2145
     24  O4'      -10.4520   17.4340   38.9810 O.3   338  F42338     -0.2176
     25  C5'      -11.4610   15.2090   38.7700 C.3   338  F42338      0.1846
     26  O5'      -11.0680   15.2510   40.1060 O.3   338  F42338     -0.3112
     27  P         -9.9670   14.2530   40.7170 P.3   338  F42338      0.2144
     28  O1P       -9.7530   14.8060   42.1240 O.3   338  F42338     -0.4373
     29  O2P       -8.7890   13.9930   39.8290 O.2   338  F42338     -0.5172
     30  O3P      -10.6970   12.7750   40.7230 O.3   338  F42338     -0.3072
     31  C1I      -11.9500   12.3390   41.2880 C.3   338  F42338      0.1991
     32  C2I      -13.2090   13.1360   40.9320 C.3   338  F42338      0.0426
     33  C3I      -11.8080   12.0060   42.7620 C.2   338  F42338      0.2694
     34  O3I      -12.5660   12.4230   43.6110 O.2   338  F42338     -0.2707
     35  N1H      -10.7810   11.1860   42.9760 N.am  338  F42338     -0.1935
     36  C1H      -10.2110   10.5120   44.1660 C.3   338  F42338      0.1983
     37  C2H       -9.5470   11.4220   45.1510 C.2   338  F42338      0.3842
     38  O2U       -9.6900   11.1740   46.3760 O.co2 338  F42338     -0.2437
     39  O2T       -8.8550   12.3580   44.6690 O.co2 338  F42338     -0.2437
     40  C3H      -11.2500    9.5840   44.7970 C.3   338  F42338      0.0430
     41  C4H      -11.9740    8.8280   43.6940 C.3   338  F42338      0.0909
     42  C5H      -11.7710    7.3280   43.7200 C.2   338  F42338      0.2608
     43  O5H      -12.5470    6.6250   43.0950 O.2   338  F42338     -0.2717
     44  N1G      -10.7420    6.8240   44.4010 N.am  338  F42338     -0.0878
@<TRIPOS>BOND
     1     3     2    2
     2     4     2    2
     3     4     5    2
     4     6     5    2
     5     2     1    2
     6     5     7    1
     7     1    17    2
     8     7    17    1
     9     7     8    1
    10    17    16    1
    11     8     9    1
    12    20    19    1
    13    16    18    1
    14    16    15    1
    15    19    18    1
    16    19    21    1
    17     9    15   ar
    18     9    10   ar
    19    22    21    1
    20    15    14   ar
    21    21    23    1
    22    10    11   ar
    23    14    12   ar
    24    23    25    1
    25    23    24    1
    26    11    12   ar
    27    25    26    1
    28    12    13    1
    29    29    27    2
    30    26    27    1
    31    27    30    1
    32    27    28    1
    33    30    31    1
    34    32    31    1
    35    31    33    1
    36    33    35   am
    37    33    34    2
    38    35    36    1
    39    43    42    2
    40    41    42    1
    41    41    40    1
    42    42    44   am
    43    36    40    1
    44    36    37    1
    45    39    37   ar
    46    37    38   ar
