@<TRIPOS>MOLECULE
3b4y_FLC_A_1.pdb
 13 12 0 0 0
SMALL
GASTEIGER

@<TRIPOS>ATOM
      1  CAC      -14.5160   20.7730   40.5350 C.2   337  FLC337      0.3680
      2  CA       -14.3880   21.3870   39.1520 C.3   337  FLC337      0.1560
      3  CB       -15.7250   21.6450   38.4530 C.3   337  FLC337      0.2402
      4  CBC      -16.4660   22.7950   39.0880 C.2   337  FLC337      0.3927
      5  CG       -15.5210   22.0010   36.9850 C.3   337  FLC337      0.1560
      6  CGC      -15.1140   20.8170   36.1360 C.2   337  FLC337      0.3680
      7  OA1      -13.9060   19.7050   40.7540 O.co2 337  FLC337     -0.2455
      8  OA2      -15.2010   21.3420   41.4110 O.co2 337  FLC337     -0.2455
      9  OB1      -16.0120   23.9580   38.9810 O.co2 337  FLC337     -0.2429
     10  OB2      -17.5180   22.5210   39.7040 O.co2 337  FLC337     -0.2429
     11  OG1      -14.5460   21.0790   35.0610 O.co2 337  FLC337     -0.2455
     12  OG2      -15.3600   19.6430   36.4950 O.co2 337  FLC337     -0.2455
     13  OHB      -16.5380   20.4750   38.5550 O.3   337  FLC337     -0.2129
@<TRIPOS>BOND
     1    11     6   ar
     2     6    12   ar
     3     6     5    1
     4     5     3    1
     5     3    13    1
     6     3     4    1
     7     3     2    1
     8     9     4   ar
     9     4    10   ar
    10     2     1    1
    11     1     7   ar
    12     1     8   ar
