@<TRIPOS>MOLECULE
3b50_SLB_A_1.pdb
 21 21 0 0 0
SMALL
GASTEIGER

@<TRIPOS>ATOM
      1  C1         7.7790   -9.5130  -11.1610 C.2   311  SLB311      0.4179
      2  C2         9.0520   -9.2390  -11.9040 C.3   311  SLB311      0.3155
      3  C3        10.1800   -8.7400  -11.0090 C.3   311  SLB311      0.1056
      4  C4        11.3590   -8.2780  -11.8590 C.3   311  SLB311      0.1798
      5  C5        10.8240   -7.1970  -12.8110 C.3   311  SLB311      0.1554
      6  C6         9.7250   -7.8030  -13.6960 C.3   311  SLB311      0.1734
      7  C7         9.1030   -6.7920  -14.6600 C.3   311  SLB311      0.2135
      8  C8         7.9550   -7.4210  -15.4450 C.3   311  SLB311      0.2173
      9  C9         7.3850   -6.4740  -16.4860 C.3   311  SLB311      0.2175
     10  C10       12.4520   -5.4880  -13.5230 C.2   311  SLB311      0.2420
     11  C11       13.5640   -5.1490  -14.4890 C.3   311  SLB311      0.0964
     12  N5        11.9210   -6.7250  -13.6610 N.am  311  SLB311     -0.2020
     13  O1A        7.3530  -10.6830  -11.1010 O.co2 311  SLB311     -0.2401
     14  O1B        7.1790   -8.5230  -10.6660 O.co2 311  SLB311     -0.2401
     15  O2         9.4450  -10.3810  -12.6470 O.3   311  SLB311     -0.1830
     16  O4        12.3790   -7.8060  -10.9690 O.3   311  SLB311     -0.2210
     17  O6         8.6920   -8.2590  -12.8420 O.3   311  SLB311     -0.3220
     18  O7         8.6140   -5.6730  -13.9380 O.3   311  SLB311     -0.2176
     19  O8         8.3910   -8.6280  -16.0380 O.3   311  SLB311     -0.2175
     20  O9         8.3560   -5.9950  -17.4350 O.3   311  SLB311     -0.2175
     21  O10       12.0820   -4.6860  -12.6420 O.2   311  SLB311     -0.2733
@<TRIPOS>BOND
     1    20     9    1
     2     9     8    1
     3    19     8    1
     4     8     7    1
     5     7    18    1
     6     7     6    1
     7    11    10    1
     8     6    17    1
     9     6     5    1
    10    12    10   am
    11    12     5    1
    12    10    21    2
    13    17     2    1
    14     5     4    1
    15    15     2    1
    16     2     1    1
    17     2     3    1
    18     4     3    1
    19     4    16    1
    20     1    13   ar
    21     1    14   ar
