@<TRIPOS>MOLECULE
3b56_DIU_A_1.pdb
 12 12 0 0 0
SMALL
GASTEIGER

@<TRIPOS>ATOM
      1  C        -21.6890    0.5420   -5.4120 C.2   2000  DIU2000     0.3909
      2  O1       -21.4400   -0.4500   -4.7530 O.co2 2000  DIU2000    -0.2404
      3  O2       -22.0590    1.6240   -4.8010 O.co2 2000  DIU2000    -0.2404
      4  O3       -21.9230    2.5250   -7.0200 O.3   2000  DIU2000    -0.2859
      5  C1       -21.5580    0.3660   -6.8780 C.ar  2000  DIU2000     0.1194
      6  C2       -21.7070    1.3710   -7.6720 C.ar  2000  DIU2000     0.2073
      7  C3       -21.5750    1.2060   -9.0170 C.ar  2000  DIU2000     0.0696
      8  C4       -21.3390   -0.0130   -9.6280 C.ar  2000  DIU2000     0.0148
      9  C5       -21.2260   -1.1200   -8.8020 C.ar  2000  DIU2000     0.0309
     10  C6       -21.3430   -0.9690   -7.3970 C.ar  2000  DIU2000     0.0156
     11  I1       -21.7890    2.9230  -10.1050 I     2000  DIU2000    -0.0392
     12  I2       -20.9080   -2.9740   -9.6830 I     2000  DIU2000    -0.0425
@<TRIPOS>BOND
     1    11     7    1
     2    12     9    1
     3     8     7   ar
     4     8     9   ar
     5     7     6   ar
     6     9    10   ar
     7     6     4    1
     8     6     5   ar
     9    10     5   ar
    10     5     1    1
    11     1     3   ar
    12     1     2   ar
