@<TRIPOS>MOLECULE
3b5b_NDN_B_1.pdb
 23 24 0 0 0
SMALL
GASTEIGER

@<TRIPOS>ATOM
      1  P         46.4330   28.2570   24.5640 P.3   265  NDN265      0.5327
      2  OP1       47.7000   27.5480   24.9680 O.3   265  NDN265     -0.1145
      3  OP2       45.4940   28.4220   25.7210 O.3   265  NDN265     -0.1145
      4  OP3       45.8490   27.8410   23.2480 O.2   265  NDN265     -0.2224
      5  OR5       46.9360   29.7340   24.2720 O.3   265  NDN265     -0.2675
      6  CR5       46.3610   30.9430   23.8950 C.3   265  NDN265      0.1858
      7  CR4       46.8590   32.0420   24.8110 C.3   265  NDN265      0.1774
      8  CR3       46.5540   32.0790   26.2960 C.3   265  NDN265      0.1857
      9  OR3       47.4880   32.8150   27.0380 O.3   265  NDN265     -0.2203
     10  CR2       45.1630   32.7420   26.3560 C.3   265  NDN265      0.0871
     11  CR1       45.3600   33.8220   25.2390 C.3   265  NDN265      0.2049
     12  OR1       46.3740   33.3030   24.3610 O.3   265  NDN265     -0.3342
     13  N1        44.0240   34.3500   24.7140 N.am  265  NDN265     -0.1996
     14  C2        43.2160   35.3260   25.2940 C.1   265  NDN265      0.2803
     15  O2        43.4160   35.6950   26.3800 O.2   265  NDN265     -0.1922
     16  N3        42.1620   35.8400   24.5340 N.2   265  NDN265     -0.2476
     17  C4        42.0970   35.9080   23.1450 C.1   265  NDN265      0.2213
     18  O4        41.3890   36.6850   22.5330 O.2   265  NDN265     -0.2112
     19  C5        43.0040   34.9210   22.3710 C.3   265  NDN265      0.3033
     20  C6        44.1380   34.2760   23.1950 C.3   265  NDN265      0.1539
     21  N5        43.0890   34.7830   21.0690 N.pl3 265  NDN265      0.0514
     22  O51       42.2060   35.2250   20.2990 O.2   265  NDN265     -0.1299
     23  O52       44.0270   34.2330   20.4650 O.2   265  NDN265     -0.1299
@<TRIPOS>BOND
     1    22    21    2
     2    23    21    2
     3    21    19    1
     4    19    17    1
     5    19    20    1
     6    18    17    2
     7    17    16    2
     8    20    13    1
     9     4     1    2
    10     6     5    1
    11     6     7    1
    12     5     1    1
    13    12     7    1
    14    12    11    1
    15    16    14    2
    16     1     2    1
    17     1     3    1
    18    13    11    1
    19    13    14   am
    20     7     8    1
    21    11    10    1
    22    14    15    2
    23     8    10    1
    24     8     9    1
