@<TRIPOS>MOLECULE
3b5b_NDU_A_1.pdb
 23 24 0 0 0
SMALL
GASTEIGER

@<TRIPOS>ATOM
      1  P         15.2550   24.1840   26.5790 P.3   265  NDU265      0.5327
      2  OP1       14.0420   24.9720   26.1940 O.3   265  NDU265     -0.1145
      3  OP2       16.2180   24.9310   27.4770 O.3   265  NDU265     -0.1145
      4  OP3       15.8800   23.5830   25.3760 O.2   265  NDU265     -0.2224
      5  O5'       14.7020   22.9580   27.4410 O.3   265  NDU265     -0.2675
      6  C5'       15.3160   21.9990   28.2360 C.3   265  NDU265      0.1858
      7  C4'       14.9010   22.1280   29.6610 C.3   265  NDU265      0.1774
      8  C3'       15.2760   23.3120   30.5410 C.3   265  NDU265      0.1857
      9  O3'       14.3010   23.5560   31.5490 O.3   265  NDU265     -0.2203
     10  C2'       16.6370   22.9190   31.1410 C.3   265  NDU265      0.0871
     11  C1'       16.3710   21.4030   31.3570 C.3   265  NDU265      0.2049
     12  O4'       15.4030   21.0260   30.3770 O.3   265  NDU265     -0.3342
     13  N1        17.6360   20.6330   31.5270 N.am  265  NDU265     -0.1996
     14  C2        18.3690   20.4210   32.7190 C.1   265  NDU265      0.2803
     15  O2        18.1920   21.0290   33.7050 O.2   265  NDU265     -0.1922
     16  N3        19.3320   19.4420   32.7380 N.2   265  NDU265     -0.2476
     17  C4        19.5280   18.4270   31.7900 C.1   265  NDU265      0.2213
     18  O4        20.3560   17.5760   31.9110 O.2   265  NDU265     -0.2112
     19  C5        18.6100   18.4570   30.5170 C.3   265  NDU265      0.3033
     20  C6        17.8600   19.7860   30.2030 C.3   265  NDU265      0.1539
     21  N5        18.4970   17.4980   29.6070 N.pl3 265  NDU265      0.0514
     22  O51       18.9290   16.3460   29.8410 O.2   265  NDU265     -0.1299
     23  O52       17.9730   17.6360   28.4830 O.2   265  NDU265     -0.1299
@<TRIPOS>BOND
     1     4     1    2
     2     2     1    1
     3     1     5    1
     4     1     3    1
     5     5     6    1
     6     6     7    1
     7    23    21    2
     8    21    22    2
     9    21    19    1
    10     7    12    1
    11     7     8    1
    12    20    19    1
    13    20    13    1
    14    12    11    1
    15    19    17    1
    16     8    10    1
    17     8     9    1
    18    10    11    1
    19    11    13    1
    20    13    14   am
    21    17    18    2
    22    17    16    2
    23    14    16    2
    24    14    15    2
