@<TRIPOS>MOLECULE
3b5i_SAH_A_1.pdb
 26 28 0 0 0
SMALL
GASTEIGER

@<TRIPOS>ATOM
      1  N          3.4400   -0.0460   10.8410 N.3   401  SAH401     -0.1159
      2  CA         4.7020   -0.1470   11.5730 C.3   401  SAH401      0.2168
      3  CB         4.5660    0.0160   13.0960 C.2   401  SAH401      0.0105
      4  CG         3.1810   -0.2820   13.6610 C.2   401  SAH401      0.0284
      5  SD         3.0200   -0.0660   15.4560 S.3   401  SAH401     -0.1108
      6  C          5.3890   -1.4710   11.2920 C.2   401  SAH401      0.3860
      7  O          4.8550   -2.3380   10.5890 O.co2 401  SAH401     -0.2437
      8  OXT        6.5010   -1.7180   11.7640 O.co2 401  SAH401     -0.2437
      9  C5'        1.3680    0.6460   15.3920 C.3   401  SAH401      0.0945
     10  C4'        1.4250    2.0880   14.8900 C.3   401  SAH401      0.1634
     11  O4'        0.1400    2.4720   14.4250 O.3   401  SAH401     -0.3152
     12  C3'        1.9100    3.0600   15.9760 C.3   401  SAH401      0.2168
     13  O3'        2.9870    3.7980   15.4500 O.3   401  SAH401     -0.2175
     14  C2'        0.6690    3.8800   16.2580 C.3   401  SAH401      0.2569
     15  O2'        0.9410    5.2240   16.5100 O.3   401  SAH401     -0.2130
     16  C1'       -0.1270    3.7430   14.9570 C.3   401  SAH401      0.3185
     17  N9        -1.5450    3.9700   15.2140 N.pl3 401  SAH401     -0.1439
     18  C8        -2.3440    3.3880   16.1620 C.3   401  SAH401      0.3377
     19  N7        -3.5790    3.9390   16.0690 N.2   401  SAH401     -0.2095
     20  C5        -3.5660    4.8620   15.0790 C.2   401  SAH401      0.2526
     21  C6        -4.5340    5.6940   14.5840 C.2   401  SAH401      0.4393
     22  N6        -5.7750    5.7040   15.0900 N.pl3 401  SAH401      0.2180
     23  N1        -4.1780    6.5290   13.5580 N.2   401  SAH401      0.0021
     24  C2        -2.9100    6.5610   13.0400 C.3   401  SAH401      0.5254
     25  N3        -1.9520    5.7250   13.5320 N.2   401  SAH401     -0.0055
     26  C4        -2.2890    4.8970   14.5350 C.2   401  SAH401      0.3518
@<TRIPOS>BOND
     1     7     6   ar
     2     1     2    1
     3     6     2    1
     4     6     8   ar
     5     2     3    1
     6    24    25    1
     7    24    23    1
     8     3     4    2
     9    25    26    2
    10    23    21    2
    11     4     5    1
    12    11    10    1
    13    11    16    1
    14    26    20    1
    15    26    17    1
    16    21    20    1
    17    21    22    1
    18    10     9    1
    19    10    12    1
    20    16    17    1
    21    16    14    1
    22    20    19    2
    23    17    18    1
    24     9     5    1
    25    13    12    1
    26    12    14    1
    27    19    18    1
    28    14    15    1
