@<TRIPOS>MOLECULE
3b5j_12D_A_1.pdb
 42 46 0 0 0
SMALL
GASTEIGER

@<TRIPOS>ATOM
      1  P1        23.5610    1.0270   29.1430 P.3   708  12D708      0.5373
      2  O1        23.4280    1.3440   27.6720 O.2   708  12D708     -0.2221
      3  O2        24.0180   -0.3830   29.4250 O.3   708  12D708     -0.1143
      4  O3        22.3400    1.3870   29.9520 O.3   708  12D708     -0.1143
      5  P2        25.4100    3.2500   29.0560 P.3   708  12D708      0.2231
      6  O4        26.4710    2.8850   28.0370 O.2   708  12D708     -0.5169
      7  O5        24.3280    4.2100   28.6580 O.3   708  12D708     -0.4370
      8  O6        24.7710    1.9180   29.7050 O.3   708  12D708     -0.2261
      9  O7        26.1500    3.8940   30.3310 O.3   708  12D708     -0.3111
     10  C1        27.3760    3.3770   30.8510 C.3   708  12D708      0.1812
     11  C2        27.9060    4.3310   31.9140 C.3   708  12D708      0.1789
     12  O8        28.4360    5.5140   31.3010 O.3   708  12D708     -0.3137
     13  C3        26.7360    4.7620   32.7780 C.3   708  12D708      0.1814
     14  O9        27.0490    4.7550   34.1670 O.3   708  12D708     -0.3250
     15  C4        26.4470    6.2010   32.4130 C.3   708  12D708      0.2201
     16  O10       26.2550    6.8720   33.6470 O.3   708  12D708     -0.3208
     17  C5        27.7140    6.6850   31.7250 C.3   708  12D708      0.3152
     18  N1        27.4740    7.6530   30.6190 N.pl3 708  12D708     -0.1440
     19  C6        26.6700    7.5020   29.5520 C.3   708  12D708      0.3377
     20  N2        26.7400    8.6140   28.7870 N.2   708  12D708     -0.2095
     21  C7        27.5890    9.4670   29.3850 C.2   708  12D708      0.2526
     22  C8        28.0440   10.7400   29.0670 C.2   708  12D708      0.4393
     23  N3        27.6090   11.3610   27.9390 N.pl3 708  12D708      0.2180
     24  N4        28.9260   11.3410   29.9010 N.2   708  12D708      0.0021
     25  C9        29.3600   10.7450   31.0250 C.3   708  12D708      0.5254
     26  N5        28.9390    9.5080   31.3420 N.2   708  12D708     -0.0055
     27  C10       28.0540    8.8560   30.5400 C.2   708  12D708      0.3518
     28  C11       26.5540    5.9780   34.7330 C.3   708  12D708      0.2592
     29  C12       27.6390    6.6160   35.5940 C.3   708  12D708      0.2466
     30  C13       27.3900    7.0060   36.9040 C.2   708  12D708      0.0324
     31  C14       26.1560    6.8150   37.5060 C.2   708  12D708      0.1423
     32  C15       25.1200    6.2260   36.8040 C.2   708  12D708      0.0484
     33  C16       25.2470    5.7870   35.4920 C.2   708  12D708      0.1752
     34  N6        28.8980    6.8630   35.1330 N.pl3 708  12D708      0.0420
     35  N7        25.9670    7.2180   38.7870 N.pl3 708  12D708      0.0575
     36  N8        24.1150    5.2340   34.9570 N.pl3 708  12D708      0.0584
     37  O11       29.2960    6.5290   33.8500 O.2   708  12D708     -0.1305
     38  O12       29.8480    7.4720   35.9460 O.2   708  12D708     -0.1305
     39  O13       24.7380    7.0380   39.4180 O.2   708  12D708     -0.1261
     40  O14       27.0140    7.8170   39.4800 O.2   708  12D708     -0.1261
     41  O15       24.0310    4.7370   33.6580 O.2   708  12D708     -0.1263
     42  O16       22.9710    5.1400   35.7500 O.2   708  12D708     -0.1263
@<TRIPOS>BOND
     1     2     1    2
     2    23    22    1
     3     6     5    2
     4     7     5    1
     5    20    21    2
     6    20    19    1
     7     5     8    1
     8     5     9    1
     9    22    21    1
    10    22    24    2
    11     1     3    1
    12     1     8    1
    13     1     4    1
    14    21    27    1
    15    19    18    1
    16    24    25    1
    17     9    10    1
    18    27    18    1
    19    27    26    2
    20    18    17    1
    21    10    11    1
    22    25    26    1
    23    12    17    1
    24    12    11    1
    25    17    15    1
    26    11    13    1
    27    15    13    1
    28    15    16    1
    29    13    14    1
    30    16    28    1
    31    41    36    2
    32    37    34    2
    33    14    28    1
    34    28    33    1
    35    28    29    1
    36    36    33    1
    37    36    42    2
    38    34    29    1
    39    34    38    2
    40    33    32    2
    41    29    30    1
    42    32    31    1
    43    30    31    2
    44    31    35    1
    45    35    39    2
    46    35    40    2
