@<TRIPOS>MOLECULE
3b5r_B5R_A_1.pdb
 28 29 0 0 0
SMALL
GASTEIGER

@<TRIPOS>ATOM
      1  C21       29.5630   -0.6500    8.0000 C.ar    1  B5R1        0.0674
      2  C20       29.5860   -0.8310    9.3790 C.ar    1  B5R1        0.1536
      3  F20       29.7060   -2.0930    9.8420 F       1  B5R1       -0.2032
      4  C19       29.4810    0.2740   10.2230 C.ar    1  B5R1        0.0852
      5 CL19       29.4480    0.1230   11.9470 Cl      1  B5R1       -0.0799
      6  C18       29.3670    1.5500    9.6770 C.ar    1  B5R1        0.0168
      7  C17       29.3430    1.7330    8.2980 C.ar    1  B5R1        0.0379
      8  C16       29.4300    0.6260    7.4590 C.ar    1  B5R1        0.1410
      9  O14       29.1890    0.7630    6.1290 O.3     1  B5R1       -0.4722
     10  C13       30.3680    0.9100    5.3260 C.3     1  B5R1        0.2444
     11  C11       29.8990    0.8780    3.8800 C.3     1  B5R1        0.2359
     12  O11       30.8690    1.5460    3.0700 O.3     1  B5R1       -0.2124
     13  C12       29.7260   -0.5710    3.4190 C.3     1  B5R1        0.0465
     14  C10       28.5650    1.6230    3.7980 C.2     1  B5R1        0.2768
     15  O10       27.5010    1.0160    3.9160 O.2     1  B5R1       -0.2702
     16  N9        28.6810    2.9400    3.6410 N.am    1  B5R1       -0.1771
     17  C6        27.6780    3.8130    3.5630 C.ar    1  B5R1        0.0734
     18  C5        26.3380    3.4700    3.7330 C.ar    1  B5R1        0.0211
     19  C1        28.0190    5.1500    3.3910 C.ar    1  B5R1        0.0173
     20  C2        27.0230    6.1190    3.3990 C.ar    1  B5R1        0.0116
     21  C3        25.6890    5.7640    3.5760 C.ar    1  B5R1        0.0724
     22  C8        24.7430    6.8380    3.5720 C.1     1  B5R1        0.1004
     23  N8        24.0010    7.7010    3.5600 N.1     1  B5R1       -0.1908
     24  C4        25.3200    4.4270    3.7470 C.ar    1  B5R1        0.0823
     25  C7        23.8660    3.9940    4.0180 C.3     1  B5R1        0.4192
     26  F2        22.9710    4.6510    3.2850 F       1  B5R1       -0.1658
     27  F1        23.6550    2.7090    3.7480 F       1  B5R1       -0.1658
     28  F3        23.5610    4.1870    5.2970 F       1  B5R1       -0.1658
@<TRIPOS>BOND
     1    12    11    1
     2    26    25    1
     3    19    20   ar
     4    19    17   ar
     5    20    21   ar
     6    13    11    1
     7    23    22    3
     8    17    16    1
     9    17    18   ar
    10    22    21    1
    11    21    24   ar
    12    16    14   am
    13    18    24   ar
    14    24    25    1
    15    27    25    1
    16    14    11    1
    17    14    15    2
    18    11    10    1
    19    25    28    1
    20    10     9    1
    21     9     8    1
    22     8     1   ar
    23     8     7   ar
    24     1     2   ar
    25     7     6   ar
    26     2     3    1
    27     2     4   ar
    28     6     4   ar
    29     4     5    1
