@<TRIPOS>MOLECULE
3b5y_ANP_A_1.pdb
 31 33 0 0 0
SMALL
GASTEIGER

@<TRIPOS>ATOM
      1  PG       -59.5560   55.5420  -94.2190 P.3   5002  ANP5002     0.4884
      2  O1G      -59.8680   54.2190  -93.6460 O.3   5002  ANP5002    -0.1240
      3  O2G      -60.1870   56.6620  -93.5120 O.3   5002  ANP5002    -0.1240
      4  O3G      -59.7770   55.5430  -95.7130 O.2   5002  ANP5002    -0.2331
      5  PB       -56.6810   54.7840  -94.4740 P.3   5002  ANP5002     0.4669
      6  O1B      -56.9460   53.4700  -93.8500 O.3   5002  ANP5002    -0.1253
      7  O2B      -56.6440   54.8470  -95.9300 O.2   5002  ANP5002    -0.2351
      8  N3B      -57.9240   55.7670  -93.9500 N.3   5002  ANP5002    -0.0163
      9  PA       -54.5090   54.8980  -92.4400 P.3   5002  ANP5002     0.2220
     10  O1A      -55.2510   55.5650  -91.3670 O.3   5002  ANP5002    -0.4370
     11  O2A      -54.1340   53.4490  -92.2960 O.2   5002  ANP5002    -0.5170
     12  O3A      -55.3090   55.2270  -93.8140 O.3   5002  ANP5002    -0.2360
     13  O5'      -53.2040   55.7320  -92.6410 O.3   5002  ANP5002    -0.3111
     14  C5'      -52.1730   55.3600  -93.5630 C.3   5002  ANP5002     0.1813
     15  C4'      -50.9790   55.1480  -92.6960 C.3   5002  ANP5002     0.1821
     16  O4'      -51.3090   54.0720  -91.8270 O.3   5002  ANP5002    -0.3135
     17  C3'      -49.6960   54.7180  -93.3350 C.3   5002  ANP5002     0.2184
     18  O3'      -48.7380   55.8070  -93.2150 O.3   5002  ANP5002    -0.2174
     19  C2'      -49.2870   53.5030  -92.4700 C.3   5002  ANP5002     0.2570
     20  O2'      -47.9280   53.4930  -92.0680 O.3   5002  ANP5002    -0.2130
     21  C1'      -50.1030   53.7950  -91.2000 C.3   5002  ANP5002     0.3186
     22  N9       -50.3690   52.7780  -90.0770 N.pl3 5002  ANP5002    -0.1439
     23  C8       -51.6070   52.3360  -89.6380 C.3   5002  ANP5002     0.3377
     24  N7       -51.5910   51.4940  -88.6300 N.2   5002  ANP5002    -0.2095
     25  C5       -50.2470   51.3520  -88.3660 C.2   5002  ANP5002     0.2526
     26  C6       -49.5610   50.5960  -87.3770 C.2   5002  ANP5002     0.4393
     27  N6       -50.2300   49.8590  -86.4960 N.pl3 5002  ANP5002     0.2180
     28  N1       -48.2180   50.6410  -87.3510 N.2   5002  ANP5002     0.0021
     29  C2       -47.5830   51.3970  -88.2400 C.3   5002  ANP5002     0.5254
     30  N3       -48.0960   52.1700  -89.2170 N.2   5002  ANP5002    -0.0055
     31  C4       -49.4660   52.1070  -89.2330 C.2   5002  ANP5002     0.3518
@<TRIPOS>BOND
     1     7     5    2
     2     4     1    2
     3     5     8    1
     4     5     6    1
     5     5    12    1
     6     1     8    1
     7     1     2    1
     8     1     3    1
     9    12     9    1
    10    14    15    1
    11    14    13    1
    12    17    18    1
    13    17    15    1
    14    17    19    1
    15    15    16    1
    16    13     9    1
    17    19    20    1
    18    19    21    1
    19     9    11    2
    20     9    10    1
    21    16    21    1
    22    21    22    1
    23    22    23    1
    24    22    31    1
    25    23    24    1
    26    31    30    2
    27    31    25    1
    28    30    29    1
    29    24    25    2
    30    25    26    1
    31    29    28    1
    32    26    28    2
    33    26    27    1
