@<TRIPOS>MOLECULE
3b5z_ADP_A_1.pdb
 26 28 0 0 0
SMALL
GASTEIGER

@<TRIPOS>ATOM
      1  PB       -57.7490  -42.7450  -96.7070 P.3   5001  ADP5001     0.3991
      2  O1B      -58.9570  -43.5040  -96.5010 O.3   5001  ADP5001    -0.1422
      3  O2B      -57.0460  -41.7230  -95.7260 O.3   5001  ADP5001    -0.1422
      4  PA       -57.7060  -43.8040  -94.1870 P.3   5001  ADP5001     0.2204
      5  O1A      -57.4630  -42.4680  -93.5890 O.3   5001  ADP5001    -0.4371
      6  O2A      -59.2890  -44.0700  -94.2430 O.2   5001  ADP5001    -0.5170
      7  O3A      -57.0830  -43.8800  -95.7210 O.3   5001  ADP5001    -0.2513
      8  O5'      -57.0960  -44.9250  -93.1730 O.3   5001  ADP5001    -0.3112
      9  C5'      -57.7850  -44.6710  -91.9210 C.3   5001  ADP5001     0.1813
     10  C4'      -57.4120  -45.6250  -90.7850 C.3   5001  ADP5001     0.1821
     11  O4'      -55.9970  -45.5810  -90.4900 O.3   5001  ADP5001    -0.3135
     12  C3'      -58.1890  -45.2280  -89.5240 C.3   5001  ADP5001     0.2184
     13  O3'      -58.9470  -46.3220  -89.0030 O.3   5001  ADP5001    -0.2174
     14  C2'      -57.1370  -44.7150  -88.5210 C.3   5001  ADP5001     0.2570
     15  O2'      -57.1760  -45.4450  -87.2890 O.3   5001  ADP5001    -0.2130
     16  C1'      -55.7710  -44.8680  -89.2350 C.3   5001  ADP5001     0.3186
     17  N9       -55.1030  -43.5580  -89.4900 N.pl3 5001  ADP5001    -0.1439
     18  C8       -54.7210  -43.0620  -90.7080 C.3   5001  ADP5001     0.3377
     19  N7       -54.1640  -41.9020  -90.5800 N.2   5001  ADP5001    -0.2095
     20  C5       -54.1430  -41.5700  -89.2900 C.2   5001  ADP5001     0.2526
     21  C6       -53.6790  -40.4670  -88.5820 C.2   5001  ADP5001     0.4393
     22  N6       -53.0940  -39.4260  -89.2620 N.pl3 5001  ADP5001     0.2180
     23  N1       -53.8150  -40.4470  -87.2450 N.2   5001  ADP5001     0.0021
     24  C2       -54.3840  -41.4570  -86.5800 C.3   5001  ADP5001     0.5254
     25  N3       -54.8430  -42.5260  -87.2190 N.2   5001  ADP5001    -0.0055
     26  C4       -54.7430  -42.6200  -88.5570 C.2   5001  ADP5001     0.3518
@<TRIPOS>BOND
     1     1     2    1
     2     1     3    1
     3     1     7    1
     4     7     4    1
     5     6     4    2
     6     4     5    1
     7     4     8    1
     8     8     9    1
     9     9    10    1
    10    10    11    1
    11    10    12    1
    12    18    19    1
    13    18    17    1
    14    19    20    2
    15    11    16    1
    16    12    13    1
    17    12    14    1
    18    17    16    1
    19    17    26    1
    20    20    21    1
    21    20    26    1
    22    22    21    1
    23    16    14    1
    24    21    23    2
    25    26    25    2
    26    14    15    1
    27    23    24    1
    28    25    24    1
