@<TRIPOS>MOLECULE
3b60_ANP_A_1.pdb
 31 33 0 0 0
SMALL
GASTEIGER

@<TRIPOS>ATOM
      1  PG        93.7090   16.2010   45.0170 P.3   5001  ANP5001     0.4884
      2  O1G       94.8530   15.6340   45.7710 O.3   5001  ANP5001    -0.1240
      3  O2G       92.6480   16.8220   45.8290 O.3   5001  ANP5001    -0.1240
      4  O3G       94.1320   16.9120   43.7670 O.2   5001  ANP5001    -0.2331
      5  PB        93.6460   13.6580   43.9680 P.3   5001  ANP5001     0.4669
      6  O1B       93.1630   13.5350   42.5870 O.2   5001  ANP5001    -0.2351
      7  O2B       95.0820   13.7290   44.2310 O.3   5001  ANP5001    -0.1253
      8  N3B       92.9530   14.9380   44.5390 N.3   5001  ANP5001    -0.0163
      9  PA        92.2500   11.2690   44.2720 P.3   5001  ANP5001     0.2220
     10  O1A       93.3290   10.4120   43.8630 O.3   5001  ANP5001    -0.4370
     11  O2A       91.1120   11.4820   43.3830 O.2   5001  ANP5001    -0.5170
     12  O3A       92.9220   12.5830   44.7290 O.3   5001  ANP5001    -0.2360
     13  O5'       91.7400   10.6940   45.5590 O.3   5001  ANP5001    -0.3111
     14  C5'       90.6720   11.1920   46.3380 C.3   5001  ANP5001     0.1813
     15  C4'       89.3460   10.6850   45.8300 C.3   5001  ANP5001     0.1821
     16  O4'       89.3600    9.2500   45.8670 O.3   5001  ANP5001    -0.3135
     17  C3'       88.2180   11.0970   46.7010 C.3   5001  ANP5001     0.2184
     18  O3'       86.9440   10.9300   46.0400 O.3   5001  ANP5001    -0.2174
     19  C2'       88.4180   10.1250   47.8490 C.3   5001  ANP5001     0.2570
     20  O2'       87.2580    9.9090   48.6280 O.3   5001  ANP5001    -0.2130
     21  C1'       88.8100    8.7820   47.1140 C.3   5001  ANP5001     0.3186
     22  N9        89.8890    7.9200   47.7560 N.pl3 5001  ANP5001    -0.1439
     23  C8        91.2730    8.0020   47.6520 C.3   5001  ANP5001     0.3377
     24  N7        91.9510    7.1120   48.3130 N.2   5001  ANP5001    -0.2095
     25  C5        90.9540    6.3820   48.8980 C.2   5001  ANP5001     0.2526
     26  C6        90.9940    5.2690   49.7410 C.2   5001  ANP5001     0.4393
     27  N6        92.1480    4.7520   50.0970 N.pl3 5001  ANP5001     0.2180
     28  N1        89.8230    4.7360   50.1810 N.2   5001  ANP5001     0.0021
     29  C2        88.6520    5.2820   49.8020 C.3   5001  ANP5001     0.5254
     30  N3        88.4660    6.3410   49.0030 N.2   5001  ANP5001    -0.0055
     31  C4        89.6860    6.8550   48.5760 C.2   5001  ANP5001     0.3518
@<TRIPOS>BOND
     1     6     5    2
     2    11     9    2
     3     4     1    2
     4    10     9    1
     5     5     7    1
     6     5     8    1
     7     5    12    1
     8     9    12    1
     9     9    13    1
    10     8     1    1
    11     1     2    1
    12     1     3    1
    13    13    14    1
    14    15    16    1
    15    15    14    1
    16    15    17    1
    17    16    21    1
    18    18    17    1
    19    17    19    1
    20    21    22    1
    21    21    19    1
    22    23    22    1
    23    23    24    1
    24    22    31    1
    25    19    20    1
    26    24    25    2
    27    31    25    1
    28    31    30    2
    29    25    26    1
    30    30    29    1
    31    26    27    1
    32    26    28    2
    33    29    28    1
