@<TRIPOS>MOLECULE
3b65_3B6_A_1.pdb
 25 26 0 0 0
SMALL
GASTEIGER

@<TRIPOS>ATOM
      1  C5        26.2140    3.3820    3.9210 C.ar    1  3B61        0.0231
      2  C4        25.2350    4.3730    3.8580 C.ar    1  3B61        0.0410
      3  I7        23.2180    3.8780    4.1630 I       1  3B61       -0.0418
      4  C3        25.6120    5.6870    3.6050 C.ar    1  3B61        0.0739
      5  C8        24.6460    6.7400    3.5080 C.1     1  3B61        0.1008
      6  N8        23.8880    7.5820    3.4250 N.1     1  3B61       -0.1908
      7  C2        26.9540    6.0080    3.4220 C.ar    1  3B61        0.0120
      8  C1        27.9250    5.0150    3.4860 C.ar    1  3B61        0.0173
      9  C6        27.5590    3.6950    3.7360 C.ar    1  3B61        0.0739
     10  N9        28.5410    2.7940    3.7680 N.am    1  3B61       -0.1770
     11  C10       28.4020    1.4870    3.9760 C.2     1  3B61        0.2768
     12  O10       27.3320    0.9180    4.1860 O.2     1  3B61       -0.2702
     13  C11       29.7190    0.7060    3.9600 C.3     1  3B61        0.2359
     14  O11       30.7670    1.5730    3.5180 O.3     1  3B61       -0.2124
     15  C12       29.5970   -0.4990    3.0240 C.3     1  3B61        0.0465
     16  C13       30.0200    0.2180    5.3690 C.3     1  3B61        0.2444
     17  O14       30.1290    1.3470    6.2520 O.3     1  3B61       -0.4723
     18  C16       29.8710    1.0640    7.5600 C.ar    1  3B61        0.1387
     19  C17       30.2320   -0.1510    8.1380 C.ar    1  3B61        0.0376
     20  C18       29.9980   -0.3860    9.4900 C.ar    1  3B61        0.0134
     21  C19       29.4010    0.5970   10.2720 C.ar    1  3B61        0.0686
     22  C22       29.2150    0.3850   11.6760 C.1     1  3B61        0.1004
     23  N22       29.0720    0.2250   12.7930 N.1     1  3B61       -0.1908
     24  C20       29.0320    1.8110    9.6980 C.ar    1  3B61        0.0134
     25  C21       29.2670    2.0430    8.3460 C.ar    1  3B61        0.0376
@<TRIPOS>BOND
     1    15    13    1
     2     7     8   ar
     3     7     4   ar
     4     6     5    3
     5     8     9   ar
     6     5     4    1
     7    14    13    1
     8     4     2   ar
     9     9    10    1
    10     9     1   ar
    11    10    11   am
    12     2     1   ar
    13     2     3    1
    14    13    11    1
    15    13    16    1
    16    11    12    2
    17    16    17    1
    18    17    18    1
    19    18    19   ar
    20    18    25   ar
    21    19    20   ar
    22    25    24   ar
    23    20    21   ar
    24    24    21   ar
    25    21    22    1
    26    22    23    3
