@<TRIPOS>MOLECULE
3b66_B66_A_1.pdb
 29 30 0 0 0
SMALL
GASTEIGER

@<TRIPOS>ATOM
      1  C17       28.9970    2.0250    8.0780 C.ar    1  B661        0.0386
      2  C18       28.7690    1.8740    9.4420 C.ar    1  B661        0.0272
      3  C21       29.4310    0.8790   10.1560 C.ar    1  B661        0.1431
      4  N19       29.1910    0.7140   11.4540 N.pl3   1  B661        0.0577
      5  O20       29.9060   -0.2640   12.1960 O.2     1  B661       -0.1261
      6  O19       28.2450    1.5410   12.1200 O.2     1  B661       -0.1261
      7  C20       30.3220    0.0360    9.4960 C.ar    1  B661        0.0272
      8  C19       30.5480    0.1870    8.1310 C.ar    1  B661        0.0386
      9  C16       29.8860    1.1820    7.4160 C.ar    1  B661        0.1388
     10  O14       30.1260    1.3920    6.0930 O.3     1  B661       -0.4723
     11  C13       30.1390    0.1900    5.3060 C.3     1  B661        0.2444
     12  C11       29.7610    0.5660    3.8830 C.3     1  B661        0.2359
     13  O11       30.7790    1.4060    3.3330 O.3     1  B661       -0.2124
     14  C12       29.6010   -0.7010    3.0400 C.3     1  B661        0.0465
     15  C10       28.4450    1.3450    3.9240 C.2     1  B661        0.2768
     16  O10       27.3800    0.7850    4.1810 O.2     1  B661       -0.2702
     17  N9        28.5940    2.6500    3.7080 N.am    1  B661       -0.1771
     18  C6        27.6250    3.5650    3.6920 C.ar    1  B661        0.0734
     19  C5        26.2820    3.2660    3.9120 C.ar    1  B661        0.0211
     20  C1        27.9940    4.8830    3.4500 C.ar    1  B661        0.0173
     21  C2        27.0230    5.8770    3.4310 C.ar    1  B661        0.0116
     22  C3        25.6850    5.5650    3.6540 C.ar    1  B661        0.0724
     23  C8        24.7650    6.6620    3.6250 C.1     1  B661        0.1004
     24  N8        24.0390    7.5380    3.5940 N.1     1  B661       -0.1908
     25  C4        25.2890    4.2470    3.8990 C.ar    1  B661        0.0823
     26  C7        23.8300    3.8490    4.1950 C.3     1  B661        0.4192
     27  F2        23.5590    4.0570    5.4800 F       1  B661       -0.1658
     28  F3        22.9440    4.5270    3.4710 F       1  B661       -0.1658
     29  F1        23.5910    2.5650    3.9400 F       1  B661       -0.1658
@<TRIPOS>BOND
     1    14    12    1
     2    13    12    1
     3    21    20   ar
     4    21    22   ar
     5    20    18   ar
     6    28    26    1
     7    24    23    3
     8    23    22    1
     9    22    25   ar
    10    18    17    1
    11    18    19   ar
    12    17    15   am
    13    12    15    1
    14    12    11    1
    15    25    19   ar
    16    25    26    1
    17    15    16    2
    18    29    26    1
    19    26    27    1
    20    11    10    1
    21    10     9    1
    22     9     1   ar
    23     9     8   ar
    24     1     2   ar
    25     8     7   ar
    26     2     3   ar
    27     7     3   ar
    28     3     4    1
    29     4     6    2
    30     4     5    2
