@<TRIPOS>MOLECULE
3b67_B67_A_1.pdb
 32 33 0 0 0
SMALL
GASTEIGER

@<TRIPOS>ATOM
      1  F1        23.7470    2.4230    4.4340 F       1  B671       -0.1658
      2  C7        23.8270    3.7490    4.5070 C.3     1  B671        0.4202
      3  F2        23.5120    4.0860    5.7540 F       1  B671       -0.1658
      4  F3        22.9060    4.2170    3.6700 F       1  B671       -0.1658
      5  C4        25.2420    4.2460    4.1560 C.ar    1  B671        0.0951
      6  C5        26.2920    3.3280    4.1510 C.ar    1  B671        0.0221
      7  C3        25.5280    5.5560    3.7640 C.ar    1  B671        0.1468
      8  N8        24.6900    6.5790    3.9270 N.pl3   1  B671        0.0576
      9  O2        25.0450    7.8390    3.3770 O.2     1  B671       -0.1261
     10  O1        23.4250    6.4580    4.5610 O.2     1  B671       -0.1261
     11  C2        26.8160    5.8900    3.3570 C.ar    1  B671        0.0254
     12  C1        27.8490    4.9600    3.3530 C.ar    1  B671        0.0183
     13  C6        27.5890    3.6570    3.7650 C.ar    1  B671        0.0735
     14  N9        28.6020    2.7960    3.8380 N.am    1  B671       -0.1771
     15  C10       28.5010    1.5400    4.2710 C.2     1  B671        0.2768
     16  O10       27.4580    1.0070    4.6460 O.2     1  B671       -0.2702
     17  C11       29.8210    0.7650    4.2880 C.3     1  B671        0.2359
     18  O11       30.8560    1.5720    3.7200 O.3     1  B671       -0.2124
     19  C12       29.6730   -0.5380    3.5000 C.3     1  B671        0.0465
     20  C13       30.1560    0.4360    5.7350 C.3     1  B671        0.2446
     21  O14       30.4670    1.6020    6.5180 O.3     1  B671       -0.4676
     22  C16       29.7840    1.6280    7.6980 C.ar    1  B671        0.1978
     23  C17       28.7310    2.5220    7.8790 C.ar    1  B671        0.2057
     24  F17       28.4000    3.3310    6.8500 F       1  B671       -0.1984
     25  C18       28.0500    2.5710    9.0970 C.ar    1  B671        0.2000
     26  F18       27.0690    3.4840    9.2820 F       1  B671       -0.1992
     27  C19       28.4160    1.7050   10.1290 C.ar    1  B671        0.1993
     28  F19       27.7200    1.7030   11.2880 F       1  B671       -0.1993
     29  C20       29.4750    0.8080    9.9520 C.ar    1  B671        0.2000
     30  F20       29.8010   -0.0670   10.9280 F       1  B671       -0.1992
     31  C21       30.1630    0.7850    8.7380 C.ar    1  B671        0.2057
     32  F21       31.2390   -0.0080    8.5390 F       1  B671       -0.1984
@<TRIPOS>BOND
     1    12    11   ar
     2    12    13   ar
     3    11     7   ar
     4     9     8    2
     5    19    17    1
     6     4     2    1
     7    18    17    1
     8     7     8    1
     9     7     5   ar
    10    13    14    1
    11    13     6   ar
    12    14    15   am
    13     8    10    2
    14     6     5   ar
    15     5     2    1
    16    15    17    1
    17    15    16    2
    18    17    20    1
    19     1     2    1
    20     2     3    1
    21    20    21    1
    22    21    22    1
    23    24    23    1
    24    22    23   ar
    25    22    31   ar
    26    23    25   ar
    27    32    31    1
    28    31    29   ar
    29    25    26    1
    30    25    27   ar
    31    29    27   ar
    32    29    30    1
    33    27    28    1
