@<TRIPOS>MOLECULE
3b68_B68_A_1.pdb
 31 32 0 0 0
SMALL
GASTEIGER

@<TRIPOS>ATOM
      1  C24       29.5300   -0.1530   14.0740 C.3     1  B681        0.0968
      2  C23       30.0740   -0.0310   12.6490 C.2     1  B681        0.2461
      3  O23       31.1890   -0.4680   12.3650 O.2     1  B681       -0.2730
      4  N22       29.2660    0.5970   11.7970 N.am    1  B681       -0.1792
      5  C19       29.5320    0.8060   10.5070 C.ar    1  B681        0.0736
      6  C18       30.7030    0.3490    9.9050 C.ar    1  B681        0.0197
      7  C17       30.9330    0.5700    8.5500 C.ar    1  B681        0.0382
      8  C20       28.5950    1.4870    9.7360 C.ar    1  B681        0.0197
      9  C21       28.8200    1.7080    8.3800 C.ar    1  B681        0.0382
     10  C16       29.9910    1.2480    7.7820 C.ar    1  B681        0.1388
     11  O14       30.2290    1.5120    6.4680 O.3     1  B681       -0.4723
     12  C13       29.9660    0.3720    5.6340 C.3     1  B681        0.2444
     13  C11       29.7360    0.8170    4.1980 C.3     1  B681        0.2359
     14  O11       30.8080    1.6700    3.7880 O.3     1  B681       -0.2124
     15  C12       29.6590   -0.4110    3.2890 C.3     1  B681        0.0465
     16  C10       28.4240    1.6000    4.1380 C.2     1  B681        0.2768
     17  O10       27.3540    1.0420    4.3760 O.2     1  B681       -0.2702
     18  N9        28.5640    2.8920    3.8460 N.am    1  B681       -0.1771
     19  C6        27.5700    3.7740    3.7430 C.ar    1  B681        0.0735
     20  C5        26.2350    3.4430    3.9690 C.ar    1  B681        0.0221
     21  C1        27.8860    5.0910    3.4350 C.ar    1  B681        0.0183
     22  C2        26.8720    6.0420    3.3750 C.ar    1  B681        0.0254
     23  C3        25.5430    5.7060    3.6190 C.ar    1  B681        0.1468
     24  N8        24.6680    6.7110    3.5770 N.pl3   1  B681        0.0576
     25  O1        23.3010    6.5660    3.9340 O.2     1  B681       -0.1261
     26  O2        25.1230    8.0190    3.2620 O.2     1  B681       -0.1261
     27  C4        25.2030    4.3800    3.9100 C.ar    1  B681        0.0951
     28  C7        23.7570    3.8990    4.1370 C.3     1  B681        0.4202
     29  F2        23.3000    4.3270    5.3100 F       1  B681       -0.1658
     30  F1        22.9170    4.3100    3.1910 F       1  B681       -0.1658
     31  F3        23.6710    2.5720    4.1530 F       1  B681       -0.1658
@<TRIPOS>BOND
     1    30    28    1
     2    26    24    2
     3    15    13    1
     4    22    21   ar
     5    22    23   ar
     6    21    19   ar
     7    24    23    1
     8    24    25    2
     9    23    27   ar
    10    19    18    1
    11    19    20   ar
    12    14    13    1
    13    18    16   am
    14    27    20   ar
    15    27    28    1
    16    28    31    1
    17    28    29    1
    18    16    13    1
    19    16    17    2
    20    13    12    1
    21    12    11    1
    22    11    10    1
    23    10     9   ar
    24    10     7   ar
    25     9     8   ar
    26     7     6   ar
    27     8     5   ar
    28     6     5   ar
    29     5     4    1
    30     4     2   am
    31     3     2    2
    32     2     1    1
