@<TRIPOS>MOLECULE
3b69_BFN_A_1.pdb
 29 30 0 0 0
SMALL
GASTEIGER

@<TRIPOS>ATOM
      1  C11       12.0650  -19.6430   -4.8830 C.3   700  BFN700      0.0964
      2  C10       10.8310  -19.3270   -5.7270 C.2   700  BFN700      0.2420
      3  O10       10.1440  -20.2400   -6.1970 O.2   700  BFN700     -0.2733
      4  N5        10.5740  -18.0320   -5.8800 N.am  700  BFN700     -0.2019
      5  C5         9.4370  -17.5200   -6.6620 C.3   700  BFN700      0.1580
      6  C4         9.8550  -16.3200   -7.5130 C.3   700  BFN700      0.2096
      7  O4        10.9040  -16.7230   -8.3990 O.3   700  BFN700     -0.2182
      8  C3         8.6390  -15.8380   -8.3080 C.3   700  BFN700      0.2308
      9  F1         8.2560  -16.8350   -9.1960 F     700  BFN700     -0.2312
     10  C2         7.4940  -15.4430   -7.3650 C.3   700  BFN700      0.2533
     11  C1         6.1790  -15.1530   -8.0940 C.2   700  BFN700      0.3942
     12  O1A        5.1290  -15.1900   -7.4160 O.co2 700  BFN700     -0.2429
     13  O1B        6.2000  -14.9030   -9.3200 O.co2 700  BFN700     -0.2429
     14  O6         7.1770  -16.5560   -6.5130 O.3   700  BFN700     -0.3409
     15  C6         8.2650  -17.1240   -5.7610 C.3   700  BFN700      0.1711
     16  C7         7.7360  -18.3900   -5.0800 C.3   700  BFN700      0.2126
     17  O7         7.4860  -19.4170   -6.0450 O.3   700  BFN700     -0.2177
     18  C8         6.4440  -18.0950   -4.3190 C.3   700  BFN700      0.2061
     19  O8         6.7300  -17.2460   -3.2060 O.3   700  BFN700     -0.2184
     20  C9         5.8460  -19.4240   -3.8520 C.3   700  BFN700      0.1509
     21  N9         5.2310  -20.1700   -4.7500 N.am  700  BFN700     -0.1989
     22  C12        4.0680  -20.7510   -4.4700 C.2   700  BFN700      0.2649
     23  O12        3.5000  -20.6680   -3.3840 O.2   700  BFN700     -0.2684
     24  C13        3.4610  -21.5590   -5.6190 C.ar  700  BFN700      0.0550
     25  C14        2.1450  -22.0070   -5.5350 C.ar  700  BFN700      0.0046
     26  C15        1.5560  -22.6500   -6.6160 C.ar  700  BFN700      0.0001
     27  C16        2.2820  -22.8480   -7.7860 C.ar  700  BFN700      0.0000
     28  C17        3.5960  -22.4040   -7.8700 C.ar  700  BFN700      0.0001
     29  C18        4.1860  -21.7630   -6.7850 C.ar  700  BFN700      0.0046
@<TRIPOS>BOND
     1    13    11   ar
     2     9     8    1
     3     7     6    1
     4     8     6    1
     5     8    10    1
     6    11    12   ar
     7    11    10    1
     8    28    27   ar
     9    28    29   ar
    10    27    26   ar
    11     6     5    1
    12    10    14    1
    13    29    24   ar
    14     5     4    1
    15     5    15    1
    16    26    25   ar
    17    14    15    1
    18     3     2    2
    19    17    16    1
    20     4     2   am
    21    15    16    1
    22     2     1    1
    23    24    25   ar
    24    24    22    1
    25    16    18    1
    26    21    22   am
    27    21    20    1
    28    22    23    2
    29    18    20    1
    30    18    19    1
