@<TRIPOS>MOLECULE
3b6a_ZCT_A_1.pdb
 50 55 0 0 0
SMALL
GASTEIGER

@<TRIPOS>ATOM
      1  O1        23.2920  -13.9670  -33.4120 O.co2   1  ZCT1       -0.2456
      2  C1        24.2460  -13.2290  -33.7480 C.2     1  ZCT1        0.3669
      3  O2        24.7890  -12.4240  -32.9410 O.co2   1  ZCT1       -0.2456
      4  C2        24.7420  -13.3280  -35.1870 C.3     1  ZCT1        0.1375
      5  C3        24.1010  -12.2480  -36.0680 C.3     1  ZCT1        0.0892
      6  O3        23.9770  -11.0610  -35.2800 O.3     1  ZCT1       -0.3659
      7  C15       23.2170   -9.9990  -35.8730 C.3     1  ZCT1        0.0955
      8  C16       21.7600  -10.4180  -36.0610 C.3     1  ZCT1        0.0299
      9  C4        24.9310  -11.9240  -37.3180 C.3     1  ZCT1        0.0532
     10  C5        24.7340  -10.5100  -37.8470 C.2     1  ZCT1        0.0199
     11  C6        25.3880  -10.0350  -39.0900 C.2     1  ZCT1        0.1948
     12  O4        26.1210  -10.8050  -39.7360 O.2     1  ZCT1       -0.2868
     13  C7        25.1920   -8.6350  -39.5880 C.ar    1  ZCT1        0.0837
     14  C8        25.8430   -8.2640  -40.7580 C.ar    1  ZCT1        0.1990
     15  O5        26.6330   -9.1780  -41.4130 O.3     1  ZCT1       -0.2865
     16  C9        25.6820   -6.9660  -41.2510 C.ar    1  ZCT1        0.0454
     17  C14       23.8690   -9.5470  -37.1320 C.2     1  ZCT1        0.0366
     18  C13       23.6940   -8.1410  -37.6570 C.2     1  ZCT1        0.1966
     19  O7        22.9610   -7.3200  -37.0470 O.2     1  ZCT1       -0.2867
     20  C12       24.3800   -7.6980  -38.9200 C.ar    1  ZCT1        0.0837
     21  C11       24.2110   -6.3800  -39.4330 C.ar    1  ZCT1        0.1990
     22  O6        23.4180   -5.4400  -38.8010 O.3     1  ZCT1       -0.2865
     23  C10       24.8830   -6.0130  -40.6050 C.ar    1  ZCT1        0.0454
     24  C26       24.7260   -4.6570  -41.2440 C.ar    1  ZCT1        0.0454
     25  C27       23.8640   -4.5820  -42.3580 C.ar    1  ZCT1        0.1990
     26  O13       23.2250   -5.7140  -42.8030 O.3     1  ZCT1       -0.2865
     27  C28       23.6460   -3.3690  -43.0380 C.ar    1  ZCT1        0.0837
     28  C29       22.7290   -3.3200  -44.2340 C.2     1  ZCT1        0.1966
     29  O14       22.1540   -4.3610  -44.6350 O.2     1  ZCT1       -0.2867
     30  C25       25.3740   -3.5030  -40.7940 C.ar    1  ZCT1        0.0454
     31  C24       25.1500   -2.2890  -41.4670 C.ar    1  ZCT1        0.1990
     32  O12       25.7900   -1.1750  -41.0140 O.3     1  ZCT1       -0.2865
     33  C23       24.2930   -2.2080  -42.5910 C.ar    1  ZCT1        0.0837
     34  C22       24.0680   -0.8990  -43.3070 C.2     1  ZCT1        0.1948
     35  O11       24.6410    0.1320  -42.9100 O.2     1  ZCT1       -0.2868
     36  C21       23.1670   -0.7960  -44.4930 C.2     1  ZCT1        0.0199
     37  C30       22.4890   -2.0350  -44.9630 C.2     1  ZCT1        0.0366
     38  C31       21.5790   -1.9850  -46.1420 C.3     1  ZCT1        0.0955
     39  C32       20.1340   -2.0700  -45.6660 C.3     1  ZCT1        0.0299
     40  O10       21.7480   -0.7800  -46.9100 O.3     1  ZCT1       -0.3659
     41  C20       22.9400    0.5310  -45.2100 C.3     1  ZCT1        0.0532
     42  C19       21.7540    0.4750  -46.1900 C.3     1  ZCT1        0.0892
     43  C18       21.8290    1.6360  -47.2070 C.3     1  ZCT1        0.1375
     44  C17       20.4850    2.0750  -47.8010 C.2     1  ZCT1        0.3669
     45  O9        19.6770    2.6820  -47.0510 O.co2   1  ZCT1       -0.2456
     46  O8        20.2180    1.8490  -49.0180 O.co2   1  ZCT1       -0.2456
     47  H3        23.1200  -12.6190  -36.3890 H       1  ZCT1        0.0617
     48  H15       23.2100   -9.1540  -35.1810 H       1  ZCT1        0.0654
     49  H31       21.7760   -2.8520  -46.7890 H       1  ZCT1        0.0654
     50  H19       20.8260    0.5960  -45.6140 H       1  ZCT1        0.0617
@<TRIPOS>BOND
     1    46    44   ar
     2    44    43    1
     3    44    45   ar
     4    43    42    1
     5    40    42    1
     6    40    38    1
     7    49    38    1
     8    42    50    1
     9    42    41    1
    10    38    39    1
    11    38    37    1
    12    41    36    1
    13    37    36    2
    14    37    28    1
    15    29    28    2
    16    36    34    1
    17    28    27    1
    18    34    35    2
    19    34    33    1
    20    27    33   ar
    21    27    25   ar
    22    26    25    1
    23    33    31   ar
    24    25    24   ar
    25    31    32    1
    26    31    30   ar
    27    15    14    1
    28    16    14   ar
    29    16    23   ar
    30    24    30   ar
    31    24    23    1
    32    14    13   ar
    33    23    21   ar
    34    12    11    2
    35    13    11    1
    36    13    20   ar
    37    21    20   ar
    38    21    22    1
    39    11    10    1
    40    20    18    1
    41    10     9    1
    42    10    17    2
    43    18    17    1
    44    18    19    2
    45     9     5    1
    46    17     7    1
    47    47     5    1
    48     5     6    1
    49     5     4    1
    50     8     7    1
    51     7     6    1
    52     7    48    1
    53     4     2    1
    54     2     1   ar
    55     2     3   ar
