@<TRIPOS>MOLECULE
3b6b_DGI_A_1.pdb
 27 29 0 0 0
SMALL
GASTEIGER

@<TRIPOS>ATOM
      1  O1B      -11.0180   12.9080   21.5470 O.3   139  DGI139     -0.1143
      2  PB       -10.5480   14.2530   21.1200 P.3   139  DGI139      0.5373
      3  O2B       -8.9250   14.3750   21.2190 O.2   139  DGI139     -0.2221
      4  O3B      -11.1240   15.4280   22.0940 O.3   139  DGI139     -0.1143
      5  O3A      -10.9780   14.5990   19.5780 O.3   139  DGI139     -0.2261
      6  PA       -12.0430   15.8120   19.1380 P.3   139  DGI139      0.2231
      7  O1A      -11.8230   16.5530   17.8440 O.2   139  DGI139     -0.5169
      8  O2A      -13.6090   15.6740   19.6060 O.3   139  DGI139     -0.4370
      9  O5'      -12.5860   14.5820   18.2500 O.3   139  DGI139     -0.3111
     10  C5'      -13.3700   13.5110   18.8330 C.3   139  DGI139      0.1812
     11  C4'      -14.1960   12.7840   17.7830 C.3   139  DGI139      0.1772
     12  O4'      -15.3930   13.5200   17.5150 O.3   139  DGI139     -0.3347
     13  C3'      -13.5000   12.8020   16.4200 C.3   139  DGI139      0.1857
     14  O3'      -12.5330   11.7510   16.3320 O.3   139  DGI139     -0.2203
     15  C2'      -14.6680   12.5430   15.4780 C.3   139  DGI139      0.0865
     16  C1'      -15.9050   12.8520   16.3440 C.3   139  DGI139      0.1981
     17  N9       -16.8860   13.6130   15.5160 N.pl3 139  DGI139     -0.2374
     18  C8       -17.9170   13.0430   14.8910 C.3   139  DGI139      0.2245
     19  N7       -18.6110   13.9570   14.2240 N.2   139  DGI139     -0.2322
     20  C5       -18.0210   15.1280   14.4220 C.2   139  DGI139      0.2182
     21  C4       -16.9170   14.9220   15.2460 C.2   139  DGI139      0.2299
     22  N3       -16.1380   15.9600   15.6050 N.2   139  DGI139     -0.3074
     23  C2       -16.4130   17.2130   15.1810 C.1   139  DGI139      0.2531
     24  N2       -15.6320   18.2320   15.5430 N.pl3 139  DGI139     -0.0226
     25  N1       -17.5190   17.4680   14.3480 N.2   139  DGI139     -0.2485
     26  C6       -18.3290   16.4010   13.9660 C.1   139  DGI139      0.2372
     27  O6       -19.3030   16.5720   13.2400 O.2   139  DGI139     -0.2069
@<TRIPOS>BOND
     1    27    26    2
     2    26    25    2
     3    26    20    1
     4    19    20    2
     5    19    18    1
     6    25    23    2
     7    20    21    1
     8    18    17    1
     9    23    24    1
    10    23    22    2
    11    21    17    1
    12    21    22    2
    13    15    16    1
    14    15    13    1
    15    17    16    1
    16    14    13    1
    17    16    12    1
    18    13    11    1
    19    12    11    1
    20    11    10    1
    21     7     6    2
    22     9    10    1
    23     9     6    1
    24     6     5    1
    25     6     8    1
    26     5     2    1
    27     2     3    2
    28     2     1    1
    29     2     4    1
