@<TRIPOS>MOLECULE
3b6c_SDN_A_1.pdb
 22 24 0 0 0
SMALL
GASTEIGER

@<TRIPOS>ATOM
      1  O4       -24.1860   -5.0120   -1.4340 O.2   301  SDN301     -0.2909
      2  C11      -24.9890   -4.4860   -2.2210 C.2   301  SDN301      0.1802
      3  C12      -25.4020   -3.1870   -1.9830 C.2   301  SDN301      0.0700
      4  C13      -24.9110   -2.5170   -0.8840 C.2   301  SDN301      0.1957
      5  O5       -24.1160   -3.0990   -0.1420 O.2   301  SDN301     -0.2868
      6  C14      -25.3040   -1.2250   -0.6200 C.2   301  SDN301      0.0361
      7  C15      -24.7730   -0.4900    0.5640 C.3   301  SDN301      0.1394
      8  O3       -24.7720    0.9550    0.5220 O.3   301  SDN301     -0.3595
      9  C16      -24.2480   -1.2160    1.7650 C.3   301  SDN301      0.0371
     10  C10      -25.4660   -5.1840   -3.3220 C.3   301  SDN301      0.0952
     11  C9       -26.3620   -4.5570   -4.1790 C.2   301  SDN301     -0.0183
     12  C8       -26.7750   -3.2490   -3.9360 C.2   301  SDN301     -0.0079
     13  C7       -26.2970   -2.5560   -2.8340 C.2   301  SDN301     -0.0126
     14  C6       -26.6920   -1.2470   -2.5680 C.3   301  SDN301      0.0484
     15  C5       -26.1900   -0.5780   -1.4530 C.2   301  SDN301     -0.0364
     16  C4       -26.6190    0.8460   -1.1650 C.3   301  SDN301      0.0460
     17  C3       -26.0380    1.4740    0.1160 C.3   301  SDN301      0.0893
     18  C2       -27.0200    1.4230    1.2830 C.3   301  SDN301      0.1375
     19  C1       -26.6040    2.4030    2.3600 C.2   301  SDN301      0.3669
     20  O2       -27.4920    3.0190    2.9810 O.co2 301  SDN301     -0.2456
     21  O1       -25.3910    2.5600    2.6040 O.co2 301  SDN301     -0.2456
     22  H3       -26.0530    2.5710    0.0470 H     301  SDN301      0.0617
@<TRIPOS>BOND
     1    11    12    2
     2    11    10    1
     3    12    13    1
     4    10     2    1
     5    13    14    1
     6    13     3    2
     7    14    15    1
     8     2     3    1
     9     2     1    2
    10     3     4    1
    11    15    16    1
    12    15     6    2
    13    16    17    1
    14     4     6    1
    15     4     5    2
    16     6     7    1
    17    22    17    1
    18    17     8    1
    19    17    18    1
    20     8     7    1
    21     7     9    1
    22    18    19    1
    23    19    21   ar
    24    19    20   ar
