@<TRIPOS>MOLECULE
3b6h_MXD_A_1.pdb
 15 16 0 0 0
SMALL
GASTEIGER

@<TRIPOS>ATOM
      1  NAO       69.5840   51.1490   42.1660 N.pl3 551  MXD551      0.2123
      2  CAE       70.2790   52.2580   42.5390 C.2   551  MXD551      0.3784
      3  CAF       70.9610   53.0280   41.5990 C.2   551  MXD551      0.1417
      4  NAC       70.3300   52.6530   43.8930 N.4   551  MXD551     -0.2253
      5  OAN       69.7360   51.9920   44.7590 O.co2 551  MXD551     -0.6481
      6  CAA       71.0010   53.7550   44.2640 C.2   551  MXD551      0.3799
      7  NAM       71.0270   54.1320   45.5630 N.pl3 551  MXD551     -0.0516
      8  NAB       71.6620   54.4930   43.3510 N.2   551  MXD551     -0.3332
      9  CAD       71.6600   54.1560   42.0410 C.2   551  MXD551      0.1964
     10  NAI       72.3720   54.9820   41.1550 N.pl3 551  MXD551     -0.2833
     11  CAG       73.0980   56.1270   41.7100 C.3   551  MXD551      0.0931
     12  CAK       72.3510   54.6940   39.7230 C.3   551  MXD551      0.0931
     13  CAL       73.7980   54.7050   39.2280 C.3   551  MXD551      0.0216
     14  CAJ       74.5710   55.9490   39.6610 C.3   551  MXD551      0.0035
     15  CAH       73.7570   56.8770   40.5540 C.3   551  MXD551      0.0216
@<TRIPOS>UNITY_ATOM_ATTR
4 1
charge 1
5 1
charge -1
@<TRIPOS>BOND
     1    13    14    1
     2    13    12    1
     3    14    15    1
     4    12    10    1
     5    15    11    1
     6    10    11    1
     7    10     9    1
     8     3     9    1
     9     3     2    2
    10     9     8    2
    11     1     2    1
    12     2     4    1
    13     8     6    2
    14     4     6    1
    15     4     5    1
    16     6     7    1
