@<TRIPOS>MOLECULE
3b6h_HEM_A_1.pdb
 43 50 0 0 0
SMALL
GASTEIGER

@<TRIPOS>ATOM
      1 FE         70.7730   50.3590   45.7510 Fe    600  HEM600      0.0000
      2  CHA       73.6470   51.0820   43.9370 C.2   600  HEM600      0.0000
      3  CHB       69.9150   47.9840   43.4160 C.2   600  HEM600      0.0000
      4  CHC       67.6870   50.0980   47.1850 C.2   600  HEM600      0.0000
      5  CHD       71.8120   52.3840   48.2920 C.2   600  HEM600      0.0000
      6  NA        71.6360   49.6500   44.0060 N.ar  600  HEM600      0.0000
      7  C1A       72.7930   50.1320   43.4100 C.ar  600  HEM600      0.0000
      8  C2A       72.9730   49.4220   42.1620 C.ar  600  HEM600      0.0000
      9  C3A       71.9470   48.5640   42.0150 C.ar  600  HEM600      0.0000
     10  C4A       71.0800   48.6940   43.1730 C.ar  600  HEM600      0.0000
     11  CMA       71.6940   47.6020   40.8300 C.3   600  HEM600      0.0000
     12  CAA       74.1440   49.6630   41.1770 C.3   600  HEM600      0.0000
     13  CBA       73.7970   50.9350   40.4010 C.3   600  HEM600      0.0000
     14  CGA       74.7310   51.1910   39.2430 C.2   600  HEM600      0.0000
     15  O1A       75.8750   51.6440   39.4960 O.co2 600  HEM600      0.0000
     16  O2A       74.3210   50.9610   38.0720 O.co2 600  HEM600      0.0000
     17  NB        69.0950   49.2600   45.3490 N.2   600  HEM600      0.0000
     18  C1B       68.9620   48.2880   44.3710 C.2   600  HEM600      0.0000
     19  C2B       67.6640   47.6770   44.5250 C.2   600  HEM600      0.0000
     20  C3B       67.0470   48.2600   45.5670 C.2   600  HEM600      0.0000
     21  C4B       67.9410   49.2730   46.1030 C.2   600  HEM600      0.0000
     22  CMB       67.1260   46.5370   43.6320 C.3   600  HEM600      0.0000
     23  CAB       65.6390   47.9720   46.1420 C.2   600  HEM600      0.0000
     24  CBB       64.9720   46.8320   45.9390 C.2   600  HEM600      0.0000
     25  NC        69.9030   51.1090   47.4310 N.ar  600  HEM600      0.0000
     26  C1C       68.6160   50.8760   47.8490 C.ar  600  HEM600      0.0000
     27  C2C       68.4010   51.6170   49.0720 C.ar  600  HEM600      0.0000
     28  C3C       69.5420   52.2580   49.3840 C.ar  600  HEM600      0.0000
     29  C4C       70.5120   51.9430   48.3500 C.ar  600  HEM600      0.0000
     30  CMC       67.0670   51.6210   49.8490 C.3   600  HEM600      0.0000
     31  CAC       69.8360   53.1740   50.5980 C.2   600  HEM600      0.0000
     32  CBC       68.8630   53.8340   51.2340 C.2   600  HEM600      0.0000
     33  ND        72.4730   51.5140   46.0740 N.2   600  HEM600      0.0000
     34  C1D       72.6560   52.3120   47.2060 C.2   600  HEM600      0.0000
     35  C2D       73.8670   53.0790   47.0450 C.2   600  HEM600      0.0000
     36  C3D       74.4320   52.6780   45.6900 C.2   600  HEM600      0.0000
     37  C4D       73.5120   51.7000   45.1580 C.2   600  HEM600      0.0000
     38  CMD       74.4800   54.1120   48.0150 C.3   600  HEM600      0.0000
     39  CAD       75.7230   53.1990   45.0270 C.3   600  HEM600      0.0000
     40  CBD       75.3910   54.4950   44.2930 C.3   600  HEM600      0.0000
     41  CGD       76.6290   55.0400   43.6350 C.2   600  HEM600      0.0000
     42  O1D       76.9920   56.2080   43.9350 O.co2 600  HEM600      0.0000
     43  O2D       77.2480   54.3190   42.8080 O.co2 600  HEM600      0.0000
@<TRIPOS>BOND
     1    16    14   ar
     2    14    15   ar
     3    14    13    1
     4    13    12    1
     5    11     9    1
     6    12     8    1
     7     9     8   ar
     8     9    10   ar
     9     8     7   ar
    10    43    41   ar
    11    10     3    2
    12    10     6   ar
    13     7     2    2
    14     7     6   ar
    15     3    18    1
    16    22    19    1
    17    41    42   ar
    18    41    40    1
    19     2    37    1
    20     6     1    1
    21    40    39    1
    22    18    19    1
    23    18    17    2
    24    19    20    2
    25    39    36    1
    26    37    36    1
    27    37    33    2
    28    17     1    1
    29    17    21    1
    30    20    21    1
    31    20    23    1
    32    36    35    2
    33     1    33    1
    34     1    25    1
    35    24    23    2
    36    33    34    1
    37    21     4    2
    38    35    34    1
    39    35    38    1
    40     4    26    1
    41    34     5    2
    42    25    26   ar
    43    25    29   ar
    44    26    27   ar
    45     5    29    1
    46    29    28   ar
    47    27    28   ar
    48    27    30    1
    49    28    31    1
    50    31    32    2
