@<TRIPOS>MOLECULE
3b6i_FMN_A_1.pdb
 31 33 0 0 0
SMALL
GASTEIGER

@<TRIPOS>ATOM
      1  N1        11.0410   24.9190    5.9650 N.2   200  FMN200     -0.2890
      2  C2        11.6730   24.4720    4.8370 C.1   200  FMN200      0.3669
      3  O2        11.5660   23.3040    4.4660 O.2   200  FMN200     -0.1744
      4  N3        12.4930   25.3360    4.1310 N.2   200  FMN200     -0.2300
      5  C4        12.6060   26.6560    4.5210 C.1   200  FMN200      0.2513
      6  O4        13.3430   27.3990    3.8440 O.2   200  FMN200     -0.2057
      7  C4A       11.9090   27.1340    5.6420 C.2   200  FMN200      0.2700
      8  N5        11.9940   28.4540    6.0560 N.2   200  FMN200     -0.3878
      9  C5A       11.3010   28.8750    7.1720 C.2   200  FMN200      0.1320
     10  C6        11.3430   30.2050    7.5710 C.2   200  FMN200      0.0250
     11  C7        10.6260   30.6160    8.6950 C.2   200  FMN200     -0.0238
     12  C7M       10.7230   32.0480    9.1230 C.3   200  FMN200      0.0308
     13  C8         9.8710   29.7100    9.4380 C.2   200  FMN200     -0.0280
     14  C8M        9.1090   30.1230   10.6630 C.3   200  FMN200      0.0304
     15  C9         9.8200   28.3850    9.0330 C.2   200  FMN200     -0.0041
     16  C9A       10.5260   27.9600    7.9040 C.3   200  FMN200      0.1497
     17  N10       10.4860   26.6240    7.5150 N.pl3 200  FMN200     -0.2691
     18  C10       11.1310   26.2270    6.3710 C.2   200  FMN200      0.2416
     19  C1'       10.0810   25.5330    8.5020 C.3   200  FMN200      0.1294
     20  C2'       10.9700   25.3660    9.7430 C.3   200  FMN200      0.2044
     21  O2'       12.3130   25.0660    9.3430 O.3   200  FMN200     -0.2185
     22  C3'       10.3730   24.2390   10.5990 C.3   200  FMN200      0.2164
     23  O3'        9.1490   24.7040   11.1570 O.3   200  FMN200     -0.2175
     24  C4'       11.3520   23.7550   11.6590 C.3   200  FMN200      0.2147
     25  O4'       12.3200   22.9450   11.0240 O.3   200  FMN200     -0.2176
     26  C5'       10.7020   22.9220   12.7650 C.3   200  FMN200      0.1892
     27  O5'       11.7150   22.6210   13.7140 O.3   200  FMN200     -0.2674
     28  P         11.4880   22.8930   15.2640 P.3   200  FMN200      0.5327
     29  O1P       10.2260   22.0760   15.6350 O.3   200  FMN200     -0.1145
     30  O2P       12.6980   22.3550   15.9840 O.3   200  FMN200     -0.1145
     31  O3P       11.2440   24.3460   15.5300 O.2   200  FMN200     -0.2224
@<TRIPOS>BOND
     1     6     5    2
     2     4     5    2
     3     4     2    2
     4     3     2    2
     5     5     7    1
     6     2     1    2
     7     7     8    2
     8     7    18    1
     9     1    18    2
    10     8     9    2
    11    18    17    1
    12     9    10    1
    13     9    16    1
    14    17    16    1
    15    17    19    1
    16    10    11    2
    17    16    15    1
    18    19    20    1
    19    11    12    1
    20    11    13    1
    21    15    13    2
    22    21    20    1
    23    13    14    1
    24    20    22    1
    25    22    23    1
    26    22    24    1
    27    25    24    1
    28    24    26    1
    29    26    27    1
    30    27    28    1
    31    28    31    2
    32    28    29    1
    33    28    30    1
