@<TRIPOS>MOLECULE
3b6j_FMN_A_1.pdb
 31 33 0 0 0
SMALL
GASTEIGER

@<TRIPOS>ATOM
      1  N1        11.0870   24.9620    6.1100 N.2   200  FMN200     -0.2887
      2  C2        11.7360   24.4890    4.9770 C.1   200  FMN200      0.3669
      3  O2        11.5500   23.3480    4.5730 O.2   200  FMN200     -0.1744
      4  N3        12.6350   25.2900    4.2980 N.2   200  FMN200     -0.2300
      5  C4        12.8240   26.5960    4.7210 C.1   200  FMN200      0.2513
      6  O4        13.6450   27.2740    4.1060 O.2   200  FMN200     -0.2057
      7  C4A       12.0950   27.1170    5.8100 C.2   200  FMN200      0.2703
      8  N5        12.2450   28.4130    6.2450 N.2   200  FMN200     -0.3882
      9  C5A       11.5140   28.8810    7.3340 C.2   200  FMN200      0.1277
     10  C6        11.6270   30.2160    7.7230 C.3   200  FMN200      0.0820
     11  C7        10.8990   30.7040    8.8060 C.2   200  FMN200     -0.0408
     12  C7M       11.0470   32.1320    9.2370 C.3   200  FMN200      0.0265
     13  C8        10.0680   29.8520    9.5250 C.2   200  FMN200     -0.0280
     14  C8M        9.3260   30.4100   10.7140 C.3   200  FMN200      0.0304
     15  C9         9.9350   28.5180    9.1390 C.2   200  FMN200      0.0123
     16  C9A       10.6520   28.0280    8.0420 C.2   200  FMN200      0.0793
     17  N10       10.5540   26.7000    7.6450 N.pl3 200  FMN200     -0.2545
     18  C10       11.2500   26.2610    6.5200 C.2   200  FMN200      0.2449
     19  C1'       10.1840   25.5990    8.6250 C.3   200  FMN200      0.1336
     20  C2'       11.1520   25.2900    9.7900 C.3   200  FMN200      0.2048
     21  O2'       12.4710   24.9450    9.3590 O.3   200  FMN200     -0.2185
     22  C3'       10.5500   24.1350   10.6360 C.3   200  FMN200      0.2165
     23  O3'        9.2790   24.4950   11.1470 O.3   200  FMN200     -0.2175
     24  C4'       11.4640   23.7310   11.7830 C.3   200  FMN200      0.2147
     25  O4'       12.5090   22.9930   11.1840 O.3   200  FMN200     -0.2176
     26  C5'       10.8130   22.8430   12.8440 C.3   200  FMN200      0.1892
     27  O5'       11.8370   22.6040   13.7820 O.3   200  FMN200     -0.2674
     28  P         11.6440   22.9140   15.3370 P.3   200  FMN200      0.5327
     29  O1P       10.4010   22.2280   15.7730 O.3   200  FMN200     -0.1145
     30  O2P       12.8360   22.3320   16.0400 O.3   200  FMN200     -0.1145
     31  O3P       11.4200   24.3810   15.5540 O.2   200  FMN200     -0.2224
@<TRIPOS>BOND
     1     6     5    2
     2     4     5    2
     3     4     2    2
     4     3     2    2
     5     5     7    1
     6     2     1    2
     7     7     8    2
     8     7    18    1
     9     1    18    2
    10     8     9    2
    11    18    17    1
    12     9    10    1
    13     9    16    1
    14    17    16    1
    15    17    19    1
    16    10    11    1
    17    16    15    2
    18    19    20    1
    19    11    12    1
    20    11    13    2
    21    15    13    1
    22    21    20    1
    23    13    14    1
    24    20    22    1
    25    22    23    1
    26    22    24    1
    27    25    24    1
    28    24    26    1
    29    26    27    1
    30    27    28    1
    31    28    31    2
    32    28    29    1
    33    28    30    1
