@<TRIPOS>MOLECULE
3b6j_NAD_A_1.pdb
 44 48 0 0 0
SMALL
GASTEIGER

@<TRIPOS>ATOM
      1  PA         5.5110   31.6990   10.5590 P.3   201  NAD201      0.2189
      2  O1A        6.6740   32.4000    9.9530 O.3   201  NAD201     -0.4371
      3  O2A        4.2820   32.1020    9.8150 O.2   201  NAD201     -0.5170
      4  O5B        5.1820   31.9180   12.1390 O.3   201  NAD201     -0.3112
      5  C5B        6.0600   32.3210   13.1530 C.3   201  NAD201      0.1813
      6  C4B        5.4760   33.5380   13.8640 C.3   201  NAD201      0.1821
      7  O4B        6.4570   33.9990   14.7810 O.3   201  NAD201     -0.3135
      8  C3B        5.3040   34.7010   12.8930 C.3   201  NAD201      0.2184
      9  O3B        4.4780   35.6980   13.4610 O.3   201  NAD201     -0.2174
     10  C2B        6.7090   35.2620   12.7360 C.3   201  NAD201      0.2570
     11  O2B        6.7310   36.6310   12.3810 O.3   201  NAD201     -0.2130
     12  C1B        7.2580   35.0340   14.1410 C.3   201  NAD201      0.3186
     13  N9A        8.7050   34.7260   14.1860 N.pl3 201  NAD201     -0.1439
     14  C8A        9.3700   33.5960   13.7470 C.3   201  NAD201      0.3377
     15  N7A       10.6920   33.7540   14.0580 N.2   201  NAD201     -0.2095
     16  C5A       10.8620   34.9780   14.6690 C.2   201  NAD201      0.2526
     17  C6A       11.9710   35.6650   15.1810 C.2   201  NAD201      0.4393
     18  N6A       13.1850   35.0850   15.1790 N.pl3 201  NAD201      0.2180
     19  N1A       11.7980   36.9130   15.7580 N.2   201  NAD201      0.0021
     20  C2A       10.5630   37.5280   15.8230 C.3   201  NAD201      0.5254
     21  N3A        9.4760   36.8390   15.3160 N.2   201  NAD201     -0.0055
     22  C4A        9.6150   35.5930   14.7530 C.2   201  NAD201      0.3518
     23  O3         5.8450   30.1250   10.4960 O.3   201  NAD201     -0.2703
     24  PN         5.5020   28.9430   11.5670 P.3   201  NAD201      0.2189
     25  O1N        5.7010   29.4300   12.9470 O.3   201  NAD201     -0.4371
     26  O2N        6.2400   27.7110   11.1150 O.2   201  NAD201     -0.5170
     27  O5D        3.9140   28.7060   11.3010 O.3   201  NAD201     -0.3112
     28  C5D        2.9280   29.7300   11.2870 C.3   201  NAD201      0.1813
     29  C4D        1.6170   29.2610   11.9170 C.3   201  NAD201      0.1799
     30  O4D        1.5590   27.8350   11.9890 O.3   201  NAD201     -0.3327
     31  C3D        1.5010   29.8270   13.3370 C.3   201  NAD201      0.2158
     32  O3D        0.2360   30.4450   13.5400 O.3   201  NAD201     -0.2175
     33  C2D        1.6750   28.6130   14.2400 C.3   201  NAD201      0.2309
     34  O2D        0.7710   28.6110   15.3260 O.3   201  NAD201     -0.2158
     35  C1D        1.3710   27.4150   13.3440 C.3   201  NAD201      0.2263
     36  N1N        2.1670   26.2290   13.7600 N.pl3 201  NAD201     -0.2787
     37  C2N        3.2240   25.8030   13.0020 C.3   201  NAD201      0.1244
     38  C3N        3.9580   24.6880   13.4000 C.2   201  NAD201      0.0544
     39  C7N        5.1850   24.2910   12.6310 C.2   201  NAD201      0.2818
     40  O7N        6.0810   23.3450   13.1920 O.2   201  NAD201     -0.2670
     41  N7N        5.3830   24.8490   11.4330 N.am  201  NAD201     -0.0839
     42  C4N        3.6000   24.0090   14.5640 C.2   201  NAD201      0.0033
     43  C5N        2.5190   24.4460   15.3310 C.2   201  NAD201      0.0157
     44  C6N        1.8130   25.5670   14.9130 C.2   201  NAD201      0.0633
@<TRIPOS>BOND
     1     3     1    2
     2     2     1    1
     3    23     1    1
     4    23    24    1
     5     1     4    1
     6    26    24    2
     7    28    27    1
     8    28    29    1
     9    27    24    1
    10    41    39   am
    11    24    25    1
    12    29    30    1
    13    29    31    1
    14    30    35    1
    15     4     5    1
    16    11    10    1
    17    39    40    2
    18    39    38    1
    19    10     8    1
    20    10    12    1
    21     8     9    1
    22     8     6    1
    23    37    38    1
    24    37    36    1
    25     5     6    1
    26    31    32    1
    27    31    33    1
    28    35    36    1
    29    35    33    1
    30    38    42    2
    31    14    15    1
    32    14    13    1
    33    36    44    1
    34     6     7    1
    35    15    16    2
    36    12    13    1
    37    12     7    1
    38    13    22    1
    39    33    34    1
    40    42    43    1
    41    16    22    1
    42    16    17    1
    43    22    21    2
    44    44    43    2
    45    18    17    1
    46    17    19    2
    47    21    20    1
    48    19    20    1
