@<TRIPOS>MOLECULE
3b6j_AMP_B_1.pdb
 23 25 0 0 0
SMALL
GASTEIGER

@<TRIPOS>ATOM
      1  P         56.3760   30.0560   12.0120 P.3   202  AMP202      0.5327
      2  O1P       55.6730   28.7560   12.3310 O.3   202  AMP202     -0.1145
      3  O2P       56.9620   30.7020   13.2670 O.3   202  AMP202     -0.1145
      4  O3P       57.3170   30.0540   10.7960 O.2   202  AMP202     -0.2224
      5  O5'       55.1330   30.9950   11.5620 O.3   202  AMP202     -0.2675
      6  C5'       54.2160   30.6760   10.5010 C.3   202  AMP202      0.1860
      7  C4'       52.7750   31.1100   10.8270 C.3   202  AMP202      0.1823
      8  O4'       52.2260   30.3160   11.8770 O.3   202  AMP202     -0.3135
      9  C3'       52.5510   32.5520   11.3000 C.3   202  AMP202      0.2184
     10  O3'       51.3190   32.9860   10.7050 O.3   202  AMP202     -0.2174
     11  C2'       52.3660   32.5070   12.8080 C.3   202  AMP202      0.2570
     12  O2'       51.5670   33.6160   13.2390 O.3   202  AMP202     -0.2130
     13  C1'       51.6440   31.1670   12.8960 C.3   202  AMP202      0.3186
     14  N9        51.5810   30.4300   14.1940 N.pl3 202  AMP202     -0.1439
     15  C8        50.5240   30.4580   15.0340 C.3   202  AMP202      0.3377
     16  N7        50.7320   29.6440   16.1000 N.2   202  AMP202     -0.2095
     17  C5        51.9460   29.0540   15.9500 C.2   202  AMP202      0.2526
     18  C6        52.8070   28.0820   16.7170 C.2   202  AMP202      0.4393
     19  N6        52.3840   27.5380   17.9080 N.pl3 202  AMP202      0.2180
     20  N1        54.0340   27.7410   16.2000 N.2   202  AMP202      0.0021
     21  C2        54.4700   28.2560   15.0340 C.3   202  AMP202      0.5254
     22  N3        53.7340   29.1400   14.3010 N.2   202  AMP202     -0.0055
     23  C4        52.4980   29.5750   14.6830 C.2   202  AMP202      0.3518
@<TRIPOS>BOND
     1     6     7    1
     2     6     5    1
     3    10     9    1
     4     4     1    2
     5     7     9    1
     6     7     8    1
     7     9    11    1
     8     5     1    1
     9     8    13    1
    10     1     2    1
    11     1     3    1
    12    11    13    1
    13    11    12    1
    14    13    14    1
    15    14    23    1
    16    14    15    1
    17    22    23    2
    18    22    21    1
    19    23    17    1
    20    15    16    1
    21    21    20    1
    22    17    16    2
    23    17    18    1
    24    20    18    2
    25    18    19    1
