@<TRIPOS>MOLECULE
3b6k_FMN_A_1.pdb
 31 33 0 0 0
SMALL
GASTEIGER

@<TRIPOS>ATOM
      1  N1        10.9130   24.8590    5.9770 N.2   200  FMN200     -0.2890
      2  C2        11.5730   24.4240    4.8330 C.1   200  FMN200      0.3669
      3  O2        11.4960   23.2670    4.4560 O.2   200  FMN200     -0.1744
      4  N3        12.3910   25.2770    4.1080 N.2   200  FMN200     -0.2300
      5  C4        12.4630   26.6070    4.5390 C.1   200  FMN200      0.2513
      6  O4        13.1830   27.4070    3.9100 O.2   200  FMN200     -0.2057
      7  C4A       11.7620   27.0900    5.6550 C.2   200  FMN200      0.2700
      8  N5        11.8610   28.4240    6.0530 N.2   200  FMN200     -0.3878
      9  C5A       11.1820   28.8820    7.1340 C.2   200  FMN200      0.1320
     10  C6        11.2030   30.2180    7.5100 C.2   200  FMN200      0.0250
     11  C7        10.4800   30.6530    8.6240 C.2   200  FMN200     -0.0238
     12  C7M       10.5860   32.0950    8.9990 C.3   200  FMN200      0.0308
     13  C8         9.7450   29.7360    9.3770 C.2   200  FMN200     -0.0280
     14  C8M        8.9380   30.0660   10.5960 C.3   200  FMN200      0.0304
     15  C9         9.7180   28.4110    8.9830 C.2   200  FMN200     -0.0041
     16  C9A       10.4290   27.9640    7.8680 C.3   200  FMN200      0.1497
     17  N10       10.3820   26.6100    7.5020 N.pl3 200  FMN200     -0.2691
     18  C10       11.0080   26.1750    6.3760 C.2   200  FMN200      0.2416
     19  C1'        9.9750   25.5310    8.4780 C.3   200  FMN200      0.1294
     20  C2'       10.8640   25.2620    9.6990 C.3   200  FMN200      0.2044
     21  O2'       12.1910   24.9440    9.3280 O.3   200  FMN200     -0.2185
     22  C3'       10.2270   24.1270   10.5390 C.3   200  FMN200      0.2164
     23  O3'        9.0220   24.6490   11.0960 O.3   200  FMN200     -0.2175
     24  C4'       11.2030   23.6860   11.6300 C.3   200  FMN200      0.2147
     25  O4'       12.1010   22.8110   11.0100 O.3   200  FMN200     -0.2176
     26  C5'       10.5850   22.8850   12.7520 C.3   200  FMN200      0.1892
     27  O5'       11.6150   22.6250   13.6850 O.3   200  FMN200     -0.2674
     28  P         11.4050   22.9420   15.2420 P.3   200  FMN200      0.5327
     29  O1P       10.1350   22.1980   15.5910 O.3   200  FMN200     -0.1145
     30  O2P       12.5780   22.3600   15.9560 O.3   200  FMN200     -0.1145
     31  O3P       11.1280   24.4010   15.4700 O.2   200  FMN200     -0.2224
@<TRIPOS>BOND
     1     6     5    2
     2     4     5    2
     3     4     2    2
     4     3     2    2
     5     5     7    1
     6     2     1    2
     7     7     8    2
     8     7    18    1
     9     1    18    2
    10     8     9    2
    11    18    17    1
    12     9    10    1
    13     9    16    1
    14    17    16    1
    15    17    19    1
    16    10    11    2
    17    16    15    1
    18    19    20    1
    19    11    12    1
    20    11    13    1
    21    15    13    2
    22    21    20    1
    23    13    14    1
    24    20    22    1
    25    22    23    1
    26    22    24    1
    27    25    24    1
    28    24    26    1
    29    26    27    1
    30    27    28    1
    31    28    31    2
    32    28    29    1
    33    28    30    1
