@<TRIPOS>MOLECULE
3b6l_SDS_A_1.pdb
 17 16 0 0 0
SMALL
GASTEIGER

@<TRIPOS>ATOM
      1  S         26.5410   40.0350   64.9950 S.3   2300  SDS2300    -0.0001
      2  O1S       25.1910   39.4840   65.2560 O.2   2300  SDS2300    -0.3452
      3  O2S       26.4900   41.5760   64.7250 O.3   2300  SDS2300    -0.2412
      4  O3S       27.1020   39.3380   63.8310 O.2   2300  SDS2300    -0.3452
      5  O4        27.3730   39.7730   66.1970 O.3   2300  SDS2300    -0.2682
      6  C1        27.5220   42.4050   65.2580 C.3   2300  SDS2300     0.1725
      7  C2        27.6600   52.1060   62.1540 C.3   2300  SDS2300     0.0000
      8  C3        28.1520   50.9730   61.2620 C.3   2300  SDS2300     0.0003
      9  C4        27.1860   49.8290   61.0020 C.3   2300  SDS2300     0.0047
     10  C5        27.3790   49.1210   59.6490 C.3   2300  SDS2300     0.0260
     11  C6        26.4000   48.0450   59.1460 C.2   2300  SDS2300    -0.0261
     12  C7        26.1780   46.7530   59.9950 C.2   2300  SDS2300    -0.0049
     13  C8        26.7590   46.6800   61.4260 C.2   2300  SDS2300    -0.0049
     14  C9        27.6630   45.6130   61.9380 C.2   2300  SDS2300    -0.0261
     15  C10       28.0390   45.6430   63.4100 C.3   2300  SDS2300     0.0261
     16  C11       28.1930   44.3010   64.1250 C.3   2300  SDS2300     0.0073
     17  C12       27.0960   43.8700   65.1020 C.3   2300  SDS2300     0.0350
@<TRIPOS>BOND
     1    11    10    1
     2    11    12    2
     3    10     9    1
     4    12    13    1
     5     9     8    1
     6     8     7    1
     7    13    14    2
     8    14    15    1
     9    15    16    1
    10     4     1    2
    11    16    17    1
    12     3     1    1
    13     3     6    1
    14     1     2    2
    15     1     5    1
    16    17     6    1
