@<TRIPOS>MOLECULE
3b6m_FMN_A_1.pdb
 31 33 0 0 0
SMALL
GASTEIGER

@<TRIPOS>ATOM
      1  N1        17.2900    5.4730   11.9160 N.2   200  FMN200     -0.2890
      2  C2        18.3310    6.3720   11.6980 C.1   200  FMN200      0.3669
      3  O2        18.9230    6.9610   12.6050 O.2   200  FMN200     -0.1744
      4  N3        18.7170    6.6570   10.4060 N.2   200  FMN200     -0.2300
      5  C4        18.1040    6.0010    9.3600 C.1   200  FMN200      0.2513
      6  O4        18.4510    6.2600    8.2050 O.2   200  FMN200     -0.2057
      7  C4A       17.0970    5.0750    9.5580 C.2   200  FMN200      0.2700
      8  N5        16.5000    4.4320    8.4890 N.2   200  FMN200     -0.3878
      9  C5A       15.4830    3.4930    8.7290 C.2   200  FMN200      0.1320
     10  C6        14.8890    2.8080    7.6730 C.2   200  FMN200      0.0250
     11  C7        13.8540    1.8890    7.8870 C.2   200  FMN200     -0.0238
     12  C7M       13.2570    1.2150    6.6790 C.3   200  FMN200      0.0308
     13  C8        13.4090    1.6110    9.2060 C.2   200  FMN200     -0.0280
     14  C8M       12.2840    0.6350    9.5210 C.3   200  FMN200      0.0304
     15  C9        14.0020    2.3000   10.2560 C.2   200  FMN200     -0.0041
     16  C9A       15.0310    3.2520   10.0370 C.3   200  FMN200      0.1497
     17  N10       15.6230    3.9450   11.1100 N.pl3 200  FMN200     -0.2691
     18  C10       16.6680    4.8290   10.8730 C.2   200  FMN200      0.2416
     19  C1'       15.0420    3.9810   12.5090 C.3   200  FMN200      0.1294
     20  C2'       13.7570    4.8120   12.5410 C.3   200  FMN200      0.2044
     21  O2'       13.9470    6.2200   12.2310 O.3   200  FMN200     -0.2185
     22  C3'       13.1310    4.5890   13.9170 C.3   200  FMN200      0.2164
     23  O3'       12.7260    3.2150   14.0350 O.3   200  FMN200     -0.2175
     24  C4'       11.9360    5.5380   14.0070 C.3   200  FMN200      0.2147
     25  O4'       12.4460    6.8320   14.1960 O.3   200  FMN200     -0.2176
     26  C5'       10.9830    5.1540   15.1180 C.3   200  FMN200      0.1892
     27  O5'        9.8740    6.0270   15.0860 O.3   200  FMN200     -0.2674
     28  P          8.4300    5.4770   15.2890 P.3   200  FMN200      0.5327
     29  O1P        8.4360    4.7380   16.6030 O.3   200  FMN200     -0.1145
     30  O2P        7.5630    6.6850   15.4450 O.3   200  FMN200     -0.1145
     31  O3P        8.0800    4.6080   14.1110 O.2   200  FMN200     -0.2224
@<TRIPOS>BOND
     1    12    11    1
     2    10    11    2
     3    10     9    1
     4    11    13    1
     5     6     5    2
     6     8     9    2
     7     8     7    2
     8     9    16    1
     9    13    14    1
    10    13    15    2
    11     5     7    1
    12     5     4    2
    13     7    18    1
    14    16    15    1
    15    16    17    1
    16     4     2    2
    17    18    17    1
    18    18     1    2
    19    17    19    1
    20     2     1    2
    21     2     3    2
    22    21    20    1
    23    19    20    1
    24    20    22    1
    25    22    24    1
    26    22    23    1
    27    24    25    1
    28    24    26    1
    29    31    28    2
    30    27    26    1
    31    27    28    1
    32    28    30    1
    33    28    29    1
