@<TRIPOS>MOLECULE
3b6o_TMP_A_1.pdb
 21 22 0 0 0
SMALL
GASTEIGER

@<TRIPOS>ATOM
      1  P         23.7180   -7.7100    7.0800 P.3   1000  TMP1000     0.5327
      2  O1P       22.8550   -8.4600    6.0930 O.2   1000  TMP1000    -0.2224
      3  O2P       24.5480   -8.5370    8.0310 O.3   1000  TMP1000    -0.1145
      4  O3P       24.6030   -6.7850    6.3420 O.3   1000  TMP1000    -0.1145
      5  O5'       22.6970   -6.8320    7.9640 O.3   1000  TMP1000    -0.2675
      6  C5'       23.1220   -5.6900    8.7060 C.3   1000  TMP1000     0.1858
      7  C4'       22.6670   -5.7810   10.1610 C.3   1000  TMP1000     0.1774
      8  O4'       21.2860   -6.1550   10.2870 O.3   1000  TMP1000    -0.3339
      9  C3'       23.4440   -6.8340   10.9270 C.3   1000  TMP1000     0.1857
     10  O3'       24.6430   -6.2830   11.4660 O.3   1000  TMP1000    -0.2203
     11  C2'       22.4880   -7.2820   12.0160 C.3   1000  TMP1000     0.0874
     12  C1'       21.1020   -6.9910   11.4450 C.3   1000  TMP1000     0.2090
     13  N1        20.4480   -8.2720   11.1160 N.am  1000  TMP1000    -0.1794
     14  C2        19.6940   -8.9660   12.1110 C.1   1000  TMP1000     0.2844
     15  O2        19.5690   -8.4950   13.2670 O.2   1000  TMP1000    -0.1918
     16  N3        19.0960  -10.1390   11.8370 N.2   1000  TMP1000    -0.2455
     17  C4        19.1910  -10.7010   10.6240 C.1   1000  TMP1000     0.2134
     18  O4        18.6240  -11.7950   10.3950 O.2   1000  TMP1000    -0.2088
     19  C5        19.9760  -10.0070    9.5650 C.2   1000  TMP1000     0.0891
     20  C5M       20.1160  -10.5890    8.1790 C.3   1000  TMP1000     0.0462
     21  C6        20.5780   -8.7950    9.8810 C.2   1000  TMP1000     0.0877
@<TRIPOS>BOND
     1     2     1    2
     2     4     1    1
     3     1     5    1
     4     1     3    1
     5     5     6    1
     6    20    19    1
     7     6     7    1
     8    19    21    2
     9    19    17    1
    10    21    13    1
    11     7     8    1
    12     7     9    1
    13     8    12    1
    14    18    17    2
    15    17    16    2
    16     9    10    1
    17     9    11    1
    18    13    12    1
    19    13    14   am
    20    12    11    1
    21    16    14    2
    22    14    15    2
