@<TRIPOS>MOLECULE
3b6p_TMP_A_1.pdb
 21 22 0 0 0
SMALL
GASTEIGER

@<TRIPOS>ATOM
      1  P         23.7260   -7.9040    7.0180 P.3   1000  TMP1000     0.5327
      2  O1P       22.9020   -8.7460    6.0710 O.2   1000  TMP1000    -0.2224
      3  O2P       24.5830   -8.6290    8.0260 O.3   1000  TMP1000    -0.1145
      4  O3P       24.6020   -7.0280    6.2060 O.3   1000  TMP1000    -0.1145
      5  O5'       22.6880   -6.9830    7.8410 O.3   1000  TMP1000    -0.2675
      6  C5'       23.1180   -5.7880    8.4940 C.3   1000  TMP1000     0.1858
      7  C4'       22.7540   -5.8080    9.9770 C.3   1000  TMP1000     0.1774
      8  O4'       21.3820   -6.1720   10.1750 O.3   1000  TMP1000    -0.3339
      9  C3'       23.5720   -6.8140   10.7710 C.3   1000  TMP1000     0.1857
     10  O3'       24.7660   -6.2300   11.2910 O.3   1000  TMP1000    -0.2203
     11  C2'       22.6460   -7.2360   11.8940 C.3   1000  TMP1000     0.0874
     12  C1'       21.2420   -6.9840   11.3500 C.3   1000  TMP1000     0.2090
     13  N1        20.5990   -8.2800   11.0610 N.am  1000  TMP1000    -0.1794
     14  C2        19.8740   -8.9480   12.0880 C.1   1000  TMP1000     0.2844
     15  O2        19.7760   -8.4350   13.2260 O.2   1000  TMP1000    -0.1918
     16  N3        19.2800  -10.1330   11.8660 N.2   1000  TMP1000    -0.2455
     17  C4        19.3520  -10.7300   10.6690 C.1   1000  TMP1000     0.2134
     18  O4        18.7910  -11.8330   10.4870 O.2   1000  TMP1000    -0.2088
     19  C5        20.1070  -10.0620    9.5720 C.2   1000  TMP1000     0.0891
     20  C5M       20.2240  -10.6850    8.2030 C.3   1000  TMP1000     0.0462
     21  C6        20.7080   -8.8360    9.8390 C.2   1000  TMP1000     0.0877
@<TRIPOS>BOND
     1     2     1    2
     2     4     1    1
     3     1     5    1
     4     1     3    1
     5     5     6    1
     6    20    19    1
     7     6     7    1
     8    19    21    2
     9    19    17    1
    10    21    13    1
    11     7     8    1
    12     7     9    1
    13     8    12    1
    14    18    17    2
    15    17    16    2
    16     9    10    1
    17     9    11    1
    18    13    12    1
    19    13    14   am
    20    12    11    1
    21    16    14    2
    22    14    15    2
