@<TRIPOS>MOLECULE
3b6q_GLU_A_1.pdb
 10 9 0 0 0
SMALL
GASTEIGER

@<TRIPOS>ATOM
      1  N        -22.1880  -20.0040   21.3720 N.3   801  GLU801     -0.1208
      2  CA       -23.3410  -20.1400   22.3280 C.3   801  GLU801      0.1949
      3  C        -23.5330  -21.6000   22.6350 C.2   801  GLU801      0.3819
      4  O        -24.4010  -22.0060   23.3990 O.co2 801  GLU801     -0.2441
      5  CB       -24.6470  -19.5770   21.7270 C.3   801  GLU801      0.0424
      6  CG       -24.8430  -18.0880   21.8850 C.3   801  GLU801      0.1161
      7  CD       -25.1510  -17.6480   23.3290 C.2   801  GLU801      0.3649
      8  OE1      -25.1090  -16.4100   23.5980 O.co2 801  GLU801     -0.2457
      9  OE2      -25.4220  -18.5120   24.1910 O.co2 801  GLU801     -0.2457
     10  OXT      -22.7890  -22.4120   22.0960 O.co2 801  GLU801     -0.2441
@<TRIPOS>BOND
     1     1     2    1
     2     5     6    1
     3     5     2    1
     4     6     7    1
     5    10     3   ar
     6     2     3    1
     7     3     4   ar
     8     7     8   ar
     9     7     9   ar
