@<TRIPOS>MOLECULE
3b6r_ADP_B_1.pdb
 27 29 0 0 0
SMALL
GASTEIGER

@<TRIPOS>ATOM
      1  PB       -53.6330    7.9480    8.9670 P.3   601  ADP601      0.5373
      2  O1B      -54.1050    8.9040    8.3180 O.2   601  ADP601     -0.2221
      3  O2B      -54.1010    6.9690    8.5470 O.3   601  ADP601     -0.1143
      4  O3B      -52.3430    7.9730    9.0210 O.3   601  ADP601     -0.1143
      5  PA       -54.3810    7.1650   11.7620 P.3   601  ADP601      0.2231
      6  O1A      -55.5320    7.2610   12.3330 O.3   601  ADP601     -0.4370
      7  O2A      -53.8430    6.1240   11.4360 O.2   601  ADP601     -0.5169
      8  O3A      -54.2130    8.1550   10.6440 O.3   601  ADP601     -0.2261
      9  O5'      -53.4760    7.9060   12.5810 O.3   601  ADP601     -0.3111
     10  C5'      -52.1000    8.1820   12.5120 C.3   601  ADP601      0.1813
     11  C4'      -51.5140    9.3040   13.3810 C.3   601  ADP601      0.1821
     12  O4'      -51.7280   10.5570   13.0120 O.3   601  ADP601     -0.3135
     13  C3'      -51.9160    9.3280   14.8080 C.3   601  ADP601      0.2184
     14  O3'      -50.7710    9.3540   15.5650 O.3   601  ADP601     -0.2174
     15  C2'      -52.7230   10.5100   14.9920 C.3   601  ADP601      0.2570
     16  O2'      -52.5930   11.0170   16.2490 O.3   601  ADP601     -0.2130
     17  C1'      -52.1930   11.3530   13.9760 C.3   601  ADP601      0.3186
     18  N9       -53.1230   12.3540   13.5740 N.pl3 601  ADP601     -0.1439
     19  C8       -54.1020   12.2000   12.8260 C.3   601  ADP601      0.3377
     20  N7       -54.7970   13.2500   12.6040 N.2   601  ADP601     -0.2095
     21  C5       -54.2720   14.1640   13.2220 C.2   601  ADP601      0.2526
     22  C6       -54.5020   15.5570   13.4220 C.2   601  ADP601      0.4393
     23  N6       -55.5020   16.1250   12.8510 N.pl3 601  ADP601      0.2180
     24  N1       -53.7030   16.2170   14.1720 N.2   601  ADP601      0.0021
     25  C2       -52.7140   15.6560   14.7380 C.3   601  ADP601      0.5254
     26  N3       -52.4260   14.4050   14.6180 N.2   601  ADP601     -0.0055
     27  C4       -53.1400   13.5760   13.8830 C.2   601  ADP601      0.3518
@<TRIPOS>BOND
     1     2     1    2
     2     3     1    1
     3     1     4    1
     4     1     8    1
     5     8     5    1
     6     7     5    2
     7     5     6    1
     8     5     9    1
     9    10     9    1
    10    10    11    1
    11    20    19    1
    12    20    21    2
    13    19    18    1
    14    23    22    1
    15    12    11    1
    16    12    17    1
    17    21    22    1
    18    21    27    1
    19    11    13    1
    20    22    24    2
    21    18    27    1
    22    18    17    1
    23    27    26    2
    24    17    15    1
    25    24    25    1
    26    26    25    1
    27    13    15    1
    28    13    14    1
    29    15    16    1
