@<TRIPOS>MOLECULE
3b6t_QUS_A_1.pdb
 13 13 0 0 0
SMALL
GASTEIGER

@<TRIPOS>ATOM
      1  C01       23.6160  -21.6280  -22.6940 C.2   801  QUS801      0.3838
      2  C02       23.5300  -20.1960  -22.2950 C.3   801  QUS801      0.2184
      3  C03       24.9150  -19.7390  -21.7440 C.3   801  QUS801      0.1793
      4  C04       25.3310  -17.8210  -23.4020 C.1   801  QUS801      0.3141
      5  C05       24.6680  -16.2320  -22.2130 C.1   801  QUS801      0.4071
      6  NP3       22.4170  -20.0530  -21.3640 N.3   801  QUS801     -0.1188
      7  N14       25.0560  -18.3890  -22.2550 N.am  801  QUS801     -0.0527
      8  N15       25.2070  -16.4610  -23.4280 N.2   801  QUS801     -0.2120
      9  O16       22.8750  -22.4740  -22.1840 O.co2 801  QUS801     -0.2440
     10  O17       24.4360  -21.9490  -23.5300 O.co2 801  QUS801     -0.2440
     11  O18       25.7210  -18.5210  -24.3870 O.2   801  QUS801     -0.1893
     12  O19       24.3300  -14.9190  -21.6840 O.2   801  QUS801     -0.1667
     13  O20       24.5940  -17.3360  -21.4380 O.3   801  QUS801     -0.2752
@<TRIPOS>BOND
     1    11     4    2
     2    10     1   ar
     3     8     4    2
     4     8     5    2
     5     4     7   am
     6     1     2    1
     7     1     9   ar
     8     2     3    1
     9     2     6    1
    10     7     3    1
    11     7    13    1
    12     5    12    2
    13     5    13    1
