@<TRIPOS>MOLECULE
3b6u_ADP_A_1.pdb
 27 29 0 0 0
SMALL
GASTEIGER

@<TRIPOS>ATOM
      1  PB        22.9640   37.4770   42.6750 P.3   402  ADP402      0.5373
      2  O1B       22.3790   36.3390   41.9300 O.2   402  ADP402     -0.2221
      3  O2B       21.9560   38.4980   43.1140 O.3   402  ADP402     -0.1143
      4  O3B       23.9470   37.0750   43.7520 O.3   402  ADP402     -0.1143
      5  PA        24.1160   38.1540   40.0750 P.3   402  ADP402      0.2231
      6  O1A       22.8100   38.5660   39.4100 O.2   402  ADP402     -0.5169
      7  O2A       24.7460   36.8500   39.7850 O.3   402  ADP402     -0.4370
      8  O3A       23.9260   38.3280   41.6780 O.3   402  ADP402     -0.2261
      9  O5'       25.2960   39.2480   39.8100 O.3   402  ADP402     -0.3111
     10  C5'       24.9840   40.6340   39.8090 C.3   402  ADP402      0.1813
     11  C4'       25.6760   41.3060   38.6140 C.3   402  ADP402      0.1821
     12  O4'       27.1080   41.1230   38.7200 O.3   402  ADP402     -0.3135
     13  C3'       25.2120   40.6800   37.3160 C.3   402  ADP402      0.2184
     14  O3'       25.1590   41.6610   36.2640 O.3   402  ADP402     -0.2174
     15  C2'       26.2630   39.6440   37.0270 C.3   402  ADP402      0.2570
     16  O2'       26.3570   39.3000   35.6300 O.3   402  ADP402     -0.2130
     17  C1'       27.5040   40.3400   37.5960 C.3   402  ADP402      0.3186
     18  N9        28.5150   39.4190   38.1020 N.pl3 402  ADP402     -0.1439
     19  C8        28.3690   38.5720   39.1390 C.3   402  ADP402      0.3377
     20  N7        29.4910   37.8630   39.3350 N.2   402  ADP402     -0.2095
     21  C5        30.3720   38.2370   38.4030 C.2   402  ADP402      0.2526
     22  C6        31.7590   37.8800   38.0450 C.2   402  ADP402      0.4393
     23  N6        32.4870   36.9630   38.7210 N.pl3 402  ADP402      0.2180
     24  N1        32.3130   38.5190   36.9840 N.2   402  ADP402      0.0021
     25  C2        31.6290   39.4580   36.2730 C.3   402  ADP402      0.5254
     26  N3        30.3680   39.8390   36.5410 N.2   402  ADP402     -0.0055
     27  C4        29.7160   39.2770   37.5880 C.2   402  ADP402      0.3518
@<TRIPOS>BOND
     1    16    15    1
     2    14    13    1
     3    25    26    1
     4    25    24    1
     5    26    27    2
     6    24    22    2
     7    15    13    1
     8    15    17    1
     9    13    11    1
    10    27    18    1
    11    27    21    1
    12    17    18    1
    13    17    12    1
    14    22    21    1
    15    22    23    1
    16    18    19    1
    17    21    20    2
    18    11    12    1
    19    11    10    1
    20    19    20    1
    21     6     5    2
    22     7     5    1
    23    10     9    1
    24     9     5    1
    25     5     8    1
    26     8     1    1
    27     2     1    2
    28     1     3    1
    29     1     4    1
