@<TRIPOS>MOLECULE
3b6v_ADP_A_1.pdb
 27 29 0 0 0
SMALL
GASTEIGER

@<TRIPOS>ATOM
      1  PB       -14.1320    5.9410   17.0560 P.3   1001  ADP1001     0.5373
      2  O1B      -14.0500    4.7030   16.2020 O.2   1001  ADP1001    -0.2221
      3  O2B      -13.6710    7.1540   16.3050 O.3   1001  ADP1001    -0.1143
      4  O3B      -15.4570    6.1290   17.7710 O.3   1001  ADP1001    -0.1143
      5  PA       -13.4040    5.5810   19.8170 P.3   1001  ADP1001     0.2231
      6  O1A      -13.9940    6.8900   20.2670 O.3   1001  ADP1001    -0.4370
      7  O2A      -14.1800    4.3140   20.1180 O.2   1001  ADP1001    -0.5169
      8  O3A      -13.0260    5.6970   18.2320 O.3   1001  ADP1001    -0.2261
      9  O5'      -11.9610    5.4390   20.5340 O.3   1001  ADP1001    -0.3111
     10  C5'      -11.0640    4.3710   20.2180 C.3   1001  ADP1001     0.1813
     11  C4'      -10.4760    3.7020   21.4740 C.3   1001  ADP1001     0.1821
     12  O4'       -9.4210    4.4890   22.0280 O.3   1001  ADP1001    -0.3135
     13  C3'      -11.4880    3.5590   22.5960 C.3   1001  ADP1001     0.2184
     14  O3'      -11.1860    2.4280   23.4210 O.3   1001  ADP1001    -0.2174
     15  C2'      -11.3270    4.8150   23.3990 C.3   1001  ADP1001     0.2570
     16  O2'      -11.6810    4.5550   24.7520 O.3   1001  ADP1001    -0.2130
     17  C1'       -9.8610    5.1470   23.2310 C.3   1001  ADP1001     0.3186
     18  N9        -9.6000    6.6030   23.1030 N.pl3 1001  ADP1001    -0.1439
     19  C8        -9.9240    7.4110   22.0730 C.3   1001  ADP1001     0.3377
     20  N7        -9.5050    8.6750   22.3080 N.2   1001  ADP1001    -0.2095
     21  C5        -8.8970    8.6710   23.4970 C.2   1001  ADP1001     0.2526
     22  C6        -8.2260    9.6660   24.3520 C.2   1001  ADP1001     0.4393
     23  N6        -8.1190   10.9310   23.9620 N.pl3 1001  ADP1001     0.2180
     24  N1        -7.7230    9.2850   25.5330 N.2   1001  ADP1001     0.0021
     25  C2        -7.8150    8.0060   25.9490 C.3   1001  ADP1001     0.5254
     26  N3        -8.4160    7.0380   25.2120 N.2   1001  ADP1001    -0.0055
     27  C4        -8.9630    7.3150   24.0050 C.2   1001  ADP1001     0.3518
@<TRIPOS>BOND
     1     2     1    2
     2     3     1    1
     3     1     4    1
     4     1     8    1
     5     8     5    1
     6     5     7    2
     7     5     6    1
     8     5     9    1
     9    10     9    1
    10    10    11    1
    11    11    12    1
    12    11    13    1
    13    12    17    1
    14    19    20    1
    15    19    18    1
    16    20    21    2
    17    13    15    1
    18    13    14    1
    19    18    17    1
    20    18    27    1
    21    17    15    1
    22    15    16    1
    23    21    27    1
    24    21    22    1
    25    23    22    1
    26    27    26    2
    27    22    24    2
    28    26    25    1
    29    24    25    1
