@<TRIPOS>MOLECULE
3b6w_GLU_A_1.pdb
 10 9 0 0 0
SMALL
GASTEIGER

@<TRIPOS>ATOM
      1  N          0.8950   -3.5360  -48.1480 N.3   801  GLU801     -0.1208
      2  CA        -0.4720   -3.3400  -47.5540 C.3   801  GLU801      0.1949
      3  C         -0.7880   -1.8340  -47.5260 C.2   801  GLU801      0.3819
      4  O         -1.8270   -1.4470  -46.9450 O.co2 801  GLU801     -0.2441
      5  CB        -0.5440   -3.8920  -46.1240 C.3   801  GLU801      0.0424
      6  CG        -0.7100   -5.4030  -46.0400 C.3   801  GLU801      0.1161
      7  CD        -2.1460   -5.8750  -46.3220 C.2   801  GLU801      0.3649
      8  OE1       -2.3370   -7.1040  -46.4830 O.co2 801  GLU801     -0.2457
      9  OE2       -3.0770   -5.0040  -46.4090 O.co2 801  GLU801     -0.2457
     10  OXT        0.0190   -1.0390  -48.0440 O.co2 801  GLU801     -0.2441
@<TRIPOS>BOND
     1     1     2    1
     2    10     3   ar
     3     2     3    1
     4     2     5    1
     5     3     4   ar
     6     8     7   ar
     7     9     7   ar
     8     7     6    1
     9     5     6    1
