@<TRIPOS>MOLECULE
3b70_NAP_A_1.pdb
 48 52 0 0 0
SMALL
GASTEIGER

@<TRIPOS>ATOM
      1  PA        39.5340  -14.7720   73.1450 P.3   372  NAP372      0.2189
      2  O1A       38.2790  -14.8880   72.4090 O.2   372  NAP372     -0.5170
      3  O2A       40.6960  -14.2940   72.4300 O.3   372  NAP372     -0.4371
      4  O5B       39.3680  -13.8760   74.4970 O.3   372  NAP372     -0.3112
      5  C5B       39.1410  -12.4860   74.4240 C.3   372  NAP372      0.1813
      6  C4B       38.4910  -12.0820   75.7640 C.3   372  NAP372      0.1820
      7  O4B       39.4030  -12.0560   76.8620 O.3   372  NAP372     -0.3136
      8  C3B       37.8740  -10.6800   75.6540 C.3   372  NAP372      0.2157
      9  O3B       36.5200  -10.8470   75.2260 O.3   372  NAP372     -0.2175
     10  C2B       37.9000  -10.2140   77.1080 C.3   372  NAP372      0.2314
     11  O2B       36.6400  -10.5080   77.6470 O.3   372  NAP372     -0.2630
     12  C1B       38.8690  -11.1240   77.8420 C.3   372  NAP372      0.3158
     13  N9A       40.0330  -10.4810   78.4080 N.pl3 372  NAP372     -0.1439
     14  C8A       41.1380  -10.0390   77.7140 C.3   372  NAP372      0.3377
     15  N7A       42.0420   -9.5960   78.6100 N.2   372  NAP372     -0.2095
     16  C5A       41.5520   -9.8130   79.8680 C.2   372  NAP372      0.2526
     17  C6A       42.0610   -9.5450   81.1520 C.2   372  NAP372      0.4393
     18  N6A       43.2670   -9.0140   81.3220 N.pl3 372  NAP372      0.2180
     19  N1A       41.2970   -9.9200   82.2460 N.2   372  NAP372      0.0021
     20  C2A       40.0300  -10.4360   82.0910 C.3   372  NAP372      0.5254
     21  N3A       39.5160  -10.7020   80.8280 N.2   372  NAP372     -0.0055
     22  C4A       40.2950  -10.3880   79.7450 C.2   372  NAP372      0.3518
     23  O3        39.9090  -16.1740   73.8570 O.3   372  NAP372     -0.2703
     24  PN        40.6430  -17.5440   73.4430 P.3   372  NAP372      0.2189
     25  O1N       39.9000  -18.5910   74.1690 O.3   372  NAP372     -0.4371
     26  O2N       40.7290  -17.5890   71.9930 O.2   372  NAP372     -0.5170
     27  O5D       42.1010  -17.3760   74.0470 O.3   372  NAP372     -0.3112
     28  C5D       42.2230  -17.0820   75.4390 C.3   372  NAP372      0.1813
     29  C4D       43.6300  -17.3600   75.9330 C.3   372  NAP372      0.1799
     30  O4D       43.8270  -18.7680   75.9880 O.3   372  NAP372     -0.3327
     31  C3D       44.6760  -16.8000   74.9700 C.3   372  NAP372      0.2158
     32  O3D       45.7590  -16.3560   75.7440 O.3   372  NAP372     -0.2175
     33  C2D       45.1280  -18.0310   74.2100 C.3   372  NAP372      0.2309
     34  O2D       46.4820  -17.8810   73.7990 O.3   372  NAP372     -0.2158
     35  C1D       44.9390  -19.1430   75.2470 C.3   372  NAP372      0.2263
     36  N1N       44.6300  -20.4010   74.5670 N.pl3 372  NAP372     -0.2787
     37  C2N       45.6120  -21.3430   74.5130 C.3   372  NAP372      0.1244
     38  C3N       45.3540  -22.5320   73.8710 C.2   372  NAP372      0.0544
     39  C7N       46.4310  -23.5830   73.8910 C.2   372  NAP372      0.2818
     40  O7N       46.4180  -24.4980   72.8560 O.2   372  NAP372     -0.2670
     41  N7N       47.3600  -23.6000   74.8460 N.am  372  NAP372     -0.0839
     42  C4N       44.1250  -22.7700   73.2330 C.2   372  NAP372      0.0033
     43  C5N       43.1400  -21.7730   73.2880 C.2   372  NAP372      0.0157
     44  C6N       43.4200  -20.5930   73.9560 C.2   372  NAP372      0.0633
     45  P2B       35.6260   -9.3550   78.2240 P.3   372  NAP372      0.5328
     46  O1X       36.2740   -8.8350   79.4870 O.3   372  NAP372     -0.1145
     47  O2X       34.2620   -9.9900   78.3910 O.3   372  NAP372     -0.1145
     48  O3X       35.5790   -8.3040   77.1350 O.2   372  NAP372     -0.2224
@<TRIPOS>BOND
     1    26    24    2
     2     2     1    2
     3     3     1    1
     4    40    39    2
     5     1    23    1
     6     1     4    1
     7    42    43    1
     8    42    38    2
     9    43    44    2
    10    24    23    1
    11    24    27    1
    12    24    25    1
    13    34    33    1
    14    38    39    1
    15    38    37    1
    16    39    41   am
    17    44    36    1
    18    27    28    1
    19    33    31    1
    20    33    35    1
    21     5     4    1
    22     5     6    1
    23    37    36    1
    24    36    35    1
    25    31    32    1
    26    31    29    1
    27     9     8    1
    28    35    30    1
    29    28    29    1
    30     8     6    1
    31     8    10    1
    32     6     7    1
    33    29    30    1
    34     7    12    1
    35    10    11    1
    36    10    12    1
    37    48    45    2
    38    11    45    1
    39    14    13    1
    40    14    15    1
    41    12    13    1
    42    45    47    1
    43    45    46    1
    44    13    22    1
    45    15    16    2
    46    22    16    1
    47    22    21    2
    48    16    17    1
    49    21    20    1
    50    17    18    1
    51    17    19    2
    52    20    19    1
