@<TRIPOS>MOLECULE
3b74_PEE_A_1.pdb
 44 43 0 0 0
SMALL
GASTEIGER

@<TRIPOS>ATOM
      1  C2       -18.1200   -2.7950   17.7900 C.3   311  PEE311      0.2420
      2  C1       -19.5500   -3.3080   17.7280 C.3   311  PEE311      0.1964
      3  N        -24.3870   -4.5220   14.7420 N.3   311  PEE311     -0.1286
      4  C3       -17.4380   -3.2620   19.0800 C.3   311  PEE311      0.2543
      5  C4       -21.9050   -4.3600   14.9550 C.3   311  PEE311      0.1696
      6  C5       -23.1630   -3.7230   14.3700 C.3   311  PEE311      0.1417
      7  C10      -17.2080   -2.5320   15.4850 C.2   311  PEE311      0.3171
      8  C11      -16.1120   -2.9680   14.5090 C.3   311  PEE311      0.1096
      9  C12      -14.9700   -1.9320   14.5070 C.3   311  PEE311      0.0116
     10  C13      -13.8220   -2.2870   13.5540 C.3   311  PEE311      0.0006
     11  C14      -12.7150   -1.2140   13.5920 C.3   311  PEE311      0.0000
     12  C15      -12.9940   -0.0570   12.6290 C.3   311  PEE311      0.0000
     13  C16      -11.7060    0.5430   12.0590 C.3   311  PEE311      0.0000
     14  C17      -11.9520    1.2280   10.7080 C.3   311  PEE311      0.0000
     15  C18      -10.8210    2.2070   10.3540 C.3   311  PEE311      0.0000
     16  C19      -11.3420    3.6040    9.9800 C.3   311  PEE311      0.0000
     17  C20      -11.0280    4.6330   11.0730 C.3   311  PEE311      0.0000
     18  C21      -10.2690    5.8590   10.5380 C.3   311  PEE311      0.0000
     19  C22      -11.0130    7.1670   10.8730 C.3   311  PEE311      0.0000
     20  C23      -11.1000    8.1300    9.6710 C.3   311  PEE311      0.0000
     21  C24      -11.6310    9.5110   10.0740 C.3   311  PEE311      0.0000
     22  C30      -15.1850   -4.0250   19.7310 C.2   311  PEE311      0.3171
     23  C31      -13.7460   -4.0420   19.1610 C.3   311  PEE311      0.1096
     24  C32      -13.3540   -5.2750   18.3070 C.3   311  PEE311      0.0116
     25  C33      -11.8660   -5.2260   17.8570 C.3   311  PEE311      0.0006
     26  C34      -11.6980   -4.8520   16.3730 C.3   311  PEE311      0.0000
     27  C35      -10.2470   -5.0290   15.8720 C.3   311  PEE311      0.0000
     28  C36      -10.0960   -4.6470   14.3770 C.3   311  PEE311      0.0000
     29  C37       -8.7230   -4.0230   14.0490 C.3   311  PEE311      0.0000
     30  C38       -8.4150   -3.9910   12.5320 C.3   311  PEE311      0.0000
     31  C39       -8.0890   -2.5710   12.0500 C.3   311  PEE311      0.0000
     32  C40       -7.7680   -2.4680   10.5470 C.3   311  PEE311      0.0000
     33  C41       -7.4580   -1.0080   10.1490 C.3   311  PEE311      0.0000
     34  C42       -7.1350   -0.8520    8.6590 C.3   311  PEE311      0.0000
     35  C43       -7.6010    0.5040    8.0980 C.3   311  PEE311      0.0000
     36  O4       -17.9190   -1.5750   15.1960 O.2   311  PEE311     -0.2501
     37  O5       -15.3680   -4.0460   20.9340 O.2   311  PEE311     -0.2501
     38  O2       -17.3670   -3.2350   16.6700 O.3   311  PEE311     -0.4457
     39  O3       -16.2520   -3.9850   18.8490 O.3   311  PEE311     -0.4444
     40  O1P      -21.4550   -5.4580   18.5010 O.3   311  PEE311     -0.4373
     41  O2P      -20.6680   -6.8620   16.6630 O.2   311  PEE311     -0.5172
     42  O3P      -19.5960   -4.5080   17.0340 O.3   311  PEE311     -0.3100
     43  O4P      -22.0850   -4.7570   16.2980 O.3   311  PEE311     -0.3125
     44  P        -20.8950   -5.4660   17.1300 P.3   311  PEE311      0.2141
@<TRIPOS>BOND
     1    35    34    1
     2    34    33    1
     3    20    21    1
     4    20    19    1
     5    16    15    1
     6    16    17    1
     7    33    32    1
     8    15    14    1
     9    18    19    1
    10    18    17    1
    11    32    31    1
    12    14    13    1
    13    31    30    1
    14    13    12    1
    15    30    29    1
    16    12    11    1
    17    10    11    1
    18    10     9    1
    19    29    28    1
    20     6     3    1
    21     6     5    1
    22    28    27    1
    23     9     8    1
    24     8     7    1
    25     5    43    1
    26    36     7    2
    27     7    38    1
    28    27    26    1
    29    43    44    1
    30    26    25    1
    31    41    44    2
    32    38     1    1
    33    42    44    1
    34    42     2    1
    35    44    40    1
    36     2     1    1
    37     1     4    1
    38    25    24    1
    39    24    23    1
    40    39     4    1
    41    39    22    1
    42    23    22    1
    43    22    37    2
