@<TRIPOS>MOLECULE
3b75_GLC_B_1.pdb
 12 12 0 0 0
SMALL
GASTEIGER

@<TRIPOS>ATOM
      1  C1       -31.8210    0.3020   81.9230 C.3   147  GLC147      0.3024
      2  C2       -30.9350   -0.9640   81.9950 C.3   147  GLC147      0.2434
      3  C3       -29.5330   -0.5560   81.5340 C.3   147  GLC147      0.2199
      4  C4       -29.6680   -0.1950   80.0380 C.3   147  GLC147      0.2144
      5  C5       -30.5610    1.0620   79.9550 C.3   147  GLC147      0.1836
      6  C6       -30.8140    1.5510   78.5210 C.3   147  GLC147      0.2142
      7  O1       -31.4300    1.3270   82.8120 O.3   147  GLC147     -0.1869
      8  O2       -30.9390   -1.6660   83.2400 O.3   147  GLC147     -0.2148
      9  O3       -28.5670   -1.5350   81.8750 O.3   147  GLC147     -0.2174
     10  O4       -28.4330    0.0080   79.3750 O.3   147  GLC147     -0.2176
     11  O5       -31.8170    0.8480   80.6060 O.3   147  GLC147     -0.3236
     12  O6       -31.2250    2.9090   78.5200 O.3   147  GLC147     -0.2176
@<TRIPOS>BOND
     1    12     6    1
     2     6     5    1
     3    10     4    1
     4     5     4    1
     5     5    11    1
     6     4     3    1
     7    11     1    1
     8     3     9    1
     9     3     2    1
    10     1     2    1
    11     1     7    1
    12     2     8    1
