@<TRIPOS>MOLECULE
3b75_HEM_A_1.pdb
 43 50 0 0 0
SMALL
GASTEIGER

@<TRIPOS>ATOM
      1 FE        -53.7990    4.9250  102.8080 Fe    150  HEM150      0.0000
      2  CHA      -56.8730    5.8320  103.7720 C.2   150  HEM150      0.0000
      3  CHB      -53.6920    2.5870  105.4930 C.2   150  HEM150      0.0000
      4  CHC      -50.5240    4.0020  101.9960 C.2   150  HEM150      0.0000
      5  CHD      -53.6860    7.3790  100.3840 C.2   150  HEM150      0.0000
      6  NA       -55.0550    4.2620  104.3230 N.2   150  HEM150      0.0000
      7  C1A      -56.2670    4.8940  104.5850 C.2   150  HEM150      0.0000
      8  C2A      -56.7840    4.3970  105.8620 C.2   150  HEM150      0.0000
      9  C3A      -55.9180    3.5080  106.3400 C.2   150  HEM150      0.0000
     10  C4A      -54.8150    3.3930  105.3900 C.2   150  HEM150      0.0000
     11  CMA      -56.0950    2.7600  107.6780 C.3   150  HEM150      0.0000
     12  CAA      -58.0900    4.8300  106.5770 C.3   150  HEM150      0.0000
     13  CBA      -59.3360    4.5860  105.7350 C.3   150  HEM150      0.0000
     14  CGA      -60.5700    4.2730  106.5470 C.2   150  HEM150      0.0000
     15  O1A      -60.6490    4.6270  107.7480 O.co2 150  HEM150      0.0000
     16  O2A      -61.4900    3.6420  105.9760 O.co2 150  HEM150      0.0000
     17  NB       -52.4020    3.5570  103.5980 N.ar  150  HEM150      0.0000
     18  C1B      -52.5700    2.7020  104.6870 C.ar  150  HEM150      0.0000
     19  C2B      -51.3560    1.9380  104.8520 C.ar  150  HEM150      0.0000
     20  C3B      -50.4760    2.3300  103.9180 C.ar  150  HEM150      0.0000
     21  C4B      -51.1000    3.3560  103.0930 C.ar  150  HEM150      0.0000
     22  CMB      -51.1150    0.8840  105.9580 C.3   150  HEM150      0.0000
     23  CAB      -49.0560    1.7390  103.7370 C.2   150  HEM150      0.0000
     24  CBB      -48.0760    1.8920  104.6320 C.2   150  HEM150      0.0000
     25  NC       -52.3570    5.5630  101.4480 N.2   150  HEM150      0.0000
     26  C1C      -51.0720    5.0510  101.2690 C.2   150  HEM150      0.0000
     27  C2C      -50.4470    5.8320  100.1920 C.2   150  HEM150      0.0000
     28  C3C      -51.3130    6.7570   99.7630 C.2   150  HEM150      0.0000
     29  C4C      -52.5430    6.6070  100.5270 C.2   150  HEM150      0.0000
     30  CMC      -49.0100    5.6770   99.6150 C.3   150  HEM150      0.0000
     31  CAC      -51.0220    7.7980   98.6500 C.2   150  HEM150      0.0000
     32  CBC      -50.0150    8.6900   98.7440 C.2   150  HEM150      0.0000
     33  ND       -55.0920    6.3790  102.1470 N.ar  150  HEM150      0.0000
     34  C1D      -54.8270    7.3420  101.1750 C.ar  150  HEM150      0.0000
     35  C2D      -55.9530    8.2640  101.1320 C.ar  150  HEM150      0.0000
     36  C3D      -56.9100    7.7470  102.2130 C.ar  150  HEM150      0.0000
     37  C4D      -56.3040    6.5970  102.7760 C.ar  150  HEM150      0.0000
     38  CMD      -56.1330    9.5030  100.2230 C.3   150  HEM150      0.0000
     39  CAD      -58.2770    8.3160  102.6470 C.3   150  HEM150      0.0000
     40  CBD      -58.0150    9.5360  103.5430 C.3   150  HEM150      0.0000
     41  CGD      -59.3300   10.1350  103.9900 C.2   150  HEM150      0.0000
     42  O1D      -60.1780   10.4540  103.1100 O.co2 150  HEM150      0.0000
     43  O2D      -59.5270   10.2970  105.2270 O.co2 150  HEM150      0.0000
@<TRIPOS>BOND
     1    31    32    2
     2    31    28    1
     3    30    27    1
     4    28    27    2
     5    28    29    1
     6    27    26    1
     7    38    35    1
     8     5    29    1
     9     5    34    2
    10    29    25    2
    11    35    34   ar
    12    35    36   ar
    13    34    33   ar
    14    26    25    1
    15    26     4    2
    16    25     1    1
    17     4    21    1
    18    33    37   ar
    19    33     1    1
    20    36    39    1
    21    36    37   ar
    22    39    40    1
    23    37     2    2
    24     1    17    1
    25     1     6    1
    26    21    17   ar
    27    21    20   ar
    28    42    41   ar
    29    40    41    1
    30    17    18   ar
    31    23    20    1
    32    23    24    2
    33     2     7    1
    34    20    19   ar
    35    41    43   ar
    36     6     7    2
    37     6    10    1
    38     7     8    1
    39    18    19   ar
    40    18     3    1
    41    19    22    1
    42    10     3    2
    43    10     9    1
    44    13    14    1
    45    13    12    1
    46     8     9    2
    47     8    12    1
    48    16    14   ar
    49     9    11    1
    50    14    15   ar
