@<TRIPOS>MOLECULE
3b75_FRU_E_1.pdb
 11 11 0 0 0
SMALL
GASTEIGER

@<TRIPOS>ATOM
      1  C1        -0.4850   29.7350   69.4210 C.3   142  FRU142      0.0671
      2  C2        -1.3390   29.8400   68.1480 C.3   142  FRU142      0.2500
      3  C3        -1.6860   31.3110   67.8840 C.3   142  FRU142      0.2382
      4  C4        -3.0500   31.2740   67.2150 C.3   142  FRU142      0.2167
      5  C5        -3.6480   29.9290   67.6120 C.3   142  FRU142      0.1835
      6  C6        -4.1700   29.2130   66.3740 C.3   142  FRU142      0.2142
      7  O2        -0.6470   29.2300   67.0340 O.3   142  FRU142     -0.1924
      8  O3        -0.7070   31.9520   67.0540 O.3   142  FRU142     -0.2150
      9  O4        -3.8770   32.3640   67.6360 O.3   142  FRU142     -0.2175
     10  O5        -2.6040   29.1690   68.2650 O.3   142  FRU142     -0.3272
     11  O6        -4.5870   27.8800   66.6930 O.3   142  FRU142     -0.2176
@<TRIPOS>BOND
     1     6    11    1
     2     6     5    1
     3     7     2    1
     4     8     3    1
     5     4     5    1
     6     4     9    1
     7     4     3    1
     8     5    10    1
     9     3     2    1
    10     2    10    1
    11     2     1    1
