@<TRIPOS>MOLECULE
3b78_NAD_B_1.pdb
 44 48 0 0 0
SMALL
GASTEIGER

@<TRIPOS>ATOM
      1  PA         3.7620   -5.3720   94.4750 P.3   700  NAD700      0.2189
      2  O1A        2.2870   -5.2010   94.7260 O.2   700  NAD700     -0.5170
      3  O2A        4.6360   -5.8490   95.6040 O.3   700  NAD700     -0.4371
      4  O5B        4.2930   -3.9290   93.9930 O.3   700  NAD700     -0.3112
      5  C5B        3.4220   -3.2210   93.0910 C.3   700  NAD700      0.1813
      6  C4B        4.1230   -2.8800   91.7620 C.3   700  NAD700      0.1821
      7  O4B        4.6410   -1.5330   91.7140 O.3   700  NAD700     -0.3135
      8  C3B        5.2890   -3.8210   91.3980 C.3   700  NAD700      0.2184
      9  O3B        4.8760   -4.7230   90.3630 O.3   700  NAD700     -0.2174
     10  C2B        6.3130   -2.8830   90.7790 C.3   700  NAD700      0.2570
     11  O2B        6.7390   -3.3910   89.5120 O.3   700  NAD700     -0.2130
     12  C1B        5.5290   -1.5840   90.5980 C.3   700  NAD700      0.3186
     13  N9A        6.3730   -0.3750   90.4680 N.pl3 700  NAD700     -0.1439
     14  C8A        6.2380    0.5640   89.5310 C.3   700  NAD700      0.3377
     15  N7A        7.1600    1.5320   89.7260 N.2   700  NAD700     -0.2095
     16  C5A        7.8710    1.1870   90.8200 C.2   700  NAD700      0.2526
     17  C6A        8.9290    1.7650   91.5060 C.2   700  NAD700      0.4393
     18  N6A        9.4530    2.9400   91.0760 N.pl3 700  NAD700      0.2180
     19  N1A        9.4190    1.1360   92.5980 N.2   700  NAD700      0.0021
     20  C2A        8.9060   -0.0220   93.0250 C.3   700  NAD700      0.5254
     21  N3A        7.8870   -0.6010   92.3850 N.2   700  NAD700     -0.0055
     22  C4A        7.3530   -0.0100   91.2890 C.2   700  NAD700      0.3518
     23  O3         3.9660   -6.3000   93.1750 O.3   700  NAD700     -0.2703
     24  PN         5.2140   -7.3020   92.9890 P.3   700  NAD700      0.2189
     25  O1N        6.2910   -7.0040   94.0040 O.3   700  NAD700     -0.4371
     26  O2N        5.5610   -7.3820   91.5230 O.2   700  NAD700     -0.5170
     27  O5D        4.5140   -8.6900   93.4000 O.3   700  NAD700     -0.3112
     28  C5D        4.3640   -8.9310   94.7970 C.3   700  NAD700      0.1813
     29  C4D        4.2410  -10.4180   95.0850 C.3   700  NAD700      0.1799
     30  O4D        4.8310  -11.1980   94.0470 O.3   700  NAD700     -0.3327
     31  C3D        4.9940  -10.7160   96.3640 C.3   700  NAD700      0.2158
     32  O3D        4.0690  -10.9040   97.4390 O.3   700  NAD700     -0.2175
     33  C2D        5.8000  -11.9660   96.0730 C.3   700  NAD700      0.2309
     34  O2D        5.2630  -13.0810   96.7980 O.3   700  NAD700     -0.2158
     35  C1D        5.6780  -12.2200   94.5790 C.3   700  NAD700      0.2263
     36  N1N        6.9890  -12.1140   93.9260 N.pl3 700  NAD700     -0.2787
     37  C2N        7.1530  -11.2300   92.9300 C.3   700  NAD700      0.1244
     38  C3N        8.3740  -11.0990   92.2720 C.2   700  NAD700      0.0544
     39  C7N        8.5330  -10.1010   91.1580 C.2   700  NAD700      0.2818
     40  O7N        9.4720  -10.2110   90.3890 O.2   700  NAD700     -0.2670
     41  N7N        7.6340   -9.1300   91.0200 N.am  700  NAD700     -0.0839
     42  C4N        9.4360  -11.9110   92.6480 C.2   700  NAD700      0.0033
     43  C5N        9.2440  -12.8260   93.6770 C.2   700  NAD700      0.0157
     44  C6N        7.9990  -12.9150   94.2950 C.2   700  NAD700      0.0633
@<TRIPOS>BOND
     1    11    10    1
     2    14    15    1
     3    14    13    1
     4    15    16    2
     5     9     8    1
     6    40    39    2
     7    13    12    1
     8    13    22    1
     9    12    10    1
    10    12     7    1
    11    10     8    1
    12    16    22    1
    13    16    17    1
    14    41    39   am
    15    18    17    1
    16    39    38    1
    17    22    21    2
    18     8     6    1
    19    17    19    2
    20    26    24    2
    21     7     6    1
    22     6     5    1
    23    38    42    2
    24    38    37    1
    25    21    20    1
    26    19    20    1
    27    42    43    1
    28    37    36    1
    29    24    23    1
    30    24    27    1
    31    24    25    1
    32     5     4    1
    33    23     1    1
    34    27    28    1
    35    43    44    2
    36    36    44    1
    37    36    35    1
    38     4     1    1
    39    30    35    1
    40    30    29    1
    41     1     2    2
    42     1     3    1
    43    35    33    1
    44    28    29    1
    45    29    31    1
    46    33    31    1
    47    33    34    1
    48    31    32    1
