@<TRIPOS>MOLECULE
3b7d_CNI_A_1.pdb
 17 18 0 0 0
SMALL
GASTEIGER

@<TRIPOS>ATOM
      1  C1       -29.9860   11.8010  -37.4230 C.1   262  CNI262      0.3024
      2  C2       -29.6280   11.3030  -38.7780 C.1   262  CNI262      0.3024
      3  C3       -30.2630   13.9460  -38.3320 C.2   262  CNI262      0.1552
      4  C4       -29.9270   13.4770  -39.6030 C.2   262  CNI262      0.1543
      5  C5       -30.5770   15.2920  -38.1490 C.3   262  CNI262      0.1135
      6  C6       -29.9130   14.3520  -40.6820 C.3   262  CNI262      0.1005
      7  C8       -30.2250   15.6930  -40.4950 C.2   262  CNI262      0.0721
      8  O1       -30.0100   11.0490  -36.4300 O.2   262  CNI262     -0.1961
      9  O2       -29.3470   10.1090  -38.9920 O.2   262  CNI262     -0.1961
     10  N2       -29.6180   12.1780  -39.8030 N.2   262  CNI262     -0.3251
     11  N1       -30.2880   13.1060  -37.2750 N.2   262  CNI262     -0.3250
     12  C7       -30.5560   16.1690  -39.2330 C.2   262  CNI262      0.1336
     13  N3       -30.8820   17.5250  -39.0500 N.pl3 262  CNI262      0.0544
     14  O3       -32.0290   17.8370  -38.7580 O.2   262  CNI262     -0.1264
     15  O5       -30.0360   18.3970  -39.1970 O.2   262  CNI262     -0.1264
     16  C        -30.2070   16.4930  -41.4950 C.1   262  CNI262      0.0979
     17  N17      -30.1310   17.2810  -42.3430 N.1   262  CNI262     -0.1911
@<TRIPOS>BOND
     1    17    16    3
     2    16     7    1
     3     6     7    1
     4     6     4    1
     5     7    12    2
     6    10     4    2
     7    10     2    2
     8     4     3    1
     9    12    13    1
    10    12     5    1
    11    15    13    2
    12    13    14    2
    13     9     2    2
    14     2     1    1
    15     3     5    1
    16     3    11    2
    17     1    11    2
    18     1     8    2
