@<TRIPOS>MOLECULE
3b7e_ZMR_A_1.pdb
 23 23 0 0 0
SMALL
GASTEIGER

@<TRIPOS>ATOM
      1  C1       -30.2290   10.5910  -24.1940 C.2   1001  ZMR1001     0.4208
      2  O1A      -31.4720   10.4920  -24.3880 O.co2 1001  ZMR1001    -0.2371
      3  O1B      -29.3750   10.0910  -24.9490 O.co2 1001  ZMR1001    -0.2371
      4  C2       -29.8100   11.3530  -23.0110 C.2   1001  ZMR1001     0.2172
      5  C3       -28.5410   11.7390  -22.7700 C.2   1001  ZMR1001     0.0619
      6  C4       -28.2360   12.7000  -21.6410 C.3   1001  ZMR1001     0.2297
      7  C5       -29.3050   12.5700  -20.5390 C.3   1001  ZMR1001     0.1816
      8  N5       -29.1670   13.6200  -19.5270 N.am  1001  ZMR1001    -0.1994
      9  C10      -28.6250   13.4220  -18.3110 C.2   1001  ZMR1001     0.2420
     10  O10      -28.2660   12.3080  -17.9130 O.2   1001  ZMR1001    -0.2733
     11  C11      -28.4430   14.6830  -17.5230 C.3   1001  ZMR1001     0.0964
     12  C6       -30.7080   12.6610  -21.1420 C.3   1001  ZMR1001     0.2224
     13  O6       -30.9160   11.7120  -22.1800 O.2   1001  ZMR1001    -0.4683
     14  C7       -31.8480   12.4520  -20.1380 C.3   1001  ZMR1001     0.2262
     15  O7       -31.7610   11.1370  -19.6140 O.3   1001  ZMR1001    -0.2164
     16  C8       -33.2320   12.6370  -20.7860 C.3   1001  ZMR1001     0.2185
     17  O8       -33.2920   13.9700  -21.3200 O.3   1001  ZMR1001    -0.2174
     18  C9       -34.3550   12.3670  -19.7560 C.3   1001  ZMR1001     0.2175
     19  O9       -34.2880   13.3450  -18.7220 O.3   1001  ZMR1001    -0.2175
     20  NE       -26.9380   12.4690  -20.9820 N.pl3 1001  ZMR1001    -0.0835
     21  CZ       -26.1620   13.4050  -20.5360 C.cat 1001  ZMR1001     0.5348
     22  NH1      -26.3800   14.7100  -20.6740 N.pl3 1001  ZMR1001     0.1354
     23  NH2      -25.0650   13.0390  -19.8640 N.pl3 1001  ZMR1001     0.1354
@<TRIPOS>BOND
     1     3     1   ar
     2     2     1   ar
     3     1     4    1
     4     4     5    2
     5     4    13    1
     6     5     6    1
     7    13    12    1
     8     6    20    1
     9     6     7    1
    10    17    16    1
    11    12     7    1
    12    12    14    1
    13    20    21    2
    14    16    14    1
    15    16    18    1
    16    22    21    1
    17     7     8    1
    18    21    23    1
    19    14    15    1
    20    18    19    1
    21     8     9   am
    22     9    10    2
    23     9    11    1
