@<TRIPOS>MOLECULE
3b7g_ANP_A_1.pdb
 31 33 0 0 0
SMALL
GASTEIGER

@<TRIPOS>ATOM
      1  PG       -24.7420   15.1950   13.7120 P.3   300  ANP300      0.4884
      2  O1G      -25.8960   15.9730   13.3650 O.2   300  ANP300     -0.2331
      3  O2G      -25.0600   13.8060   13.7820 O.3   300  ANP300     -0.1240
      4  O3G      -24.1040   15.6780   14.8990 O.3   300  ANP300     -0.1240
      5  PB       -22.4960   16.7120   12.5030 P.3   300  ANP300      0.4669
      6  O1B      -22.3650   17.0770   11.0850 O.2   300  ANP300     -0.2351
      7  O2B      -22.7830   17.7130   13.5130 O.3   300  ANP300     -0.1253
      8  N3B      -23.6870   15.4530   12.4450 N.3   300  ANP300     -0.0163
      9  PA       -20.5250   15.7090   14.2150 P.3   300  ANP300      0.2220
     10  O1A      -20.1170   14.3300   14.2620 O.2   300  ANP300     -0.5170
     11  O2A      -21.2530   16.2980   15.3370 O.3   300  ANP300     -0.4370
     12  O3A      -21.2400   15.9370   12.8930 O.3   300  ANP300     -0.2360
     13  O5'      -19.0970   16.3410   13.9380 O.3   300  ANP300     -0.3111
     14  C5'      -18.9600   17.7140   13.7620 C.3   300  ANP300      0.1813
     15  C4'      -18.3000   18.4240   14.9540 C.3   300  ANP300      0.1821
     16  O4'      -18.9810   18.3360   16.1730 O.3   300  ANP300     -0.3135
     17  C3'      -16.8960   17.9910   15.2140 C.3   300  ANP300      0.2184
     18  O3'      -16.0220   18.6250   14.3450 O.3   300  ANP300     -0.2174
     19  C2'      -16.7790   18.3900   16.6860 C.3   300  ANP300      0.2570
     20  O2'      -16.4340   19.7410   16.7810 O.3   300  ANP300     -0.2130
     21  C1'      -18.1620   18.1890   17.2940 C.3   300  ANP300      0.3186
     22  N9       -18.2570   16.8600   18.0140 N.pl3 300  ANP300     -0.1439
     23  C8       -18.8310   15.7360   17.5740 C.3   300  ANP300      0.3377
     24  N7       -18.7250   14.7070   18.4260 N.2   300  ANP300     -0.2095
     25  C5       -18.0360   15.1330   19.4570 C.2   300  ANP300      0.2526
     26  C6       -17.5530   14.5310   20.7240 C.2   300  ANP300      0.4393
     27  N6       -17.7470   13.2610   21.0550 N.pl3 300  ANP300      0.2180
     28  N1       -16.8600   15.3320   21.5410 N.2   300  ANP300      0.0021
     29  C2       -16.6330   16.6070   21.2300 C.3   300  ANP300      0.5254
     30  N3       -17.0270   17.2160   20.1040 N.2   300  ANP300     -0.0055
     31  C4       -17.7370   16.5390   19.1810 C.2   300  ANP300      0.3518
@<TRIPOS>BOND
     1     6     5    2
     2     8     5    1
     3     8     1    1
     4     5    12    1
     5     5     7    1
     6    12     9    1
     7     2     1    2
     8     1     3    1
     9     1     4    1
    10    14    13    1
    11    14    15    1
    12    13     9    1
    13     9    10    2
    14     9    11    1
    15    18    17    1
    16    15    17    1
    17    15    16    1
    18    17    19    1
    19    16    21    1
    20    19    20    1
    21    19    21    1
    22    21    22    1
    23    23    22    1
    24    23    24    1
    25    22    31    1
    26    24    25    2
    27    31    25    1
    28    31    30    2
    29    25    26    1
    30    30    29    1
    31    26    27    1
    32    26    28    2
    33    29    28    1
