@<TRIPOS>MOLECULE
3b7j_JUG_B_1.pdb
 13 14 0 0 0
SMALL
GASTEIGER

@<TRIPOS>ATOM
      1  OAA       21.0810   12.7820  -12.5760 O.2   163  JUG163     -0.2866
      2  CAJ       20.5930   13.8740  -12.2870 C.2   163  JUG163      0.1959
      3  CAF       21.4160   14.9780  -12.0960 C.2   163  JUG163      0.0453
      4  CAG       20.8530   16.2130  -11.7880 C.2   163  JUG163      0.0454
      5  CAK       19.4740   16.3380  -11.6720 C.2   163  JUG163      0.1989
      6  OAB       18.9820   17.4340  -11.3980 O.2   163  JUG163     -0.2865
      7  CAM       18.6500   15.2320  -11.8590 C.ar  163  JUG163      0.0809
      8  CAL       19.2140   13.9990  -12.1660 C.ar  163  JUG163      0.0451
      9  CAH       18.4020   12.8800  -12.3250 C.ar  163  JUG163      0.0035
     10  CAD       17.0240   12.9940  -12.1750 C.ar  163  JUG163      0.0034
     11  CAE       16.4600   14.2270  -11.8680 C.ar  163  JUG163      0.0421
     12  CAI       17.2710   15.3470  -11.7120 C.ar  163  JUG163      0.1988
     13  OAC       16.7080   16.5520  -11.4290 O.3   163  JUG163     -0.2865
@<TRIPOS>BOND
     1     1     2    2
     2     9    10   ar
     3     9     8   ar
     4     2     8    1
     5     2     3    1
     6    10    11   ar
     7     8     7   ar
     8     3     4    2
     9    11    12   ar
    10     7    12   ar
    11     7     5    1
    12     4     5    1
    13    12    13    1
    14     5     6    2
