@<TRIPOS>MOLECULE
3b7k_COA_A_1.pdb
 48 50 0 0 0
SMALL
GASTEIGER

@<TRIPOS>ATOM
      1  N1A      -14.4880  -33.7770   15.0120 N.2   317  COA317      0.0021
      2  C2A      -14.9960  -32.5750   15.4550 C.3   317  COA317      0.5254
      3  N3A      -15.7620  -32.5110   16.6000 N.2   317  COA317     -0.0055
      4  C4A      -16.0220  -33.6450   17.2900 C.2   317  COA317      0.3518
      5  C5A      -15.5220  -34.8700   16.8630 C.2   317  COA317      0.2526
      6  C6A      -14.7500  -34.9350   15.7110 C.2   317  COA317      0.4393
      7  N6A      -14.2800  -36.0960   15.2710 N.pl3 317  COA317      0.2180
      8  N7A      -15.9380  -35.8140   17.7380 N.2   317  COA317     -0.2095
      9  C8A      -16.6760  -35.2230   18.7070 C.3   317  COA317      0.3377
     10  N9A      -16.7410  -33.8800   18.4320 N.pl3 317  COA317     -0.1439
     11  C1B      -17.4690  -32.8550   19.1920 C.3   317  COA317      0.3185
     12  C2B      -18.9670  -33.0510   19.1170 C.3   317  COA317      0.2543
     13  O2B      -19.4400  -32.5520   17.8920 O.3   317  COA317     -0.2131
     14  C3B      -19.4370  -32.2400   20.3030 C.3   317  COA317      0.1928
     15  O3B      -19.5130  -30.8940   19.8840 O.3   317  COA317     -0.2673
     16  P3B      -20.3840  -29.7570   20.6260 P.3   317  COA317      0.5327
     17  O7A      -20.2480  -29.7980   22.1340 O.3   317  COA317     -0.1145
     18  O8A      -19.9750  -28.3910   20.1220 O.2   317  COA317     -0.2224
     19  O9A      -21.8260  -30.0180   20.2540 O.3   317  COA317     -0.1145
     20  C4B      -18.2860  -32.3560   21.2930 C.3   317  COA317      0.1795
     21  O4B      -17.1890  -32.8970   20.5770 O.3   317  COA317     -0.3136
     22  C5B      -18.6150  -33.2550   22.4760 C.3   317  COA317      0.1812
     23  O5B      -18.2150  -34.5800   22.1870 O.3   317  COA317     -0.3112
     24  P1A      -19.1720  -35.8190   22.5780 P.3   317  COA317      0.2189
     25  O1A      -19.7320  -36.4360   21.3110 O.2   317  COA317     -0.5170
     26  O2A      -20.2430  -35.3680   23.5410 O.3   317  COA317     -0.4371
     27  O3A      -18.2230  -36.8880   23.3180 O.3   317  COA317     -0.2703
     28  P2A      -16.8540  -37.4100   22.6680 P.3   317  COA317      0.2188
     29  O4A      -16.9830  -37.5200   21.1660 O.2   317  COA317     -0.5170
     30  O5A      -16.4820  -38.7350   23.2860 O.3   317  COA317     -0.4371
     31  O6A      -15.7870  -36.2530   23.0510 O.3   317  COA317     -0.3138
     32  CBP      -13.6190  -35.1420   22.7740 C.3   317  COA317      0.0645
     33  CCP      -14.8520  -35.7580   22.1070 C.3   317  COA317      0.1519
     34  CDP      -12.8340  -34.4060   21.6860 C.3   317  COA317      0.0056
     35  CEP      -14.0930  -34.1070   23.8010 C.3   317  COA317      0.0056
     36  CAP      -12.7450  -36.2490   23.4120 C.3   317  COA317      0.2312
     37  OAP      -12.4070  -37.2540   22.4720 O.3   317  COA317     -0.2131
     38  C9P      -11.5050  -35.7640   24.1380 C.2   317  COA317      0.2719
     39  O9P      -11.6330  -35.0430   25.3400 O.2   317  COA317     -0.2706
     40  N8P      -10.3050  -36.0720   23.6260 N.am  317  COA317     -0.2028
     41  C7P       -9.3510  -35.1210   23.0680 C.3   317  COA317      0.1248
     42  C6P       -8.9090  -34.0110   24.0160 C.3   317  COA317      0.1102
     43  C5P       -7.4020  -33.8910   24.0780 C.2   317  COA317      0.2432
     44  O5P       -6.7960  -34.2460   25.0970 O.2   317  COA317     -0.2733
     45  N4P       -6.7680  -33.3960   23.0210 N.am  317  COA317     -0.2044
     46  C3P       -5.3180  -33.3800   22.9520 C.3   317  COA317      0.1276
     47  C2P       -4.7530  -34.6740   22.3820 C.3   317  COA317      0.0920
     48  S1P       -4.4010  -35.9260   23.6430 S.3   317  COA317     -0.0802
@<TRIPOS>BOND
     1     1     2    1
     2     1     6    2
     3     7     6    1
     4     2     3    1
     5     6     5    1
     6     3     4    2
     7     5     4    1
     8     5     8    2
     9     4    10    1
    10     8     9    1
    11    13    12    1
    12    10     9    1
    13    10    11    1
    14    12    11    1
    15    12    14    1
    16    11    21    1
    17    15    14    1
    18    15    16    1
    19    18    16    2
    20    19    16    1
    21    14    20    1
    22    21    20    1
    23    16    17    1
    24    29    28    2
    25    20    22    1
    26    25    24    2
    27    34    32    1
    28    33    32    1
    29    33    31    1
    30    23    22    1
    31    23    24    1
    32    47    46    1
    33    47    48    1
    34    37    36    1
    35    24    27    1
    36    24    26    1
    37    28    31    1
    38    28    30    1
    39    28    27    1
    40    32    36    1
    41    32    35    1
    42    46    45    1
    43    45    43   am
    44    41    40    1
    45    41    42    1
    46    36    38    1
    47    40    38   am
    48    42    43    1
    49    43    44    2
    50    38    39    2
