@<TRIPOS>MOLECULE
3b7l_M0N_A_1.pdb
 20 21 0 0 0
SMALL
GASTEIGER

@<TRIPOS>ATOM
      1  O         13.7010   34.2620   -9.1620 O.3   901  M0N901     -0.2104
      2  C9        14.9820   34.0280   -8.6010 C.3   901  M0N901      0.2214
      3  C8        14.8150   32.7550   -7.7540 C.3   901  M0N901      0.0904
      4  C2        14.5440   31.3990   -8.3380 C.ar  901  M0N901      0.0652
      5  C1        13.7940   31.1490   -9.4590 C.ar  901  M0N901      0.1137
      6  N1        13.8230   29.8080   -9.5750 N.ar  901  M0N901     -0.2252
      7  C7        14.5460   29.2480   -8.5900 C.ar  901  M0N901      0.1476
      8  C6        14.8490   27.9010   -8.2980 C.ar  901  M0N901      0.0374
      9  C5        15.6180   27.6200   -7.1430 C.ar  901  M0N901      0.0046
     10  C4        16.0850   28.7020   -6.3710 C.ar  901  M0N901      0.0191
     11  C3        15.7360   30.0100   -6.7020 C.ar  901  M0N901      0.0811
     12  N2        15.0010   30.2630   -7.8000 N.ar  901  M0N901     -0.2924
     13  P1        16.3160   33.8910   -9.8710 P.3   901  M0N901      0.1515
     14  O2        15.9690   32.6940  -10.7280 O.2   901  M0N901     -0.4572
     15  O3        17.5890   33.6800   -9.0640 O.3   901  M0N901     -0.3553
     16  O1        16.3320   35.1940  -10.6550 O.3   901  M0N901     -0.3553
     17  P2        15.2200   35.5030   -7.5680 P.3   901  M0N901      0.1515
     18  O5        15.1320   36.6990   -8.5260 O.2   901  M0N901     -0.4572
     19  O6        14.1240   35.5110   -6.5730 O.3   901  M0N901     -0.3553
     20  O4        16.5800   35.4220   -6.9170 O.3   901  M0N901     -0.3553
@<TRIPOS>BOND
     1    14    13    2
     2    16    13    1
     3    13    15    1
     4    13     2    1
     5     6     5   ar
     6     6     7   ar
     7     5     4   ar
     8     1     2    1
     9     2     3    1
    10     2    17    1
    11     7     8   ar
    12     7    12   ar
    13    18    17    2
    14     4    12   ar
    15     4     3    1
    16     8     9   ar
    17    12    11   ar
    18    17    20    1
    19    17    19    1
    20     9    10   ar
    21    11    10   ar
