@<TRIPOS>MOLECULE
3b7p_SPM_A_1.pdb
 14 13 0 0 0
SMALL
GASTEIGER

@<TRIPOS>ATOM
      1  N1         9.7970  114.4860   20.2230 N.3   501  SPM501     -0.1313
      2  C2         8.6400  115.4210   20.1540 C.3   501  SPM501      0.1108
      3  C3         7.9130  115.5810   21.5090 C.3   501  SPM501      0.0393
      4  C4         8.3600  116.8810   22.2160 C.3   501  SPM501      0.0902
      5  N5         8.4230  116.8360   23.7030 N.3   501  SPM501     -0.2180
      6  C6         9.2920  115.7620   24.2020 C.3   501  SPM501      0.0887
      7  C7         9.9680  116.1440   25.5210 C.3   501  SPM501      0.0203
      8  C8        10.8940  115.0040   25.9480 C.3   501  SPM501      0.0203
      9  C9        11.6480  115.3240   27.2440 C.3   501  SPM501      0.0887
     10  N10       12.0310  114.0580   27.9100 N.3   501  SPM501     -0.2180
     11  C11       12.8730  114.2920   29.0870 C.3   501  SPM501      0.0902
     12  C12       12.0590  114.8050   30.2810 C.3   501  SPM501      0.0393
     13  C13       11.5120  113.6800   31.1670 C.3   501  SPM501      0.1108
     14  N14       12.5810  113.0510   31.9640 N.3   501  SPM501     -0.1313
@<TRIPOS>BOND
     1     2     1    1
     2     2     3    1
     3     3     4    1
     4     4     5    1
     5     5     6    1
     6     6     7    1
     7     7     8    1
     8     8     9    1
     9     9    10    1
    10    10    11    1
    11    11    12    1
    12    12    13    1
    13    13    14    1
