@<TRIPOS>MOLECULE
3b7p_MTA_A_1.pdb
 20 22 0 0 0
SMALL
GASTEIGER

@<TRIPOS>ATOM
      1  CS        15.0270  116.7680   31.5210 C.3   401  MTA401      0.0693
      2  S5'       15.5850  115.1470   31.1130 S.3   401  MTA401     -0.1367
      3  C5'       16.3130  115.3530   29.5110 C.3   401  MTA401      0.0899
      4  C4'       17.7710  115.7600   29.6530 C.3   401  MTA401      0.1630
      5  O4'       18.5270  115.4680   28.4600 O.3   401  MTA401     -0.3153
      6  C2'       19.0890  117.6260   28.8890 C.3   401  MTA401      0.2569
      7  O2'       20.0210  118.5490   29.4880 O.3   401  MTA401     -0.2130
      8  C3'       17.9470  117.2630   29.8210 C.3   401  MTA401      0.2168
      9  O3'       18.2960  117.5700   31.1640 O.3   401  MTA401     -0.2175
     10  C1'       19.6840  116.2640   28.5950 C.3   401  MTA401      0.3185
     11  N9        20.5330  116.2190   27.3780 N.pl3 401  MTA401     -0.1439
     12  C8        20.3140  116.8290   26.2060 C.3   401  MTA401      0.3377
     13  N7        21.3290  116.5770   25.3260 N.2   401  MTA401     -0.2095
     14  C5        22.2190  115.7710   25.9690 C.2   401  MTA401      0.2526
     15  C6        23.5090  115.1230   25.6570 C.2   401  MTA401      0.4393
     16  N6        24.0960  115.2620   24.4330 N.pl3 401  MTA401      0.2180
     17  N1        24.0800  114.3820   26.6450 N.2   401  MTA401      0.0021
     18  C2        23.5320  114.2290   27.8710 C.3   401  MTA401      0.5254
     19  N3        22.3610  114.7950   28.2160 N.2   401  MTA401     -0.0055
     20  C4        21.6780  115.5520   27.3270 C.2   401  MTA401      0.3518
@<TRIPOS>BOND
     1    16    15    1
     2    13    14    2
     3    13    12    1
     4    15    14    1
     5    15    17    2
     6    14    20    1
     7    12    11    1
     8    17    18    1
     9    20    11    1
    10    20    19    2
    11    11    10    1
    12    18    19    1
    13     5    10    1
    14     5     4    1
    15    10     6    1
    16     6     7    1
    17     6     8    1
    18     3     4    1
    19     3     2    1
    20     4     8    1
    21     8     9    1
    22     2     1    1
