@<TRIPOS>MOLECULE
3b7r_BIR_L_1.pdb
 29 30 0 0 0
SMALL
GASTEIGER

@<TRIPOS>ATOM
      1  C3        32.8250    2.6140    0.8130 C.3   1001  BIR1001     0.0311
      2  C2        34.2170    2.3640    1.4430 C.3   1001  BIR1001     0.1712
      3  N1        34.1820    1.3220    2.4450 N.3   1001  BIR1001    -0.1224
      4  P4        34.9260    3.8990    2.2280 P.3   1001  BIR1001     0.2708
      5  O6        36.3960    3.6750    2.6340 O.2   1001  BIR1001    -0.2855
      6  O5        34.0400    4.0820    3.5170 O.3   1001  BIR1001    -0.1664
      7  C7        34.5310    5.3200    1.1620 C.3   1001  BIR1001     0.1002
      8  C8        34.7190    6.6990    1.7610 C.3   1001  BIR1001     0.0923
      9  C10       34.4030    7.6590    0.6470 C.2   1001  BIR1001     0.2422
     10  O23       35.0260    7.5960   -0.3910 O.2   1001  BIR1001    -0.2733
     11  N24       33.1880    8.2850    0.7060 N.am  1001  BIR1001    -0.1956
     12  C25       32.6930    9.0770   -0.3730 C.3   1001  BIR1001     0.1978
     13  C26       31.4260    9.8110    0.0460 C.3   1001  BIR1001     0.0356
     14  C27       33.7680   10.1380   -0.7670 C.2   1001  BIR1001     0.3842
     15  O28       33.9410   10.2050   -2.0880 O.co2 1001  BIR1001    -0.2437
     16  O29       34.3970   10.8460    0.0160 O.co2 1001  BIR1001    -0.2437
     17  C9        36.1370    7.0320    2.2490 C.3   1001  BIR1001     0.0360
     18  C11       36.2480    8.4320    2.8160 C.ar  1001  BIR1001    -0.0217
     19  C12       36.3890    9.5610    1.9820 C.ar  1001  BIR1001    -0.0043
     20  C13       36.3110   10.8720    2.4490 C.ar  1001  BIR1001    -0.0003
     21  C14       36.1590   11.0730    3.8250 C.ar  1001  BIR1001    -0.0000
     22  C15       35.9600    9.9610    4.6360 C.ar  1001  BIR1001    -0.0003
     23  C16       36.0170    8.6500    4.1580 C.ar  1001  BIR1001    -0.0043
     24  C17       36.0680   12.4610    4.3410 C.ar  1001  BIR1001    -0.0000
     25  C18       35.2070   12.7980    5.4030 C.ar  1001  BIR1001    -0.0000
     26  C19       35.1200   14.1300    5.8460 C.ar  1001  BIR1001     0.0000
     27  C20       35.8640   15.1660    5.2190 C.ar  1001  BIR1001     0.0000
     28  C21       36.7050   14.8250    4.1400 C.ar  1001  BIR1001     0.0000
     29  C22       36.7770   13.5090    3.6730 C.ar  1001  BIR1001    -0.0000
@<TRIPOS>BOND
     1    15    14   ar
     2    14    12    1
     3    14    16   ar
     4    10     9    2
     5    12    13    1
     6    12    11    1
     7     9    11   am
     8     9     8    1
     9     1     2    1
    10     7     8    1
    11     7     4    1
    12     2     4    1
    13     2     3    1
    14     8    17    1
    15    19    20   ar
    16    19    18   ar
    17     4     5    2
    18     4     6    1
    19    17    18    1
    20    20    21   ar
    21    18    23   ar
    22    29    28   ar
    23    29    24   ar
    24    21    24    1
    25    21    22   ar
    26    28    27   ar
    27    23    22   ar
    28    24    25   ar
    29    27    26   ar
    30    25    26   ar
