@<TRIPOS>MOLECULE
3b7s_III_B_1.pdb
 29 28 0 0 0
SMALL
GASTEIGER

@<TRIPOS>ATOM
      1  N         34.8900    2.4240    3.1830 N.3   800  ARG800     -0.1231
      2  CA        35.2940    3.2560    2.0520 C.3   800  ARG800      0.1694
      3  C         34.9830    4.6970    2.4390 C.2   800  ARG800      0.2593
      4  O         34.1550    4.9100    3.3350 O.2   800  ARG800     -0.2718
      5  CB        34.6190    2.8470    0.7620 C.3   800  ARG800      0.0321
      6  CG        33.1320    3.1350    0.5940 C.3   800  ARG800      0.0489
      7  CD        32.7080    2.6310   -0.7740 C.3   800  ARG800      0.2205
      8  NE        31.3820    2.9830   -1.2380 N.pl3 800  ARG800     -0.0865
      9  CZ        30.2760    2.2420   -1.2670 C.cat 800  ARG800      0.5346
     10  NH1       30.4270    1.0170   -0.7480 N.pl3 800  ARG800      0.1354
     11  NH2       29.1160    2.7050   -1.7620 N.pl3 800  ARG800      0.1354
     12  N         35.6540    5.6490    1.7790 N.am  801  SER801     -0.1938
     13  CA        35.3190    7.0510    1.9120 C.3   801  SER801      0.2055
     14  C         34.5110    7.5320    0.7070 C.2   801  SER801      0.2647
     15  O         34.8070    7.2000   -0.4430 O.2   801  SER801     -0.2714
     16  CB        36.5730    7.9080    2.0250 C.3   801  SER801      0.2130
     17  OG        37.2830    7.6910    3.2630 O.3   801  SER801     -0.2179
     18  N         33.5010    8.3790    1.0070 N.am  802  ARG802     -0.1895
     19  CA        32.8700    9.1110   -0.1020 C.3   802  ARG802      0.2195
     20  C         33.9730    9.9290   -0.7280 C.2   802  ARG802      0.3884
     21  O         34.9100   10.4200   -0.0500 O.co2 802  ARG802     -0.2434
     22  CB        31.7410    9.9640    0.4850 C.2   802  ARG802      0.0055
     23  CG        30.6080    9.2170    1.1330 C.2   802  ARG802      0.0179
     24  CD        29.5260   10.0820    1.7600 C.3   802  ARG802      0.2464
     25  NE        29.1600   11.2950    1.1300 N.pl3 802  ARG802     -0.0815
     26  CZ        29.3670   12.6010    1.3630 C.cat 802  ARG802      0.5349
     27  NH1       30.0640   13.0510    2.4010 N.pl3 802  ARG802      0.1354
     28  NH2       28.8450   13.4950    0.5180 N.pl3 802  ARG802      0.1354
     29  OXT       33.9080   10.1340   -1.9310 O.co2 802  ARG802     -0.2434
@<TRIPOS>BOND
     1    29    20   ar
     2    11     9    1
     3     9     8    2
     4     9    10    1
     5     8     7    1
     6     7     6    1
     7    20    19    1
     8    20    21   ar
     9    15    14    2
    10    19    22    1
    11    19    18    1
    12    22    23    2
    13    28    26    1
    14     6     5    1
    15    14    18   am
    16    14    13    1
    17     5     2    1
    18    25    26    2
    19    25    24    1
    20    23    24    1
    21    26    27    1
    22    12    13    1
    23    12     3   am
    24    13    16    1
    25    16    17    1
    26     2     3    1
    27     2     1    1
    28     3     4    2
