@<TRIPOS>MOLECULE
3b7t_III_B_1.pdb
 27 26 0 0 0
SMALL
GASTEIGER

@<TRIPOS>ATOM
      1  N         35.0570    2.1720    2.9860 N.3   702  ARG702     -0.1231
      2  CA        35.5230    3.1840    2.0080 C.3   702  ARG702      0.1694
      3  C         35.1790    4.5930    2.4410 C.2   702  ARG702      0.2592
      4  O         34.3500    4.8130    3.3240 O.2   702  ARG702     -0.2718
      5  CB        34.9300    2.8980    0.6160 C.3   702  ARG702      0.0321
      6  CG        33.3990    3.0200    0.4730 C.3   702  ARG702      0.0489
      7  CD        32.9550    2.3440   -0.8320 C.3   702  ARG702      0.2205
      8  NE        31.6350    2.7570   -1.3020 N.pl3 702  ARG702     -0.0865
      9  CZ        30.4920    2.2150   -0.8990 C.cat 702  ARG702      0.5346
     10  NH1       30.5030    1.2300   -0.0090 N.pl3 702  ARG702      0.1354
     11  NH2       29.3390    2.6430   -1.3990 N.pl3 702  ARG702      0.1354
     12  N         35.8210    5.5590    1.8080 N.am  703  ALA703     -0.1966
     13  CA        35.5780    6.9530    2.1420 C.3   703  ALA703      0.1728
     14  C         34.8670    7.6190    0.9790 C.2   703  ALA703      0.2616
     15  O         35.2640    7.4560   -0.1710 O.2   703  ALA703     -0.2715
     16  CB        36.8990    7.6630    2.4030 C.3   703  ALA703      0.0334
     17  N         33.8120    8.3690    1.2680 N.am  704  ARG704     -0.1977
     18  CA        33.1120    9.0620    0.2040 C.3   704  ARG704      0.1597
     19  C         34.1190    9.9430   -0.5410 C.2   704  ARG704      0.2287
     20  O         35.1480   10.3140    0.0760 O.2   704  ARG704     -0.2864
     21  CB        31.9820    9.9320    0.7690 C.3   704  ARG704      0.0334
     22  CG        30.8340    9.1440    1.3810 C.3   704  ARG704      0.0492
     23  CD        29.7470   10.0710    1.9260 C.3   704  ARG704      0.2205
     24  NE        29.0090   10.7860    0.8800 N.pl3 704  ARG704     -0.0865
     25  CZ        28.8900   12.1130    0.8200 C.cat 704  ARG704      0.5346
     26  NH1       29.4700   12.8830    1.7410 N.pl3 704  ARG704      0.1354
     27  NH2       28.1720   12.6730   -0.1510 N.pl3 704  ARG704      0.1354
@<TRIPOS>BOND
     1    11     9    1
     2     8     9    2
     3     8     7    1
     4     9    10    1
     5     7     6    1
     6    19    20    2
     7    19    18    1
     8    15    14    2
     9    27    25    1
    10    18    21    1
    11    18    17    1
    12     6     5    1
    13     5     2    1
    14    21    22    1
    15    25    24    2
    16    25    26    1
    17    24    23    1
    18    14    17   am
    19    14    13    1
    20    22    23    1
    21    12    13    1
    22    12     3   am
    23     2     3    1
    24     2     1    1
    25    13    16    1
    26     3     4    2
