@<TRIPOS>MOLECULE
3b7u_KEL_X_1.pdb
 21 21 0 0 0
SMALL
GASTEIGER

@<TRIPOS>ATOM
      1  O21       34.2250    4.1510    3.2940 O.2   707  KEL707     -0.2698
      2  C18       34.9880    4.2810    2.3510 C.2   707  KEL707      0.2843
      3  N19       36.1930    3.7320    2.3050 N.am  707  KEL707      0.0385
      4  O20       36.5650    3.1010    3.2900 O.2   707  KEL707     -0.1531
      5  C17       34.6280    5.1670    1.1870 C.3   707  KEL707      0.0999
      6  C8        34.7120    6.6060    1.7070 C.3   707  KEL707      0.0918
      7  C9        34.3180    7.5110    0.5820 C.2   707  KEL707      0.2422
      8  O16       34.9820    7.5130   -0.4490 O.2   707  KEL707     -0.2733
      9  N10       33.2310    8.2680    0.7570 N.am  707  KEL707     -0.1956
     10  C11       32.7620    9.0820   -0.3280 C.3   707  KEL707      0.1978
     11  C15       31.4610    9.7930    0.0080 C.3   707  KEL707      0.0356
     12  C12       33.8560   10.0410   -0.7530 C.2   707  KEL707      0.3842
     13  O14       34.0600   10.2010   -1.9530 O.co2 707  KEL707     -0.2437
     14  O13       34.5630   10.5940    0.0960 O.co2 707  KEL707     -0.2437
     15  C16       36.1550    6.9510    2.1610 C.3   707  KEL707      0.0360
     16  C23       36.2490    8.3270    2.8280 C.ar  707  KEL707     -0.0217
     17  C24       36.1310    8.4110    4.2070 C.ar  707  KEL707     -0.0043
     18  C19       36.2230    9.6680    4.8300 C.ar  707  KEL707     -0.0003
     19  C20       36.4050   10.8440    4.1220 C.ar  707  KEL707     -0.0000
     20  C21       36.5470   10.7640    2.7260 C.ar  707  KEL707     -0.0003
     21  C22       36.4720    9.5150    2.0890 C.ar  707  KEL707     -0.0043
@<TRIPOS>BOND
     1    13    12   ar
     2    12    10    1
     3    12    14   ar
     4     8     7    2
     5    10    11    1
     6    10     9    1
     7     7     9   am
     8     7     6    1
     9     5     6    1
    10     5     2    1
    11     6    15    1
    12    21    20   ar
    13    21    16   ar
    14    15    16    1
    15     3     2    1
    16     3     4    2
    17     2     1    2
    18    20    19   ar
    19    16    17   ar
    20    19    18   ar
    21    17    18   ar
