@<TRIPOS>MOLECULE
3b7v_III_C_1.pdb
 50 49 0 0 0
SMALL
GASTEIGER

@<TRIPOS>ATOM
      1  N         23.8360   27.7710   17.7420 N.3   201  ASN201     -0.1225
      2  CA        23.0430   26.6140   18.0880 C.3   201  ASN201      0.1785
      3  C         21.5670   26.7870   17.6720 C.2   201  ASN201      0.2597
      4  O         20.9620   27.8400   17.9300 O.2   201  ASN201     -0.2718
      5  CB        23.1170   26.3020   19.5910 C.3   201  ASN201      0.1169
      6  CG        23.5860   24.8550   19.6980 C.2   201  ASN201      0.2627
      7  OD1       22.7160   24.0230   19.9590 O.2   201  ASN201     -0.2716
      8  ND2       24.8800   24.6350   19.4990 N.am  201  ASN201     -0.0877
      9  N         21.0660   25.6900   17.0270 N.am  202  LEU202     -0.1966
     10  CA        19.7030   25.7970   16.5220 C.3   202  LEU202      0.1728
     11  C         18.9160   24.6130   17.0880 C.2   202  LEU202      0.2614
     12  O         19.0590   23.4780   16.6060 O.2   202  LEU202     -0.2715
     13  CB        19.7440   25.9200   14.9690 C.3   202  LEU202      0.0311
     14  CG        20.2090   27.2970   14.4860 C.3   202  LEU202      0.0022
     15  CD1       20.3130   28.3640   15.5560 C.3   202  LEU202      0.0001
     16  CD2       21.5370   27.2490   13.7540 C.3   202  LEU202      0.0001
     17  N14       18.0720   24.8880   18.1270 N.am  203  LNT203     -0.1962
     18  CA        17.2720   23.8400   18.7820 C.3   203  LNT203      0.1964
     19  C16       15.7550   24.0300   18.4380 C.3   203  LNT203      0.4337
     20  C17       17.5030   23.7820   20.2930 C.3   203  LNT203      0.0312
     21  C18       18.9070   23.6150   20.9020 C.3   203  LNT203      0.0020
     22  C19       19.9340   23.0320   19.9150 C.3   203  LNT203      0.0001
     23  C20       19.4740   24.9400   21.4700 C.3   203  LNT203      0.0001
     24  O21       15.0280   23.4050   19.4460 O.2   203  LNT203     -0.2536
     25  O22       15.4290   25.4170   18.5630 O.2   203  LNT203     -0.2536
     26  N23       15.4990   23.5370   17.0900 N.3   203  LNT203     -0.1294
     27  C24       14.2920   22.7800   16.7660 C.3   203  LNT203      0.1876
     28  C         14.3630   21.3590   17.3780 C.2   203  LNT203      0.2604
     29  O         15.4020   20.7100   17.4770 O.2   203  LNT203     -0.2717
     30  C27       14.0300   22.6920   15.2420 C.3   203  LNT203      0.1770
     31  OG1       12.6930   22.2460   14.9940 O.3   203  LNT203     -0.2211
     32  C29       14.9010   21.6520   14.5200 C.3   203  LNT203      0.0375
     33  N         13.1650   20.8830   17.8030 N.am  205  GLN205     -0.1965
     34  CA        13.0080   19.4410   18.1120 C.3   205  GLN205      0.1733
     35  C         11.5650   19.0500   17.7620 C.2   205  GLN205      0.2617
     36  O         10.5100   19.6220   18.0860 O.2   205  GLN205     -0.2715
     37  CB        13.5110   19.2400   19.5580 C.3   205  GLN205      0.0408
     38  CG        13.4420   17.8720   20.2380 C.3   205  GLN205      0.0908
     39  CD        11.9960   17.5070   20.6000 C.2   205  GLN205      0.2608
     40  OE1       11.1940   18.3800   20.8850 O.2   205  GLN205     -0.2717
     41  NE2       11.6410   16.2140   20.5950 N.am  205  GLN205     -0.0878
     42  N         11.5060   17.9260   17.0000 N.am  206  ILE206     -0.1942
     43  CA        10.2140   17.3070   16.6930 C.3   206  ILE206      0.1977
     44  C         10.2190   15.8950   17.3890 C.2   206  ILE206      0.3842
     45  O          9.3690   15.7880   18.3250 O.co2 206  ILE206     -0.2437
     46  CB         9.8720   17.2120   15.2080 C.3   206  ILE206      0.0311
     47  CG1       10.9960   16.7170   14.3030 C.3   206  ILE206      0.0023
     48  CG2        9.1520   18.4500   14.6930 C.3   206  ILE206      0.0023
     49  CD1       10.8410   15.2520   13.9190 C.3   206  ILE206      0.0001
     50  OXT       11.0330   15.0650   16.9590 O.co2 206  ILE206     -0.2437
@<TRIPOS>BOND
     1    16    14    1
     2    49    47    1
     3    47    46    1
     4    14    13    1
     5    14    15    1
     6    32    30    1
     7    48    46    1
     8    13    10    1
     9    31    30    1
    10    46    43    1
    11    30    27    1
    12    10     9    1
    13    10    11    1
    14    12    11    2
    15    43    42    1
    16    43    44    1
    17    27    26    1
    18    27    28    1
    19    50    44   ar
    20    42    35   am
    21     9     3   am
    22    11    17   am
    23    26    19    1
    24    28    29    2
    25    28    33   am
    26    44    45   ar
    27     3     4    2
    28     3     2    1
    29     1     2    1
    30    35    36    2
    31    35    34    1
    32    33    34    1
    33     2     5    1
    34    34    37    1
    35    17    18    1
    36    19    25    1
    37    19    18    1
    38    19    24    1
    39    18    20    1
    40     8     6   am
    41    37    38    1
    42     5     6    1
    43     6     7    2
    44    22    21    1
    45    38    39    1
    46    20    21    1
    47    41    39   am
    48    39    40    2
    49    21    23    1
