@<TRIPOS>MOLECULE
3b80_III_C_1.pdb
 50 49 0 0 0
SMALL
GASTEIGER

@<TRIPOS>ATOM
      1  N         23.8600   27.8090   17.4260 N.3   201  ASN201     -0.1225
      2  CA        23.1410   26.5960   17.8250 C.3   201  ASN201      0.1785
      3  C         21.6200   26.7620   17.8480 C.2   201  ASN201      0.2597
      4  O         20.9530   27.7750   18.0240 O.2   201  ASN201     -0.2718
      5  CB        23.6600   26.1420   19.1980 C.3   201  ASN201      0.1169
      6  CG        24.0420   24.6850   19.2920 C.2   201  ASN201      0.2627
      7  OD1       23.1470   23.8360   19.3860 O.2   201  ASN201     -0.2716
      8  ND2       25.3210   24.3470   19.2730 N.am  201  ASN201     -0.0877
      9  N         20.9430   25.5630   17.6310 N.am  202  LEU202     -0.1966
     10  CA        19.6950   25.7450   16.8740 C.3   202  LEU202      0.1728
     11  C         18.7790   24.5970   17.2960 C.2   202  LEU202      0.2614
     12  O         18.9040   23.4840   16.7660 O.2   202  LEU202     -0.2715
     13  CB        19.8980   25.7930   15.3650 C.3   202  LEU202      0.0311
     14  CG        19.9910   27.0680   14.5790 C.3   202  LEU202      0.0022
     15  CD1       18.6420   27.4150   13.9460 C.3   202  LEU202      0.0001
     16  CD2       20.6080   28.2510   15.2910 C.3   202  LEU202      0.0001
     17  N14       17.8650   24.8890   18.2540 N.am  203  LNT203     -0.1962
     18  CA        17.1710   23.8260   18.9920 C.3   203  LNT203      0.1964
     19  C16       15.6910   23.7020   18.5360 C.3   203  LNT203      0.4337
     20  C17       17.3710   24.0910   20.5000 C.3   203  LNT203      0.0312
     21  C18       18.7640   23.6460   21.0180 C.3   203  LNT203      0.0020
     22  C19       19.4340   22.7530   19.9530 C.3   203  LNT203      0.0001
     23  C20       19.7120   24.7820   21.4140 C.3   203  LNT203      0.0001
     24  O21       15.1190   22.8370   19.4940 O.2   203  LNT203     -0.2536
     25  O22       14.9690   24.9360   18.6350 O.2   203  LNT203     -0.2536
     26  N23       15.6090   23.2490   17.1380 N.3   203  LNT203     -0.1294
     27  C24       14.4430   22.4320   16.8130 C.3   203  LNT203      0.1876
     28  C         14.5770   21.0220   17.4440 C.2   203  LNT203      0.2604
     29  O         15.6220   20.3830   17.4960 O.2   203  LNT203     -0.2717
     30  C27       14.1160   22.1540   15.3050 C.3   203  LNT203      0.1770
     31  OG1       15.3090   21.9210   14.5470 O.3   203  LNT203     -0.2211
     32  C29       13.3870   23.3730   14.7450 C.3   203  LNT203      0.0375
     33  N         13.3610   20.6110   17.9290 N.am  205  GLN205     -0.1965
     34  CA        13.2510   19.1450   18.0530 C.3   205  GLN205      0.1733
     35  C         11.7870   18.7530   17.8790 C.2   205  GLN205      0.2617
     36  O         10.7490   19.2990   18.2480 O.2   205  GLN205     -0.2715
     37  CB        13.9760   18.7930   19.3800 C.3   205  GLN205      0.0408
     38  CG        13.5000   17.5010   20.0600 C.3   205  GLN205      0.0908
     39  CD        12.3180   17.8200   21.0020 C.2   205  GLN205      0.2608
     40  OE1       11.1910   17.7270   20.5710 O.2   205  GLN205     -0.2717
     41  NE2       12.7250   18.1830   22.2610 N.am  205  GLN205     -0.0878
     42  N         11.6930   17.5860   17.1860 N.am  206  ILE206     -0.1942
     43  CA        10.4240   17.0560   16.7010 C.3   206  ILE206      0.1977
     44  C         10.4680   15.5580   17.1630 C.2   206  ILE206      0.3842
     45  O          9.4290   14.9720   17.5740 O.co2 206  ILE206     -0.2437
     46  CB        10.1940   17.2910   15.2140 C.3   206  ILE206      0.0311
     47  CG1       11.3610   16.8780   14.3210 C.3   206  ILE206      0.0023
     48  CG2        9.8240   18.7400   14.8960 C.3   206  ILE206      0.0023
     49  CD1       11.4250   15.3990   14.0180 C.3   206  ILE206      0.0001
     50  OXT       11.6300   15.1070   17.0530 O.co2 206  ILE206     -0.2437
@<TRIPOS>BOND
     1    15    14    1
     2    49    47    1
     3    47    46    1
     4    31    30    1
     5    14    16    1
     6    14    13    1
     7    32    30    1
     8    48    46    1
     9    46    43    1
    10    30    27    1
    11    13    10    1
    12    43    44    1
    13    43    42    1
    14    12    11    2
    15    27    26    1
    16    27    28    1
    17    10    11    1
    18    10     9    1
    19    50    44   ar
    20    26    19    1
    21    44    45   ar
    22    42    35   am
    23    11    17   am
    24     1     2    1
    25    28    29    2
    26    28    33   am
    27     9     3   am
    28     2     3    1
    29     2     5    1
    30     3     4    2
    31    35    34    1
    32    35    36    2
    33    33    34    1
    34    34    37    1
    35    17    18    1
    36    19    25    1
    37    19    18    1
    38    19    24    1
    39    18    20    1
    40     5     6    1
    41     8     6   am
    42     6     7    2
    43    37    38    1
    44    22    21    1
    45    38    39    1
    46    20    21    1
    47    40    39    2
    48    39    41   am
    49    21    23    1
