@<TRIPOS>MOLECULE
3b82_NAD_B_1.pdb
 44 48 0 0 0
SMALL
GASTEIGER

@<TRIPOS>ATOM
      1  PA         3.9580   -5.2490   94.2850 P.3   700  NAD700      0.2189
      2  O1A        2.5650   -4.9230   94.7560 O.2   700  NAD700     -0.5170
      3  O2A        4.9940   -5.7210   95.2780 O.3   700  NAD700     -0.4371
      4  O5B        4.4890   -3.9060   93.5710 O.3   700  NAD700     -0.3112
      5  C5B        3.5710   -3.1380   92.7910 C.3   700  NAD700      0.1813
      6  C4B        4.1130   -2.8040   91.3970 C.3   700  NAD700      0.1821
      7  O4B        4.5330   -1.4380   91.2540 O.3   700  NAD700     -0.3135
      8  C3B        5.2810   -3.6720   90.9280 C.3   700  NAD700      0.2184
      9  O3B        4.8600   -4.5390   89.8700 O.3   700  NAD700     -0.2174
     10  C2B        6.3220   -2.7030   90.3970 C.3   700  NAD700      0.2570
     11  O2B        6.8670   -3.1440   89.1500 O.3   700  NAD700     -0.2130
     12  C1B        5.5300   -1.4170   90.2250 C.3   700  NAD700      0.3186
     13  N9A        6.3980   -0.2030   90.1650 N.pl3 700  NAD700     -0.1439
     14  C8A        6.2540    0.7700   89.2510 C.3   700  NAD700      0.3377
     15  N7A        7.1820    1.7240   89.4620 N.2   700  NAD700     -0.2095
     16  C5A        7.9150    1.3460   90.5240 C.2   700  NAD700      0.2526
     17  C6A        8.9870    1.9410   91.1680 C.2   700  NAD700      0.4393
     18  N6A        9.4650    3.1310   90.7250 N.pl3 700  NAD700      0.2180
     19  N1A        9.5340    1.3140   92.2310 N.2   700  NAD700      0.0021
     20  C2A        9.0440    0.1360   92.6520 C.3   700  NAD700      0.5254
     21  N3A        8.0040   -0.4600   92.0450 N.2   700  NAD700     -0.0055
     22  C4A        7.4140    0.1320   90.9760 C.2   700  NAD700      0.3518
     23  O3         3.8810   -6.3540   93.1180 O.3   700  NAD700     -0.2703
     24  PN         5.1470   -7.3030   92.8100 P.3   700  NAD700      0.2189
     25  O1N        6.4150   -6.5320   93.0850 O.3   700  NAD700     -0.4371
     26  O2N        4.9560   -7.9470   91.4610 O.2   700  NAD700     -0.5170
     27  O5D        4.9080   -8.4120   93.9520 O.3   700  NAD700     -0.3112
     28  C5D        3.8250   -9.3250   93.7900 C.3   700  NAD700      0.1813
     29  C4D        4.1160  -10.6410   94.4940 C.3   700  NAD700      0.1799
     30  O4D        4.9140  -11.4380   93.6190 O.3   700  NAD700     -0.3327
     31  C3D        4.8690  -10.4730   95.7950 C.3   700  NAD700      0.2158
     32  O3D        3.9750  -10.7210   96.8800 O.3   700  NAD700     -0.2175
     33  C2D        5.9340  -11.5500   95.7230 C.3   700  NAD700      0.2309
     34  O2D        5.6450  -12.5580   96.6980 O.3   700  NAD700     -0.2158
     35  C1D        5.8840  -12.1830   94.3390 C.3   700  NAD700      0.2263
     36  N1N        7.1740  -12.0220   93.6590 N.pl3 700  NAD700     -0.2787
     37  C2N        7.2810  -11.1450   92.6470 C.3   700  NAD700      0.1244
     38  C3N        8.4910  -10.9640   91.9780 C.2   700  NAD700      0.0544
     39  C7N        8.6100   -9.9830   90.8460 C.2   700  NAD700      0.2818
     40  O7N        9.5050  -10.1340   90.0310 O.2   700  NAD700     -0.2670
     41  N7N        7.7360   -8.9830   90.7530 N.am  700  NAD700     -0.0839
     42  C4N        9.5980  -11.7120   92.3570 C.2   700  NAD700      0.0033
     43  C5N        9.4640  -12.6160   93.4010 C.2   700  NAD700      0.0157
     44  C6N        8.2310  -12.7600   94.0330 C.2   700  NAD700      0.0633
@<TRIPOS>BOND
     1    11    10    1
     2    14    15    1
     3    14    13    1
     4    15    16    2
     5     9     8    1
     6    40    39    2
     7    13    12    1
     8    13    22    1
     9    12    10    1
    10    12     7    1
    11    10     8    1
    12    16    22    1
    13    16    17    1
    14    18    17    1
    15    41    39   am
    16    39    38    1
    17     8     6    1
    18    22    21    2
    19    17    19    2
    20     7     6    1
    21     6     5    1
    22    26    24    2
    23    38    42    2
    24    38    37    1
    25    21    20    1
    26    19    20    1
    27    42    43    1
    28    37    36    1
    29     5     4    1
    30    24    25    1
    31    24    23    1
    32    24    27    1
    33    23     1    1
    34    43    44    2
    35     4     1    1
    36    30    35    1
    37    30    29    1
    38    36    44    1
    39    36    35    1
    40    28    27    1
    41    28    29    1
    42     1     2    2
    43     1     3    1
    44    35    33    1
    45    29    31    1
    46    33    31    1
    47    33    34    1
    48    31    32    1
