@<TRIPOS>MOLECULE
3b86_PG4_B_1.pdb
 13 12 0 0 0
SMALL
GASTEIGER

@<TRIPOS>ATOM
      1  O1        28.6200   21.0320   -4.6090 O.3   224  PG4224     -0.2176
      2  C1        28.6730   22.4430   -4.8420 C.3   224  PG4224      0.2140
      3  C2        27.7250   22.7540   -5.9930 C.3   224  PG4224      0.1777
      4  O2        28.2460   22.1970   -7.1980 O.3   224  PG4224     -0.3483
      5  C3        27.3650   21.2590   -7.8170 C.3   224  PG4224      0.1742
      6  C4        27.3690   21.4850   -9.3260 C.3   224  PG4224      0.1742
      7  O3        26.5500   20.5050   -9.9620 O.3   224  PG4224     -0.3484
      8  C5        26.5840   20.6250  -11.3810 C.3   224  PG4224      0.1742
      9  C6        26.1320   19.3150  -12.0180 C.3   224  PG4224      0.1742
     10  O4        27.2460   18.6010  -12.5550 O.3   224  PG4224     -0.3483
     11  C7        27.4240   17.3480  -11.8930 C.3   224  PG4224      0.1777
     12  C8        28.6000   16.5780  -12.4830 C.3   224  PG4224      0.2140
     13  O5        28.2880   15.1870  -12.4690 O.3   224  PG4224     -0.2176
@<TRIPOS>BOND
     1    10     9    1
     2    10    11    1
     3    12    13    1
     4    12    11    1
     5     9     8    1
     6     8     7    1
     7     7     6    1
     8     6     5    1
     9     5     4    1
    10     4     3    1
    11     3     2    1
    12     2     1    1
