@<TRIPOS>MOLECULE
3b88_ETE_A_1.pdb
 14 13 0 0 0
SMALL
GASTEIGER

@<TRIPOS>ATOM
      1  OH2      -12.6260  -15.1030   24.3730 O.3   224  ETE224     -0.2176
      2  C12      -13.1660  -14.0630   23.5430 C.3   224  ETE224      0.2140
      3  C22      -12.2270  -13.8100   22.3610 C.3   224  ETE224      0.1777
      4  OH3      -12.6370  -14.5040   21.1750 O.3   224  ETE224     -0.3483
      5  C13      -12.0340  -16.5980   20.0820 C.3   224  ETE224      0.1742
      6  C23      -12.5390  -15.9220   21.3500 C.3   224  ETE224      0.1742
      7  OH4      -12.5630  -15.9950   18.8990 O.3   224  ETE224     -0.3484
      8  C14      -12.9560  -16.4540   16.5540 C.3   224  ETE224      0.1742
      9  C24      -12.7120  -17.0310   17.9290 C.3   224  ETE224      0.1742
     10  OH5      -12.2850  -17.2700   15.6000 O.3   224  ETE224     -0.3484
     11  C15      -10.0230  -17.0680   14.6820 C.3   224  ETE224      0.1742
     12  C25      -11.4180  -16.4680   14.7980 C.3   224  ETE224      0.1742
     13  OH6       -9.6330  -17.0500   13.3110 O.3   224  ETE224     -0.3484
     14  C26       -8.7960  -15.9430   12.9730 C.3   224  ETE224      0.1742
@<TRIPOS>BOND
     1    14    13    1
     2    13    11    1
     3    11    12    1
     4    12    10    1
     5    10     8    1
     6     8     9    1
     7     9     7    1
     8     7     5    1
     9     5     6    1
    10     4     6    1
    11     4     3    1
    12     3     2    1
    13     2     1    1
