@<TRIPOS>MOLECULE
3b89_5GP_A_1.pdb
 24 26 0 0 0
SMALL
GASTEIGER

@<TRIPOS>ATOM
      1  P          9.3400   20.8370   28.4560 P.3   500  5GP500      0.5327
      2  O1P        9.6490   19.5690   29.3410 O.3   500  5GP500     -0.1145
      3  O2P        7.9690   20.5220   27.6370 O.2   500  5GP500     -0.2224
      4  O3P        9.2320   22.1960   29.1270 O.3   500  5GP500     -0.1145
      5  O5'       10.5070   20.8320   27.2960 O.3   500  5GP500     -0.2675
      6  C5'       10.6330   21.8110   26.2690 C.3   500  5GP500      0.1859
      7  C4'       11.5930   22.7790   26.9290 C.3   500  5GP500      0.1801
      8  O4'       12.9180   22.8810   26.3130 O.3   500  5GP500     -0.3326
      9  C3'       11.1010   24.2670   27.0460 C.3   500  5GP500      0.2158
     10  O3'       11.2400   24.6420   28.4670 O.3   500  5GP500     -0.2175
     11  C2'       11.9720   25.0030   26.0390 C.3   500  5GP500      0.2310
     12  O2'       12.1590   26.3790   26.1110 O.3   500  5GP500     -0.2158
     13  C1'       13.3060   24.2700   26.0550 C.3   500  5GP500      0.2293
     14  N9        14.1510   24.1670   24.7820 N.pl3 500  5GP500     -0.2354
     15  C8        13.7720   24.1100   23.4890 C.3   500  5GP500      0.2246
     16  N7        14.8770   24.0130   22.6930 N.2   500  5GP500     -0.2322
     17  C5        15.9650   24.0100   23.5020 C.2   500  5GP500      0.2182
     18  C6        17.3620   23.9290   23.2680 C.1   500  5GP500      0.2372
     19  O6        17.7900   23.8410   22.0890 O.2   500  5GP500     -0.2069
     20  N1        18.2240   23.9490   24.3350 N.2   500  5GP500     -0.2485
     21  C2        17.7570   24.0460   25.6280 C.1   500  5GP500      0.2531
     22  N2        18.6060   24.0670   26.6890 N.pl3 500  5GP500     -0.0226
     23  N3        16.4040   24.1240   25.8700 N.2   500  5GP500     -0.3074
     24  C4        15.4960   24.1030   24.8230 C.2   500  5GP500      0.2300
@<TRIPOS>BOND
     1    19    18    2
     2    16    15    1
     3    16    17    2
     4    18    17    1
     5    18    20    2
     6    15    14    1
     7    17    24    1
     8    20    21    2
     9    14    24    1
    10    14    13    1
    11    24    23    2
    12    21    23    2
    13    21    22    1
    14    11    13    1
    15    11    12    1
    16    11     9    1
    17    13     8    1
    18     6     7    1
    19     6     5    1
    20     8     7    1
    21     7     9    1
    22     9    10    1
    23     5     1    1
    24     3     1    2
    25     1     4    1
    26     1     2    1
