@<TRIPOS>MOLECULE
3b8a_BGC_X_1.pdb
 12 12 0 0 0
SMALL
GASTEIGER

@<TRIPOS>ATOM
      1  C2        28.7570    6.2680   49.0640 C.3   501  BGC501      0.2434
      2  C3        28.0680    6.9750   47.9020 C.3   501  BGC501      0.2199
      3  C4        26.6570    7.4230   48.2730 C.3   501  BGC501      0.2144
      4  C5        26.6060    8.0860   49.6420 C.3   501  BGC501      0.1836
      5  C6        25.1700    8.3930   50.0410 C.3   501  BGC501      0.2142
      6  C1        28.5770    7.0540   50.3570 C.3   501  BGC501      0.3024
      7  O1        29.1440    6.3380   51.4270 O.3   501  BGC501     -0.1869
      8  O2        30.1310    6.1260   48.7880 O.3   501  BGC501     -0.2148
      9  O3        27.9930    6.1110   46.7880 O.3   501  BGC501     -0.2174
     10  O4        26.2080    8.3520   47.3130 O.3   501  BGC501     -0.2176
     11  O5        27.2020    7.2460   50.6050 O.3   501  BGC501     -0.3236
     12  O6        24.5330    7.1920   50.4000 O.3   501  BGC501     -0.2176
@<TRIPOS>BOND
     1     9     2    1
     2    10     3    1
     3     2     3    1
     4     2     1    1
     5     3     4    1
     6     8     1    1
     7     1     6    1
     8     4     5    1
     9     4    11    1
    10     5    12    1
    11     6    11    1
    12     6     7    1
