@<TRIPOS>MOLECULE
3b8c_ACP_A_1.pdb
 31 33 0 0 0
SMALL
GASTEIGER

@<TRIPOS>ATOM
      1  PG        -7.4140  -11.8600   51.6830 P.3   1001  ACP1001     0.1295
      2  O1G       -7.8390  -13.2380   51.4290 O.3   1001  ACP1001    -0.3567
      3  O2G       -6.1930  -11.6850   52.6570 O.3   1001  ACP1001    -0.3567
      4  O3G       -6.7330  -11.3820   50.2800 O.2   1001  ACP1001    -0.4595
      5  PB        -9.4750  -11.0750   53.5770 P.3   1001  ACP1001     0.3815
      6  O1B      -10.5380  -10.0770   53.8840 O.2   1001  ACP1001    -0.2547
      7  O2B       -8.4490  -11.1060   54.8130 O.3   1001  ACP1001    -0.1391
      8  C3B       -8.5820  -10.7290   52.2050 C.3   1001  ACP1001     0.1768
      9  PA       -10.4750  -13.8800   54.7690 P.3   1001  ACP1001     0.2209
     10  O1A       -9.2520  -14.3820   55.3430 O.3   1001  ACP1001    -0.4371
     11  O2A      -11.2200  -14.8060   53.7550 O.2   1001  ACP1001    -0.5170
     12  O3A      -10.2320  -12.5410   53.8050 O.3   1001  ACP1001    -0.2483
     13  O5'      -11.5870  -13.6260   55.9860 O.3   1001  ACP1001    -0.3111
     14  C5'      -11.2300  -12.9430   57.2440 C.3   1001  ACP1001     0.1813
     15  C4'      -11.2370  -13.9280   58.3780 C.3   1001  ACP1001     0.1821
     16  O4'      -11.4870  -15.2050   57.7170 O.3   1001  ACP1001    -0.3135
     17  C3'       -9.8490  -14.3230   58.9760 C.3   1001  ACP1001     0.2184
     18  O3'       -9.1920  -13.7390   59.9640 O.3   1001  ACP1001    -0.2174
     19  C2'      -10.1830  -15.6990   59.4920 C.3   1001  ACP1001     0.2570
     20  O2'      -10.3110  -15.6830   60.8850 O.3   1001  ACP1001    -0.2130
     21  C1'      -11.4820  -16.0630   58.8530 C.3   1001  ACP1001     0.3186
     22  N9       -11.4850  -17.5110   58.4250 N.pl3 1001  ACP1001    -0.1439
     23  C8       -10.4040  -18.2020   58.0680 C.3   1001  ACP1001     0.3377
     24  N7       -10.7420  -19.4660   57.6450 N.2   1001  ACP1001    -0.2095
     25  C5       -12.1080  -19.5060   57.7830 C.2   1001  ACP1001     0.2526
     26  C6       -13.0450  -20.5880   57.5030 C.2   1001  ACP1001     0.4393
     27  N6       -12.5950  -21.7470   57.1130 N.pl3 1001  ACP1001     0.2180
     28  N1       -14.3790  -20.2930   57.7440 N.2   1001  ACP1001     0.0021
     29  C2       -14.7240  -19.0750   58.2240 C.3   1001  ACP1001     0.5254
     30  N3       -13.9650  -17.9800   58.5200 N.2   1001  ACP1001    -0.0055
     31  C4       -12.6050  -18.2390   58.2830 C.2   1001  ACP1001     0.3518
@<TRIPOS>BOND
     1     4     1    2
     2     2     1    1
     3     1     8    1
     4     1     3    1
     5     8     5    1
     6     5    12    1
     7     5     6    2
     8     5     7    1
     9    11     9    2
    10    12     9    1
    11     9    10    1
    12     9    13    1
    13    13    14    1
    14    27    26    1
    15    14    15    1
    16    26    28    2
    17    26    25    1
    18    24    25    2
    19    24    23    1
    20    16    15    1
    21    16    21    1
    22    28    29    1
    23    25    31    1
    24    23    22    1
    25    29    30    1
    26    31    22    1
    27    31    30    2
    28    15    17    1
    29    22    21    1
    30    21    19    1
    31    17    19    1
    32    17    18    1
    33    19    20    1
