@<TRIPOS>MOLECULE
3b8g_NLG_A_1.pdb
 13 12 0 0 0
SMALL
GASTEIGER

@<TRIPOS>ATOM
      1  CA        37.4540   -5.1150    8.6600 C.3   437  NLG437      0.1983
      2  C         37.0360   -4.9500    7.2310 C.2   437  NLG437      0.3842
      3  OXT       37.9050   -5.2900    6.3850 O.co2 437  NLG437     -0.2437
      4  O         35.8670   -4.6080    6.9160 O.co2 437  NLG437     -0.2437
      5  CB        37.5200   -6.6170    8.7260 C.3   437  NLG437      0.0451
      6  CG        38.1320   -7.2470    9.9620 C.3   437  NLG437      0.1164
      7  CD        38.0550   -8.7800    9.8450 C.2   437  NLG437      0.3649
      8  OE1       37.1820   -9.3560    9.1480 O.co2 437  NLG437     -0.2457
      9  OE2       38.7800   -9.5000   10.5760 O.co2 437  NLG437     -0.2457
     10  C7        35.8500   -3.6210    9.7350 C.2   437  NLG437      0.2423
     11  C8        34.7410   -3.4700   10.7290 C.3   437  NLG437      0.0964
     12  O7        36.2310   -2.6290    9.1480 O.2   437  NLG437     -0.2733
     13  N2        36.3270   -4.8560    9.5260 N.am  437  NLG437     -0.1956
@<TRIPOS>BOND
     1     3     2   ar
     2     4     2   ar
     3     2     1    1
     4     1     5    1
     5     1    13    1
     6     5     6    1
     7     8     7   ar
     8    12    10    2
     9    13    10   am
    10    10    11    1
    11     7     6    1
    12     7     9   ar
