@<TRIPOS>MOLECULE
3b8g_COA_A_1.pdb
 48 50 0 0 0
SMALL
GASTEIGER

@<TRIPOS>ATOM
      1  N1A       40.0420   -0.1640   20.6390 N.2     1  COA1        0.0021
      2  C2A       39.2650    0.4960   21.4880 C.3     1  COA1        0.5254
      3  N3A       38.9820    1.7970   21.3880 N.2     1  COA1       -0.0055
      4  C4A       39.5950    2.4510   20.3940 C.2     1  COA1        0.3518
      5  C5A       40.4760    1.8250   19.5270 C.2     1  COA1        0.2526
      6  C6A       40.6120    0.4590   19.5960 C.2     1  COA1        0.4393
      7  N6A       41.4170   -0.1040   18.6930 N.pl3   1  COA1        0.2180
      8  N7A       40.9370    2.6930   18.6450 N.2     1  COA1       -0.2095
      9  C8A       40.3190    3.8530   18.9340 C.3     1  COA1        0.3377
     10  N9A       39.4980    3.7010   19.9840 N.pl3   1  COA1       -0.1439
     11  C1B       38.7630    4.7170   20.7530 C.3     1  COA1        0.3185
     12  C2B       39.8730    5.7680   20.8420 C.3     1  COA1        0.2543
     13  O2B       40.7540    5.3650   21.9090 O.3     1  COA1       -0.2131
     14  C3B       39.0150    6.9190   21.3250 C.3     1  COA1        0.1928
     15  O3B       38.7770    6.6030   22.7200 O.3     1  COA1       -0.2673
     16  P3B       37.9850    7.7220   23.6110 P.3     1  COA1        0.5327
     17  O7A       36.3810    7.6280   23.2140 O.2     1  COA1       -0.2224
     18  O8A       37.9540    7.3330   25.2020 O.3     1  COA1       -0.1145
     19  O9A       38.7180    8.9630   23.2220 O.3     1  COA1       -0.1145
     20  C4B       37.7340    6.7450   20.4650 C.3     1  COA1        0.1795
     21  O4B       37.6350    5.3590   20.1000 O.3     1  COA1       -0.3136
     22  C5B       37.5730    7.4490   19.1190 C.3     1  COA1        0.1812
     23  O5B       36.2290    7.2580   18.6810 O.3     1  COA1       -0.3112
     24  P1A       35.8060    8.1870   17.4380 P.3     1  COA1        0.2189
     25  O1A       34.3100    8.2720   17.3180 O.2     1  COA1       -0.5170
     26  O2A       36.6240    9.4220   17.5350 O.3     1  COA1       -0.4371
     27  O3A       36.3810    7.3110   16.2030 O.3     1  COA1       -0.2703
     28  P2A       37.6320    7.6950   15.2930 P.3     1  COA1        0.2188
     29  O4A       38.8640    7.9400   16.0860 O.3     1  COA1       -0.4371
     30  O5A       37.1970    8.7210   14.3090 O.2     1  COA1       -0.5170
     31  O6A       37.8200    6.2340   14.5450 O.3     1  COA1       -0.3138
     32  CBP       38.5300    3.8780   14.5520 C.3     1  COA1        0.0645
     33  CCP       37.6940    4.9700   15.2230 C.3     1  COA1        0.1519
     34  CDP       38.0660    3.7230   13.1120 C.3     1  COA1        0.0056
     35  CEP       38.3120    2.6530   15.4060 C.3     1  COA1        0.0056
     36  CAP       40.0310    4.1400   14.5990 C.3     1  COA1        0.2312
     37  OAP       40.1880    5.5310   14.4660 O.3     1  COA1       -0.2131
     38  C9P       40.7940    3.4840   13.4370 C.2     1  COA1        0.2719
     39  O9P       40.6880    3.8150   12.2390 O.2     1  COA1       -0.2706
     40  N8P       41.6120    2.5360   13.8830 N.am    1  COA1       -0.2028
     41  C7P       42.3350    1.7280   12.8830 C.3     1  COA1        0.1249
     42  C6P       41.3990    1.2490   11.7510 C.3     1  COA1        0.1105
     43  C5P       40.4580    0.1470   12.2840 C.2     1  COA1        0.2471
     44  O5P       40.6260   -0.4870   13.3440 O.2     1  COA1       -0.2729
     45  N4P       39.3770    0.0720   11.5140 N.am    1  COA1       -0.1816
     46  C3P       38.3990   -0.8150   11.6710 C.2     1  COA1        0.0748
     47  C2P       38.3970   -1.6500   12.7770 C.3     1  COA1        0.1127
     48  S1P       37.8200   -3.3130   12.2810 S.3     1  COA1       -0.0755
@<TRIPOS>BOND
     1    45    46    2
     2    45    43    1
     3    46    47    1
     4    42    43    1
     5    42    41    1
     6    39    38    2
     7    48    47    1
     8    43    44    2
     9    41    40    1
    10    34    32    1
    11    38    40   am
    12    38    36    1
    13    30    28    2
    14    37    36    1
    15    31    33    1
    16    31    28    1
    17    32    36    1
    18    32    33    1
    19    32    35    1
    20    28    29    1
    21    28    27    1
    22    27    24    1
    23    25    24    2
    24    24    26    1
    25    24    23    1
    26     8     9    1
    27     8     5    2
    28    23    22    1
    29     7     6    1
    30     9    10    1
    31    22    20    1
    32     5     6    1
    33     5     4    1
    34     6     1    2
    35    10     4    1
    36    10    11    1
    37    21    20    1
    38    21    11    1
    39     4     3    2
    40    20    14    1
    41     1     2    1
    42    11    12    1
    43    12    14    1
    44    12    13    1
    45    14    15    1
    46     3     2    1
    47    15    16    1
    48    17    16    2
    49    19    16    1
    50    16    18    1
