@<TRIPOS>MOLECULE
3b8h_NAD_B_1.pdb
 44 48 0 0 0
SMALL
GASTEIGER

@<TRIPOS>ATOM
      1  PA         3.5920   -5.3490   94.8520 P.3   700  NAD700      0.2189
      2  O1A        2.1670   -5.0600   95.2540 O.2   700  NAD700     -0.5170
      3  O2A        4.5770   -5.8150   95.8990 O.3   700  NAD700     -0.4371
      4  O5B        4.1380   -3.9960   94.1880 O.3   700  NAD700     -0.3112
      5  C5B        3.2550   -3.2870   93.3450 C.3   700  NAD700      0.1813
      6  C4B        3.8720   -2.9040   92.0110 C.3   700  NAD700      0.1821
      7  O4B        4.3750   -1.5660   91.9670 O.3   700  NAD700     -0.3135
      8  C3B        5.0000   -3.8080   91.5450 C.3   700  NAD700      0.2184
      9  O3B        4.5610   -4.6010   90.4500 O.3   700  NAD700     -0.2174
     10  C2B        6.0690   -2.8770   91.0350 C.3   700  NAD700      0.2570
     11  O2B        6.5670   -3.3490   89.7820 O.3   700  NAD700     -0.2130
     12  C1B        5.2940   -1.5800   90.8780 C.3   700  NAD700      0.3186
     13  N9A        6.1480   -0.3740   90.7330 N.pl3 700  NAD700     -0.1439
     14  C8A        6.0120    0.5470   89.7660 C.3   700  NAD700      0.3377
     15  N7A        6.9440    1.5070   89.9350 N.2   700  NAD700     -0.2095
     16  C5A        7.6620    1.1800   91.0280 C.2   700  NAD700      0.2526
     17  C6A        8.7320    1.7760   91.6740 C.2   700  NAD700      0.4393
     18  N6A        9.2470    2.9380   91.1990 N.pl3 700  NAD700      0.2180
     19  N1A        9.2440    1.1820   92.7770 N.2   700  NAD700      0.0021
     20  C2A        8.7300    0.0350   93.2420 C.3   700  NAD700      0.5254
     21  N3A        7.6980   -0.5600   92.6340 N.2   700  NAD700     -0.0055
     22  C4A        7.1470   -0.0000   91.5330 C.2   700  NAD700      0.3518
     23  O3         3.5960   -6.4100   93.6370 O.3   700  NAD700     -0.2703
     24  PN         4.8320   -7.4080   93.3430 P.3   700  NAD700      0.2189
     25  O1N        6.1420   -6.7110   93.6110 O.3   700  NAD700     -0.4371
     26  O2N        4.5840   -8.0510   92.0060 O.2   700  NAD700     -0.5170
     27  O5D        4.6070   -8.5110   94.4900 O.3   700  NAD700     -0.3112
     28  C5D        3.4200   -9.2980   94.4940 C.3   700  NAD700      0.1813
     29  C4D        3.6990  -10.6640   95.1000 C.3   700  NAD700      0.1799
     30  O4D        4.4730  -11.4360   94.1840 O.3   700  NAD700     -0.3327
     31  C3D        4.5020  -10.5830   96.3830 C.3   700  NAD700      0.2158
     32  O3D        3.6500  -10.6830   97.5270 O.3   700  NAD700     -0.2175
     33  C2D        5.4460  -11.7640   96.3120 C.3   700  NAD700      0.2309
     34  O2D        4.9690  -12.8040   97.1740 O.3   700  NAD700     -0.2158
     35  C1D        5.4050  -12.2640   94.8770 C.3   700  NAD700      0.2263
     36  N1N        6.7160  -12.1380   94.2290 N.pl3 700  NAD700     -0.2787
     37  C2N        6.8700  -11.2820   93.2060 C.3   700  NAD700      0.1244
     38  C3N        8.0980  -11.1480   92.5600 C.2   700  NAD700      0.0544
     39  C7N        8.2530  -10.1820   91.4160 C.2   700  NAD700      0.2818
     40  O7N        9.1570  -10.3360   90.6130 O.2   700  NAD700     -0.2670
     41  N7N        7.3840   -9.1840   91.2910 N.am  700  NAD700     -0.0839
     42  C4N        9.1730  -11.9250   92.9740 C.2   700  NAD700      0.0033
     43  C5N        8.9880  -12.8100   94.0300 C.2   700  NAD700      0.0157
     44  C6N        7.7380  -12.9060   94.6360 C.2   700  NAD700      0.0633
@<TRIPOS>BOND
     1    14    15    1
     2    14    13    1
     3    11    10    1
     4    15    16    2
     5     9     8    1
     6    40    39    2
     7    13    12    1
     8    13    22    1
     9    12    10    1
    10    12     7    1
    11    16    22    1
    12    16    17    1
    13    10     8    1
    14    18    17    1
    15    41    39   am
    16    39    38    1
    17    22    21    2
    18     8     6    1
    19    17    19    2
    20     7     6    1
    21    26    24    2
    22     6     5    1
    23    38    42    2
    24    38    37    1
    25    21    20    1
    26    19    20    1
    27    42    43    1
    28    37    36    1
    29    24    25    1
    30    24    23    1
    31    24    27    1
    32     5     4    1
    33    23     1    1
    34    43    44    2
    35    30    35    1
    36    30    29    1
    37     4     1    1
    38    36    44    1
    39    36    35    1
    40    27    28    1
    41    28    29    1
    42     1     2    2
    43     1     3    1
    44    35    33    1
    45    29    31    1
    46    33    31    1
    47    33    34    1
    48    31    32    1
