@<TRIPOS>MOLECULE
3b8q_900_A_1.pdb
 35 39 0 0 0
SMALL
GASTEIGER

@<TRIPOS>ATOM
      1  C1        38.1640   30.8980   14.4080 C.ar  501  900501      0.1453
      2  C2        36.7890   30.9680   14.0220 C.ar  501  900501      0.0375
      3  C3        36.2290   32.1870   13.5170 C.ar  501  900501      0.0032
      4  C4        37.0580   33.3860   13.3920 C.ar  501  900501      0.0046
      5  C5        38.4520   33.2890   13.8110 C.ar  501  900501      0.0033
      6  C6        38.9810   32.0690   14.3130 C.ar  501  900501      0.0375
      7  C10       34.8620   32.2130   13.1340 C.ar  501  900501      0.0001
      8  C11       34.2850   33.4020   12.6110 C.ar  501  900501      0.0001
      9  C12       35.0690   34.5780   12.4510 C.ar  501  900501      0.0046
     10  C13       36.4570   34.6100   12.8230 C.ar  501  900501      0.0554
     11  O17       38.6460   29.6540   14.8490 O.3   501  900501     -0.4534
     12  C18       39.3010   28.8990   13.8410 C.ar  501  900501      0.1483
     13  C19       40.0940   27.7880   14.2350 C.ar  501  900501      0.0554
     14  C20       40.8010   26.9730   13.2970 C.ar  501  900501      0.0875
     15  N21       40.6630   27.2810   11.9610 N.ar  501  900501     -0.2435
     16  C22       39.8980   28.3410   11.5740 C.ar  501  900501      0.1020
     17  C23       39.2050   29.1680   12.4840 C.ar  501  900501      0.0581
     18  C26       40.2090   27.4990   15.5890 C.ar  501  900501      0.0446
     19  C27       40.9740   26.4310   16.0540 C.ar  501  900501      0.1726
     20  C28       41.6960   25.6140   15.1630 C.ar  501  900501      0.1739
     21  C29       41.5930   25.8800   13.7690 C.ar  501  900501      0.0592
     22  O32       40.9480   26.2870   17.4440 O.3   501  900501     -0.4684
     23  C33       41.9720   26.8800   18.1980 C.3   501  900501      0.2526
     24  O37       42.4650   24.5670   15.7070 O.3   501  900501     -0.4683
     25  C38       43.7110   24.9600   16.3000 C.3   501  900501      0.2526
     26  C42       37.2430   35.8540   12.5900 C.2   501  900501      0.2690
     27  N43       36.5560   37.0230   12.4530 N.am  501  900501     -0.1754
     28  C44       37.1190   38.2650   12.1910 C.ar  501  900501      0.0737
     29  C45       36.8210   39.3750   13.0020 C.ar  501  900501      0.0175
     30  C46       37.4040   40.6300   12.7270 C.ar  501  900501      0.0127
     31  C47       38.3010   40.7660   11.6160 C.ar  501  900501      0.0578
     32  C48       38.6220   39.6820   10.7800 C.ar  501  900501      0.0127
     33  C49       38.0300   38.4250   11.0660 C.ar  501  900501      0.0175
     34 CL54       39.0140   42.2980   11.2950 Cl    501  900501     -0.0822
     35  O55       38.4510   35.8190   12.4660 O.2   501  900501     -0.2680
@<TRIPOS>BOND
     1    32    33   ar
     2    32    31   ar
     3    33    28   ar
     4    34    31    1
     5    16    15   ar
     6    16    17   ar
     7    31    30   ar
     8    15    14   ar
     9    28    27    1
    10    28    29   ar
    11     9     8   ar
    12     9    10   ar
    13    27    26   am
    14    35    26    2
    15    17    12   ar
    16    26    10    1
    17     8     7   ar
    18    30    29   ar
    19    10     4   ar
    20     7     3   ar
    21    14    21   ar
    22    14    13   ar
    23     4     3   ar
    24     4     5   ar
    25     3     2   ar
    26    21    20   ar
    27     5     6   ar
    28    12    13   ar
    29    12    11    1
    30     2     1   ar
    31    13    18   ar
    32     6     1   ar
    33     1    11    1
    34    20    24    1
    35    20    19   ar
    36    18    19   ar
    37    24    25    1
    38    19    22    1
    39    22    23    1
