@<TRIPOS>MOLECULE
3b8r_887_A_1.pdb
 31 35 0 0 0
SMALL
GASTEIGER

@<TRIPOS>ATOM
      1  C1         9.6630   -0.9740   57.7900 C.ar  201  887201      0.1453
      2  C2         8.2800   -0.9800   57.4030 C.ar  201  887201      0.0375
      3  C3         7.6460    0.2470   57.0080 C.ar  201  887201      0.0032
      4  C4         8.3930    1.5060   57.0020 C.ar  201  887201      0.0046
      5  C5         9.7940    1.4620   57.4040 C.ar  201  887201      0.0033
      6  C6        10.4050    0.2470   57.7900 C.ar  201  887201      0.0375
      7  C10        6.2790    0.2260   56.6280 C.ar  201  887201      0.0001
      8  C11        5.6380    1.4310   56.2390 C.ar  201  887201      0.0001
      9  C12        6.3430    2.6620   56.2200 C.ar  201  887201      0.0046
     10  C13        7.7130    2.7420   56.5880 C.ar  201  887201      0.0550
     11  O17       10.3100   -2.1490   58.1880 O.3   201  887201     -0.4534
     12  C18       10.9850   -2.9670   57.2490 C.ar  201  887201      0.1483
     13  C19       11.8120   -4.0190   57.7660 C.ar  201  887201      0.0554
     14  C20       12.5220   -4.8930   56.8690 C.ar  201  887201      0.0875
     15  N21       12.3780   -4.7020   55.5000 N.ar  201  887201     -0.2435
     16  C22       11.5960   -3.7000   54.9880 C.ar  201  887201      0.1020
     17  C23       10.8780   -2.8110   55.8210 C.ar  201  887201      0.0581
     18  C26       11.9530   -4.2000   59.1780 C.ar  201  887201      0.0446
     19  C27       12.7810   -5.2430   59.7160 C.ar  201  887201      0.1726
     20  C28       13.4880   -6.1150   58.8180 C.ar  201  887201      0.1739
     21  C29       13.3340   -5.9210   57.4020 C.ar  201  887201      0.0592
     22  O32       12.8410   -5.3400   61.1450 O.3   201  887201     -0.4684
     23  O33       14.3000   -7.1330   59.3790 O.3   201  887201     -0.4683
     24  C34       14.7210   -8.2170   58.5470 C.3   201  887201      0.2526
     25  C38       12.9530   -4.1590   61.9420 C.3   201  887201      0.2526
     26  C42        8.3820    4.0670   56.5320 C.2   201  887201      0.2647
     27  N43        7.5770    5.1570   56.8120 N.am  201  887201     -0.2034
     28  C44        8.0770    6.5130   56.8010 C.3   201  887201      0.0957
     29  O45        9.5720    4.2070   56.2470 O.2   201  887201     -0.2684
     30  C46        8.0550    6.8510   55.3300 C.3   201  887201      0.0234
     31  C47        7.2930    7.6450   56.3380 C.3   201  887201      0.0234
@<TRIPOS>BOND
     1    16    15   ar
     2    16    17   ar
     3    30    31    1
     4    30    28    1
     5    15    14   ar
     6    17    12   ar
     7     9     8   ar
     8     9    10   ar
     9     8     7   ar
    10    29    26    2
    11    31    28    1
    12    26    10    1
    13    26    27   am
    14    10     4   ar
    15     7     3   ar
    16    28    27    1
    17    14    21   ar
    18    14    13   ar
    19     4     3   ar
    20     4     5   ar
    21     3     2   ar
    22    12    13   ar
    23    12    11    1
    24    21    20   ar
    25     2     1   ar
    26     5     6   ar
    27    13    18   ar
    28     1     6   ar
    29     1    11    1
    30    24    23    1
    31    20    23    1
    32    20    19   ar
    33    18    19   ar
    34    19    22    1
    35    22    25    1
