@<TRIPOS>MOLECULE
3b8w_PLP_A_1.pdb
 15 15 0 0 0
SMALL
GASTEIGER

@<TRIPOS>ATOM
      1  N1        50.7590    1.6470    7.5630 N.ar  1001  PLP1001    -0.2452
      2  C2        50.7110    0.3900    6.9940 C.ar  1001  PLP1001     0.0978
      3  C2A       50.6470   -0.8620    7.8290 C.3   1001  PLP1001     0.0555
      4  C3        50.6200    0.3210    5.5780 C.ar  1001  PLP1001     0.2049
      5  O3        50.6380   -0.9930    5.0050 O.3   1001  PLP1001    -0.2857
      6  C4        50.5540    1.5480    4.8760 C.ar  1001  PLP1001     0.0182
      7  C4A       50.8070    1.5460    3.4130 C.3   1001  PLP1001     0.0342
      8  C5        50.5310    2.8230    5.5040 C.ar  1001  PLP1001     0.0261
      9  C6        50.6930    2.8580    6.9210 C.ar  1001  PLP1001     0.0965
     10  C5A       50.1380    4.1890    4.8380 C.3   1001  PLP1001     0.1815
     11  O4P       48.6830    4.4930    4.5410 O.3   1001  PLP1001    -0.2653
     12  P         48.1070    5.6350    3.8670 P.3   1001  PLP1001     0.5329
     13  O1P       46.5860    5.5300    3.9240 O.3   1001  PLP1001    -0.1145
     14  O2P       48.7060    6.7480    4.6730 O.3   1001  PLP1001    -0.1145
     15  O3P       48.6070    5.7250    2.3860 O.2   1001  PLP1001    -0.2224
@<TRIPOS>BOND
     1    15    12    2
     2     7     6    1
     3    12    13    1
     4    12    11    1
     5    12    14    1
     6    11    10    1
     7    10     8    1
     8     6     8   ar
     9     6     4   ar
    10     5     4    1
    11     8     9   ar
    12     4     2   ar
    13     9     1   ar
    14     2     1   ar
    15     2     3    1
