@<TRIPOS>MOLECULE
3b8y_ADA_A_1.pdb
 13 13 0 0 0
SMALL
GASTEIGER

@<TRIPOS>ATOM
      1  C1        17.8980   -4.0340    1.4260 C.3   901  ADA901      0.3028
      2  C2        18.1540   -3.1580    0.2000 C.3   901  ADA901      0.2435
      3  C3        19.6150   -2.7460    0.1810 C.3   901  ADA901      0.2204
      4  C4        19.9150   -1.9790    1.4830 C.3   901  ADA901      0.2229
      5  C5        19.6110   -2.9280    2.6470 C.3   901  ADA901      0.2530
      6  C6        19.8860   -2.1740    3.9150 C.2   901  ADA901      0.3941
      7  O1        18.6770   -5.2270    1.3660 O.3   901  ADA901     -0.1869
      8  O2        17.8490   -3.8880   -0.9840 O.3   901  ADA901     -0.2148
      9  O3        19.8640   -1.9180   -0.9630 O.3   901  ADA901     -0.2174
     10  O4        19.0750   -0.8090    1.6260 O.3   901  ADA901     -0.2171
     11  O5        18.2170   -3.2980    2.6240 O.3   901  ADA901     -0.3149
     12  O6B       21.1250   -1.7240    4.1800 O.co2 901  ADA901     -0.2429
     13  O6A       18.9850   -1.9700    4.6910 O.co2 901  ADA901     -0.2429
@<TRIPOS>BOND
     1     8     2    1
     2     9     3    1
     3     3     2    1
     4     3     4    1
     5     2     1    1
     6     7     1    1
     7     1    11    1
     8     4    10    1
     9     4     5    1
    10    11     5    1
    11     5     6    1
    12     6    12   ar
    13     6    13   ar
