@<TRIPOS>MOLECULE
3b92_440_A_1.pdb
 18 18 0 0 0
SMALL
GASTEIGER

@<TRIPOS>ATOM
      1  C         -0.3850   60.4140   86.2240 C.ar  501  440501      0.0383
      2  C1        -0.6390   59.1310   85.7370 C.ar  501  440501      0.0215
      3  C2         1.2060   59.3620   84.1460 C.ar  501  440501      0.0215
      4  C3         1.4570   60.6490   84.6430 C.ar  501  440501      0.0383
      5  C4         0.6600   61.1780   85.6780 C.ar  501  440501      0.1401
      6  O          0.8750   62.5030   86.0710 O.3   501  440501     -0.4612
      7  C5        -0.2580   63.2200   86.5630 C.3   501  440501      0.2811
      8  C6        -3.0410   64.8880   83.7500 C.3   501  440501      0.0901
      9  C7        -2.0160   64.2960   84.7230 C.1   501  440501     -0.0864
     10  C8        -1.2300   63.8330   85.4910 C.1   501  440501     -0.0439
     11  C9         0.1540   58.6160   84.7000 C.ar  501  440501      0.1059
     12  O1        -1.6420   56.8910   83.9960 O.2   501  440501     -0.1686
     13  O2         0.5820   56.8300   82.8780 O.2   501  440501     -0.1686
     14  S         -0.2180   57.0230   84.0700 S.O2  501  440501      0.0087
     15  C10        0.3050   55.9790   85.4240 C.3   501  440501      0.1568
     16  C11        1.6920   56.3580   85.9060 C.3   501  440501      0.0383
     17  C12        2.7660   55.7160   85.0470 C.3   501  440501      0.0705
     18  S1         4.3340   56.5520   85.3070 S.3   501  440501     -0.0821
@<TRIPOS>BOND
     1    13    14    2
     2     8     9    1
     3    12    14    2
     4    14    11    1
     5    14    15    1
     6     3     4   ar
     7     3    11   ar
     8     4     5   ar
     9    11     2   ar
    10     9    10    3
    11    17    18    1
    12    17    16    1
    13    15    16    1
    14    10     7    1
    15     5     6    1
    16     5     1   ar
    17     2     1   ar
    18     6     7    1
