@<TRIPOS>MOLECULE
3b95_III_P_1.pdb
 21 20 0 0 0
SMALL
GASTEIGER

@<TRIPOS>ATOM
      1  N        -29.6760  -17.1100   15.2090 N.3     1  ALA1       -0.1231
      2  CA       -30.5270  -17.4120   16.3980 C.3     1  ALA1        0.1694
      3  C        -29.6350  -17.5780   17.6180 C.2     1  ALA1        0.2592
      4  O        -29.9660  -18.3300   18.5480 O.2     1  ALA1       -0.2718
      5  CB       -31.3400  -18.6900   16.1640 C.3     1  ALA1        0.0304
      6  N        -28.5010  -16.8760   17.5990 N.am    2  ARG2       -0.1966
      7  CA       -27.5320  -16.9210   18.6980 C.3     2  ARG2        0.1729
      8  C        -27.2410  -15.5120   19.2170 C.2     2  ARG2        0.2616
      9  O        -26.6180  -15.3350   20.2750 O.2     2  ARG2       -0.2715
     10  CB       -26.2400  -17.5560   18.2240 C.3     2  ARG2        0.0348
     11  CG       -25.5990  -18.3920   19.2620 C.3     2  ARG2        0.0492
     12  CD       -24.2230  -18.7250   18.8240 C.3     2  ARG2        0.2205
     13  NE       -23.6280  -19.7140   19.7000 N.pl3   2  ARG2       -0.0865
     14  CZ       -22.3240  -19.8180   19.9110 C.cat   2  ARG2        0.5346
     15  NH1      -21.4940  -18.9790   19.3010 N.pl3   2  ARG2        0.1354
     16  NH2      -21.8560  -20.7590   20.7300 N.pl3   2  ARG2        0.1354
     17  N        -27.6950  -14.5210   18.4460 N.am    3  THR3       -0.1977
     18  CA       -27.5390  -13.1070   18.7700 C.3     3  THR3        0.1597
     19  C        -28.9200  -12.4660   18.9530 C.2     3  THR3        0.2287
     20  O        -29.9520  -13.1510   18.9280 O.2     3  THR3       -0.2864
     21  CB       -26.7770  -12.4000   17.6560 C.3     3  THR3        0.0319
@<TRIPOS>BOND
     1     1     2    1
     2     5     2    1
     3     2     3    1
     4     6     3   am
     5     6     7    1
     6     3     4    2
     7    21    18    1
     8    10     7    1
     9    10    11    1
    10    17    18    1
    11    17     8   am
    12     7     8    1
    13    18    19    1
    14    12    11    1
    15    12    13    1
    16    20    19    2
    17     8     9    2
    18    15    14    1
    19    13    14    2
    20    14    16    1
