@<TRIPOS>MOLECULE
3b96_MYA_A_1.pdb
 23 22 0 0 0
SMALL
GASTEIGER

@<TRIPOS>ATOM
      1  CFM       19.7590   34.2830   52.3800 C.3     1  MYA1        0.0000
      2  CBM       23.6920   31.2330   51.2640 C.3     1  MYA1        0.0000
      3  CCM       22.7320   32.3310   50.7720 C.3     1  MYA1        0.0000
      4  CDM       21.8180   32.8790   51.8830 C.3     1  MYA1        0.0000
      5  CEM       20.8170   33.9140   51.3530 C.3     1  MYA1        0.0000
      6  CAM       24.0960   31.2930   52.7380 C.3     1  MYA1        0.0000
      7  C9M       25.5930   31.0200   52.9320 C.3     1  MYA1        0.0000
      8  C8M       26.0910   31.3890   54.3350 C.3     1  MYA1        0.0000
      9  C7M       27.2080   32.4320   54.3320 C.3     1  MYA1        0.0000
     10  C3M       31.4280   32.5750   56.5710 C.3     1  MYA1        0.0759
     11  C4M       31.0460   32.4480   55.0930 C.3     1  MYA1        0.0087
     12  C5M       29.6390   32.9690   54.7550 C.3     1  MYA1        0.0005
     13  C6M       28.5620   31.8830   54.7810 C.3     1  MYA1        0.0000
     14  C2M       32.4820   31.5670   57.0190 C.2     1  MYA1        0.1988
     15  O2M       33.1220   30.9320   56.2030 O.2     1  MYA1       -0.2845
     16  S1        32.8110   31.3050   58.6320 S.3     1  MYA1       -0.0753
     17  N4        35.4910   28.6190   59.9420 N.am    1  MYA1       -0.2045
     18  C5        35.0500   27.3620   59.8370 C.2     1  MYA1        0.2414
     19  O5        34.0040   27.0460   59.2930 O.2     1  MYA1       -0.2733
     20  C6        35.9370   26.2980   60.4480 C.3     1  MYA1        0.0868
     21  C7        35.2880   24.9260   60.2990 C.3     1  MYA1        0.0101
     22  C3        34.9510   29.9080   59.5010 C.3     1  MYA1        0.1272
     23  C2        33.5770   29.7220   58.8650 C.3     1  MYA1        0.0883
@<TRIPOS>BOND
     1     3     2    1
     2     3     4    1
     3     2     6    1
     4     5     4    1
     5     5     1    1
     6     6     7    1
     7     7     8    1
     8     9     8    1
     9     9    13    1
    10    12    13    1
    11    12    11    1
    12    11    10    1
    13    15    14    2
    14    10    14    1
    15    14    16    1
    16    16    23    1
    17    23    22    1
    18    19    18    2
    19    22    17    1
    20    18    17   am
    21    18    20    1
    22    21    20    1
