@<TRIPOS>MOLECULE
3b98_HEM_A_1.pdb
 43 50 0 0 0
SMALL
GASTEIGER

@<TRIPOS>ATOM
      1 FE        -17.4600  -14.6520   39.8990 Fe    600  HEM600      0.0000
      2  CHA      -14.3900  -14.6580   38.3430 C.2   600  HEM600      0.0000
      3  CHB      -18.1930  -11.6660   38.4970 C.2   600  HEM600      0.0000
      4  CHC      -20.2180  -14.3080   42.0240 C.2   600  HEM600      0.0000
      5  CHD      -16.8620  -17.7210   41.2510 C.2   600  HEM600      0.0000
      6  NA       -16.4470  -13.3750   38.6710 N.ar  600  HEM600      0.0000
      7  C1A      -15.2300  -13.5960   38.0560 C.ar  600  HEM600      0.0000
      8  C2A      -15.0020  -12.5200   37.1000 C.ar  600  HEM600      0.0000
      9  C3A      -16.0590  -11.7020   37.1610 C.ar  600  HEM600      0.0000
     10  C4A      -16.9870  -12.2210   38.1460 C.ar  600  HEM600      0.0000
     11  CMA      -16.2770  -10.4230   36.3270 C.3   600  HEM600      0.0000
     12  CAA      -13.7670  -12.3300   36.1670 C.3   600  HEM600      0.0000
     13  CBA      -12.4960  -11.9910   36.9510 C.3   600  HEM600      0.0000
     14  CGA      -11.9300  -10.6030   36.6940 C.2   600  HEM600      0.0000
     15  O1A      -11.6660  -10.2180   35.5090 O.co2 600  HEM600      0.0000
     16  O2A      -11.7110   -9.8690   37.7060 O.co2 600  HEM600      0.0000
     17  NB       -18.9200  -13.2350   40.2420 N.2   600  HEM600      0.0000
     18  C1B      -19.0630  -12.0990   39.4720 C.2   600  HEM600      0.0000
     19  C2B      -20.2840  -11.4390   39.8630 C.2   600  HEM600      0.0000
     20  C3B      -20.8550  -12.1720   40.8390 C.2   600  HEM600      0.0000
     21  C4B      -20.0080  -13.3160   41.0930 C.2   600  HEM600      0.0000
     22  CMB      -20.8090  -10.1220   39.2250 C.3   600  HEM600      0.0000
     23  CAB      -22.1710  -11.8890   41.5930 C.2   600  HEM600      0.0000
     24  CBB      -23.0830  -11.0380   41.1130 C.2   600  HEM600      0.0000
     25  NC       -18.3490  -15.7810   41.4200 N.ar  600  HEM600      0.0000
     26  C1C      -19.5340  -15.5060   42.0730 C.ar  600  HEM600      0.0000
     27  C2C      -19.9390  -16.6920   42.7850 C.ar  600  HEM600      0.0000
     28  C3C      -19.0050  -17.6430   42.5640 C.ar  600  HEM600      0.0000
     29  C4C      -17.9910  -17.0730   41.7040 C.ar  600  HEM600      0.0000
     30  CMC      -21.2360  -16.7660   43.6250 C.3   600  HEM600      0.0000
     31  CAC      -18.9200  -19.1090   43.0640 C.2   600  HEM600      0.0000
     32  CBC      -19.5760  -19.5790   44.1330 C.2   600  HEM600      0.0000
     33  ND       -15.8690  -15.9850   39.8200 N.2   600  HEM600      0.0000
     34  C1D      -15.8570  -17.2150   40.4660 C.2   600  HEM600      0.0000
     35  C2D      -14.6050  -17.8830   40.1690 C.2   600  HEM600      0.0000
     36  C3D      -13.8310  -16.9150   39.2730 C.2   600  HEM600      0.0000
     37  C4D      -14.6930  -15.7710   39.1010 C.2   600  HEM600      0.0000
     38  CMD      -14.1310  -19.2690   40.6630 C.3   600  HEM600      0.0000
     39  CAD      -12.4370  -17.1430   38.6490 C.3   600  HEM600      0.0000
     40  CBD      -11.3490  -16.4720   39.4760 C.3   600  HEM600      0.0000
     41  CGD      -10.0410  -16.5320   38.7130 C.2   600  HEM600      0.0000
     42  O1D       -9.8950  -17.4100   37.8120 O.co2 600  HEM600      0.0000
     43  O2D       -9.1440  -15.7000   39.0140 O.co2 600  HEM600      0.0000
@<TRIPOS>BOND
     1    15    14   ar
     2    12    13    1
     3    12     8    1
     4    11     9    1
     5    14    13    1
     6    14    16   ar
     7     8     9   ar
     8     8     7   ar
     9     9    10   ar
    10    42    41   ar
    11     7     2    2
    12     7     6   ar
    13    10     3    2
    14    10     6   ar
    15     2    37    1
    16     3    18    1
    17    39    36    1
    18    39    40    1
    19     6     1    1
    20    41    43   ar
    21    41    40    1
    22    37    36    1
    23    37    33    2
    24    22    19    1
    25    36    35    2
    26    18    19    1
    27    18    17    2
    28    33     1    1
    29    33    34    1
    30    19    20    2
    31     1    17    1
    32     1    25    1
    33    35    34    1
    34    35    38    1
    35    17    21    1
    36    34     5    2
    37    20    21    1
    38    20    23    1
    39    21     4    2
    40    24    23    2
    41     5    29    1
    42    25    29   ar
    43    25    26   ar
    44    29    28   ar
    45     4    26    1
    46    26    27   ar
    47    28    27   ar
    48    28    31    1
    49    27    30    1
    50    31    32    2
