@<TRIPOS>MOLECULE
3b99_HEM_A_1.pdb
 43 50 0 0 0
SMALL
GASTEIGER

@<TRIPOS>ATOM
      1  CHA      -14.1540  -14.5120   36.3510 C.2   600  HEM600      0.0000
      2  CHB      -17.6490  -11.3320   37.4170 C.2   600  HEM600      0.0000
      3  CHC      -19.3160  -14.3630   40.8070 C.2   600  HEM600      0.0000
      4  CHD      -15.5920  -17.3460   40.0760 C.2   600  HEM600      0.0000
      5  C1A      -14.9810  -13.4100   36.2940 C.ar  600  HEM600      0.0000
      6  C2A      -14.9150  -12.3450   35.3120 C.ar  600  HEM600      0.0000
      7  C3A      -15.8740  -11.4590   35.6100 C.ar  600  HEM600      0.0000
      8  C4A      -16.5900  -11.9430   36.7780 C.ar  600  HEM600      0.0000
      9  CMA      -16.1950  -10.1550   34.8510 C.3   600  HEM600      0.0000
     10  CAA      -13.9010  -12.2750   34.1450 C.3   600  HEM600      0.0000
     11  CBA      -12.4720  -12.0610   34.6690 C.3   600  HEM600      0.0000
     12  CGA      -11.4750  -11.8300   33.5580 C.2   600  HEM600      0.0000
     13  O1A      -11.7870  -12.0430   32.3610 O.co2 600  HEM600      0.0000
     14  O2A      -10.3350  -11.4310   33.8640 O.co2 600  HEM600      0.0000
     15  C1B      -18.4460  -11.8870   38.4010 C.2   600  HEM600      0.0000
     16  C2B      -19.6960  -11.3450   38.9300 C.2   600  HEM600      0.0000
     17  C3B      -20.1550  -12.1990   39.8640 C.2   600  HEM600      0.0000
     18  C4B      -19.2030  -13.2880   39.9520 C.2   600  HEM600      0.0000
     19  CMB      -20.3520  -10.0250   38.4520 C.3   600  HEM600      0.0000
     20  CAB      -21.4460  -12.1400   40.7410 C.2   600  HEM600      0.0000
     21  CBB      -22.3420  -11.1400   40.7320 C.2   600  HEM600      0.0000
     22  C1C      -18.4740  -15.4390   40.8830 C.ar  600  HEM600      0.0000
     23  C2C      -18.6860  -16.6110   41.7070 C.ar  600  HEM600      0.0000
     24  C3C      -17.6470  -17.4450   41.5050 C.ar  600  HEM600      0.0000
     25  C4C      -16.7590  -16.8140   40.5490 C.ar  600  HEM600      0.0000
     26  CMC      -19.9070  -16.7890   42.6360 C.3   600  HEM600      0.0000
     27  CAC      -17.3560  -18.8270   42.1340 C.2   600  HEM600      0.0000
     28  CBC      -18.3030  -19.7320   42.3490 C.2   600  HEM600      0.0000
     29  C1D      -14.8410  -16.8400   39.0310 C.2   600  HEM600      0.0000
     30  C2D      -13.6000  -17.4300   38.5570 C.2   600  HEM600      0.0000
     31  C3D      -13.1490  -16.5470   37.4000 C.2   600  HEM600      0.0000
     32  C4D      -14.1620  -15.5150   37.2910 C.2   600  HEM600      0.0000
     33  CMD      -12.8780  -18.6760   39.1190 C.3   600  HEM600      0.0000
     34  CAD      -11.8580  -16.7240   36.5770 C.3   600  HEM600      0.0000
     35  CBD      -12.0570  -17.0780   35.1020 C.3   600  HEM600      0.0000
     36  CGD      -10.6510  -17.0990   34.5120 C.2   600  HEM600      0.0000
     37  O1D      -10.1160  -16.0030   34.1720 O.co2 600  HEM600      0.0000
     38  O2D      -10.0470  -18.2080   34.4140 O.co2 600  HEM600      0.0000
     39  NA       -16.0090  -13.1290   37.1650 N.ar  600  HEM600      0.0000
     40  NB       -18.1740  -13.0670   39.0550 N.2   600  HEM600      0.0000
     41  NC       -17.2940  -15.5950   40.1910 N.ar  600  HEM600      0.0000
     42  ND       -15.1360  -15.7180   38.2610 N.2   600  HEM600      0.0000
     43 FE        -16.6880  -14.3880   38.6210 Fe    600  HEM600      0.0000
@<TRIPOS>BOND
     1    13    12   ar
     2    12    14   ar
     3    12    11    1
     4    10    11    1
     5    10     6    1
     6    37    36   ar
     7    38    36   ar
     8    36    35    1
     9     9     7    1
    10    35    34    1
    11     6     7   ar
    12     6     5   ar
    13     7     8   ar
    14     5     1    2
    15     5    39   ar
    16     1    32    1
    17    34    31    1
    18     8    39   ar
    19     8     2    2
    20    39    43    1
    21    32    31    1
    22    32    42    2
    23    31    30    2
    24     2    15    1
    25    42    43    1
    26    42    29    1
    27    15    16    1
    28    15    40    2
    29    19    16    1
    30    30    29    1
    31    30    33    1
    32    43    40    1
    33    43    41    1
    34    16    17    2
    35    29     4    2
    36    40    18    1
    37    17    18    1
    38    17    20    1
    39    18     3    2
    40     4    25    1
    41    41    25   ar
    42    41    22   ar
    43    25    24   ar
    44    21    20    2
    45     3    22    1
    46    22    23   ar
    47    24    23   ar
    48    24    27    1
    49    23    26    1
    50    27    28    2
