@<TRIPOS>MOLECULE
3b99_U51_A_1.pdb
 24 25 0 0 0
SMALL
GASTEIGER

@<TRIPOS>ATOM
      1  OAW       -9.8160  -10.2350   36.0140 O.co2 700  U51700     -0.2457
      2  CAV       -9.3350   -9.0850   35.8660 C.2   700  U51700      0.3649
      3  OAX       -8.8350   -8.7180   34.7860 O.co2 700  U51700     -0.2457
      4  CAR       -9.3660   -8.0990   37.0230 C.3   700  U51700      0.1144
      5  CAQ      -10.3230   -8.5630   38.1210 C.3   700  U51700      0.0165
      6  CAP      -11.5900   -7.7250   38.1420 C.3   700  U51700      0.0263
      7  CAO      -12.7700   -8.4990   38.6830 C.2   700  U51700     -0.0307
      8  CAN      -12.7990   -9.7930   38.3750 C.2   700  U51700     -0.0306
      9  CAF      -13.9060  -10.6890   38.8280 C.3   700  U51700      0.0275
     10  CAD      -13.4200  -11.4960   40.0130 C.3   700  U51700      0.0274
     11  CAC      -14.4660  -11.5210   41.1200 C.3   700  U51700      0.0939
     12  CAB      -14.0610  -12.7720   41.8560 C.3   700  U51700      0.0384
     13  NAT      -15.6310  -12.0980   40.4620 N.3   700  U51700     -0.1328
     14  NAS      -15.4270  -13.2900   40.1820 N.3   700  U51700     -0.1325
     15  CAA      -14.1070  -13.6730   40.6390 C.3   700  U51700      0.0973
     16  CAE      -13.2200  -12.9630   39.6460 C.3   700  U51700      0.0410
     17  CAG      -11.8070  -13.4390   39.8460 C.2   700  U51700     -0.0295
     18  CAH      -11.1310  -14.0530   38.8780 C.2   700  U51700     -0.0307
     19  CAI       -9.7180  -14.4970   39.1990 C.3   700  U51700      0.0257
     20  CAJ       -8.7490  -13.9560   38.1610 C.3   700  U51700      0.0047
     21  CAK       -8.1770  -12.6000   38.5570 C.3   700  U51700      0.0003
     22  CAL       -7.4640  -11.9800   37.3570 C.3   700  U51700      0.0000
     23  CAM       -6.7740  -10.6720   37.7320 C.3   700  U51700      0.0000
     24  CAU       -5.8550  -10.2110   36.6200 C.3   700  U51700      0.0000
@<TRIPOS>BOND
     1     3     2   ar
     2     2     1   ar
     3     2     4    1
     4    24    23    1
     5     4     5    1
     6    22    23    1
     7    22    21    1
     8     5     6    1
     9     6     7    1
    10    20    21    1
    11    20    19    1
    12     8     7    2
    13     8     9    1
    14     9    10    1
    15    18    19    1
    16    18    17    2
    17    16    17    1
    18    16    10    1
    19    16    15    1
    20    10    11    1
    21    14    13    1
    22    14    15    1
    23    13    11    1
    24    15    12    1
    25    11    12    1
