@<TRIPOS>MOLECULE
3b9f_SGN_H_1.pdb
 15 15 0 0 0
SMALL
GASTEIGER

@<TRIPOS>ATOM
      1  C1       -38.4920   25.1580  -33.4430 C.3     1  SGN1        0.2893
      2  C2       -38.0910   24.9710  -31.9890 C.3     1  SGN1        0.1832
      3  C3       -37.8600   26.3330  -31.3550 C.3     1  SGN1        0.1772
      4  C4       -36.8460   27.1180  -32.1710 C.3     1  SGN1        0.0669
      5  C5       -37.2990   27.1790  -33.6210 C.3     1  SGN1        0.1533
      6  C6       -36.2750   27.9350  -34.4500 C.3     1  SGN1        0.2116
      7  N        -39.1200   24.2300  -31.2440 N.3     1  SGN1       -0.1129
      8  O1       -39.7060   25.9220  -33.5120 O.3     1  SGN1       -0.1882
      9  O3       -37.3620   26.1600  -30.0200 O.3     1  SGN1       -0.2213
     10  O5       -37.4480   25.8500  -34.1440 O.3     1  SGN1       -0.3271
     11  O6       -36.7060   27.9890  -35.8130 O.3     1  SGN1       -0.2177
     12  S1       -39.6120   22.9280  -32.0940 S.3     1  SGN1       -0.1288
     13  O1S      -40.2960   21.9360  -31.1520 O.3     1  SGN1       -0.2918
     14  O2S      -40.6020   23.3610  -33.1780 O.3     1  SGN1       -0.2918
     15  O3S      -38.3970   22.2580  -32.7380 O.3     1  SGN1       -0.2918
@<TRIPOS>BOND
     1    11     6    1
     2     6     5    1
     3    10     5    1
     4    10     1    1
     5     5     4    1
     6     8     1    1
     7     1     2    1
     8    14    12    1
     9    15    12    1
    10     4     3    1
    11    12     7    1
    12    12    13    1
    13     2     3    1
    14     2     7    1
    15     3     9    1
