@<TRIPOS>MOLECULE
3b9f_IDS_H_1.pdb
 16 16 0 0 0
SMALL
GASTEIGER

@<TRIPOS>ATOM
      1  C1       -35.3840   28.8000  -31.3760 C.3     2  IDS2        0.3017
      2  C2       -35.3110   30.2840  -31.0520 C.3     2  IDS2        0.2322
      3  C3       -33.9940   30.5800  -30.3550 C.3     2  IDS2        0.1895
      4  C4       -33.9970   29.8760  -29.0080 C.3     2  IDS2        0.0770
      5  C5       -34.9890   28.7240  -29.0490 C.3     2  IDS2        0.2228
      6  C6       -34.7000   27.7680  -27.8900 C.2     2  IDS2        0.3915
      7  O1       -36.7490   28.4490  -31.6420 O.3     2  IDS2       -0.1870
      8  O2       -35.4370   31.0490  -32.2600 O.3     2  IDS2       -0.2357
      9  O3       -33.8700   31.9960  -30.1510 O.3     2  IDS2       -0.2202
     10  O5       -34.8490   28.0220  -30.2920 O.3     2  IDS2       -0.3174
     11  O61      -33.8550   26.8720  -28.0950 O.co2   2  IDS2       -0.2430
     12  O62      -35.3120   27.9720  -26.8180 O.co2   2  IDS2       -0.2430
     13  S        -36.7270   31.5200  -32.6770 S.3     2  IDS2        0.0000
     14  O1S      -36.5610   32.4830  -33.8540 O.2     2  IDS2       -0.3452
     15  O2S      -37.5910   30.3340  -33.1080 O.2     2  IDS2       -0.3452
     16  O3S      -37.4030   32.2480  -31.5130 O.3     2  IDS2       -0.2682
@<TRIPOS>BOND
     1    14    13    2
     2    15    13    2
     3    13     8    1
     4    13    16    1
     5     8     2    1
     6     7     1    1
     7     1     2    1
     8     1    10    1
     9     2     3    1
    10     3     9    1
    11     3     4    1
    12    10     5    1
    13     5     4    1
    14     5     6    1
    15    11     6   ar
    16     6    12   ar
