@<TRIPOS>MOLECULE
3b9g_IMH_A_1.pdb
 19 21 0 0 0
SMALL
GASTEIGER

@<TRIPOS>ATOM
      1  O5'       25.4280   21.5930    6.8840 O.3   501  IMH501     -0.2188
      2  C5'       24.4720   20.6210    7.3160 C.3   501  IMH501      0.2020
      3  C4'       23.3680   21.3000    8.1480 C.3   501  IMH501      0.1389
      4  N4'       22.7820   22.4480    7.4260 N.3   501  IMH501     -0.2083
      5  C3'       22.1970   20.3580    8.4330 C.3   501  IMH501      0.2023
      6  O3'       21.6420   20.6910    9.7160 O.3   501  IMH501     -0.2188
      7  C2'       21.1720   20.6240    7.3180 C.3   501  IMH501      0.2036
      8  O2'       19.8300   20.6740    7.8510 O.3   501  IMH501     -0.2185
      9  C1'       21.5510   21.9910    6.7300 C.3   501  IMH501      0.1309
     10  C9        21.8190   21.8700    5.2170 C.2   501  IMH501      0.0348
     11  C8        23.0230   21.8460    4.6510 C.2   501  IMH501      0.0984
     12  N7        22.8750   21.7360    3.3320 N.2   501  IMH501     -0.2310
     13  C5        21.5770   21.7000    3.0380 C.2   501  IMH501      0.1804
     14  C6        20.8980   21.5950    1.8340 C.1   501  IMH501      0.1716
     15  O6        21.5240   21.5180    0.7790 O.2   501  IMH501     -0.2206
     16  N1        19.4980   21.5780    1.8490 N.2   501  IMH501     -0.1739
     17  C2        18.8320   21.6690    3.0870 C.3   501  IMH501      0.2626
     18  N3        19.5140   21.7600    4.2210 N.2   501  IMH501     -0.2415
     19  C4        20.8570   21.7860    4.2240 C.2   501  IMH501      0.1059
@<TRIPOS>BOND
     1    15    14    2
     2    14    16    2
     3    14    13    1
     4    16    17    1
     5    13    12    2
     6    13    19    1
     7    17    18    1
     8    12    11    1
     9    18    19    2
    10    19    10    1
    11    11    10    2
    12    10     9    1
    13     9     7    1
    14     9     4    1
    15     1     2    1
    16     2     3    1
    17     7     8    1
    18     7     5    1
    19     4     3    1
    20     3     5    1
    21     5     6    1
