@<TRIPOS>MOLECULE
3b9h_NDU_A_1.pdb
 23 24 0 0 0
SMALL
GASTEIGER

@<TRIPOS>ATOM
      1  P         40.5990  -13.8570   45.6900 P.3   265  NDU265      0.5327
      2  OP1       40.6350  -14.2660   47.1480 O.3   265  NDU265     -0.1145
      3  OP2       41.7020  -12.8930   45.3330 O.3   265  NDU265     -0.1145
      4  OP3       39.2360  -13.4930   45.1130 O.2   265  NDU265     -0.2224
      5  O5'       40.9740  -15.2230   44.9330 O.3   265  NDU265     -0.2675
      6  C5'       41.0900  -15.3840   43.5150 C.3   265  NDU265      0.1858
      7  C4'       42.4100  -16.1170   43.2680 C.3   265  NDU265      0.1774
      8  C3'       43.6560  -15.2700   43.5990 C.3   265  NDU265      0.1857
      9  O3'       44.7540  -16.0920   43.9890 O.3   265  NDU265     -0.2203
     10  C2'       44.0290  -14.5460   42.3050 C.3   265  NDU265      0.0871
     11  C1'       43.5960  -15.6180   41.3000 C.3   265  NDU265      0.2049
     12  O4'       42.4810  -16.3390   41.8550 O.3   265  NDU265     -0.3342
     13  N1        43.1820  -15.2630   39.9480 N.am  265  NDU265     -0.1996
     14  C2        44.1290  -14.8520   39.0010 C.1   265  NDU265      0.2803
     15  O2        45.3230  -14.6840   39.3360 O.2   265  NDU265     -0.1922
     16  N3        43.7670  -14.6060   37.7540 N.2   265  NDU265     -0.2476
     17  C4        42.5220  -14.7850   37.3390 C.1   265  NDU265      0.2213
     18  O4        42.1670  -14.6050   36.1550 O.2   265  NDU265     -0.2112
     19  C5        41.5380  -15.2220   38.3250 C.3   265  NDU265      0.3033
     20  C6        41.8720  -15.0110   39.7010 C.3   265  NDU265      0.1539
     21  N5        40.2320  -15.4410   37.8660 N.pl3 265  NDU265      0.0514
     22  O51       40.0140  -15.4980   36.6630 O.2   265  NDU265     -0.1299
     23  O52       39.2050  -15.6720   38.7620 O.2   265  NDU265     -0.1299
@<TRIPOS>BOND
     1    18    17    2
     2    22    21    2
     3    17    16    2
     4    17    19    1
     5    16    14    2
     6    21    19    1
     7    21    23    2
     8    19    20    1
     9    14    15    2
    10    14    13   am
    11    20    13    1
    12    13    11    1
    13    11    12    1
    14    11    10    1
    15    12     7    1
    16    10     8    1
    17     7     6    1
    18     7     8    1
    19     6     5    1
    20     8     9    1
    21     5     1    1
    22     4     1    2
    23     3     1    1
    24     1     2    1
