@<TRIPOS>MOLECULE
3b9j_290_C_1.pdb
 11 12 0 0 0
SMALL
GASTEIGER

@<TRIPOS>ATOM
      1  C4       -55.7190  -18.1200   18.8810 C.1   1335  2901335     0.1201
      2  C5       -56.4670  -18.2080   20.0480 C.2   1335  2901335     0.1787
      3  C6       -56.9930  -19.5380   20.4190 C.2   1335  2901335     0.1524
      4  C8       -55.8230  -16.1590   19.7070 C.3   1335  2901335     0.2627
      5  N1       -56.6720  -20.5550   19.5860 N.2   1335  2901335    -0.3102
      6  N3       -55.4460  -19.1770   18.0790 N.2   1335  2901335    -0.2521
      7  O2       -55.6340  -21.3260   17.7310 O.2   1335  2901335    -0.1745
      8  C2       -55.9210  -20.3760   18.4640 C.1   1335  2901335     0.3639
      9  C61      -57.8010  -19.7490   21.6690 C.3   1335  2901335     0.0699
     10  N9       -55.3330  -16.8480   18.6640 N.2   1335  2901335    -0.1807
     11  N7       -56.5300  -16.9600   20.5550 N.2   1335  2901335    -0.2303
@<TRIPOS>BOND
     1     7     8    2
     2     6     8    2
     3     6     1    2
     4     8     5    2
     5    10     1    2
     6    10     4    1
     7     1     2    1
     8     5     3    2
     9     4    11    1
    10     2     3    1
    11     2    11    2
    12     3     9    1
