@<TRIPOS>MOLECULE
3b9l_AZZ_A_1.pdb
 19 20 0 0 0
SMALL
GASTEIGER

@<TRIPOS>ATOM
      1  O5'       35.5240    2.4840   18.4300 O.3   1009  AZZ1009    -0.2176
      2  C5'       35.6280    2.4730   17.0170 C.3   1009  AZZ1009     0.2136
      3  C4'       34.6620    1.4590   16.4430 C.3   1009  AZZ1009     0.1752
      4  O4'       33.3100    1.8490   16.7650 O.3   1009  AZZ1009    -0.3344
      5  C3'       34.7700    1.4460   14.9150 C.3   1009  AZZ1009     0.1732
      6  N3'       35.7960    0.4950   14.4510 N.2   1009  AZZ1009    -0.0969
      7  N4'       36.0200    0.3770   13.3450 N.2   1009  AZZ1009    -0.1663
      8  N5'       36.2540    0.2690   12.2460 N.2   1009  AZZ1009     0.0678
      9  C2'       33.3280    1.1140   14.4530 C.3   1009  AZZ1009     0.0819
     10  C1'       32.4380    1.4170   15.6980 C.3   1009  AZZ1009     0.2085
     11  N1        31.4350    2.5210   15.4540 N.am  1009  AZZ1009    -0.1794
     12  C2        30.6690    2.9850   16.5100 C.1   1009  AZZ1009     0.2844
     13  O2        30.7980    2.5050   17.6300 O.2   1009  AZZ1009    -0.1918
     14  N3        29.7550    3.9910   16.3160 N.2   1009  AZZ1009    -0.2455
     15  C4        29.5740    4.5620   15.0800 C.1   1009  AZZ1009     0.2134
     16  O4        28.7520    5.4590   14.9370 O.2   1009  AZZ1009    -0.2088
     17  C5        30.3570    4.1000   13.9630 C.2   1009  AZZ1009     0.0891
     18  C5A       30.1880    4.7060   12.5890 C.3   1009  AZZ1009     0.0462
     19  C6        31.2680    3.0920   14.1710 C.2   1009  AZZ1009     0.0877
@<TRIPOS>BOND
     1     8     7    2
     2    18    17    1
     3     7     6    2
     4    17    19    2
     5    17    15    1
     6    19    11    1
     7     6     5    1
     8     9     5    1
     9     9    10    1
    10     5     3    1
    11    16    15    2
    12    15    14    2
    13    11    10    1
    14    11    12   am
    15    10     4    1
    16    14    12    2
    17     3     4    1
    18     3     2    1
    19    12    13    2
    20     2     1    1
