@<TRIPOS>MOLECULE
3b9m_AZZ_A_1.pdb
 19 20 0 0 0
SMALL
GASTEIGER

@<TRIPOS>ATOM
      1  O5'       35.2950   -0.2300   11.5030 O.3   1009  AZZ1009    -0.2176
      2  C5'       34.8340   -1.0760   12.5600 C.3   1009  AZZ1009     0.2136
      3  C4'       35.3030   -0.5230   13.9050 C.3   1009  AZZ1009     0.1752
      4  O4'       34.7430    0.7970   14.1270 O.3   1009  AZZ1009    -0.3344
      5  C3'       34.8140   -1.4030   15.0840 C.3   1009  AZZ1009     0.1732
      6  N3'       35.7730   -2.4630   15.4300 N.2   1009  AZZ1009    -0.0969
      7  N4'       35.5380   -3.1760   16.2740 N.2   1009  AZZ1009    -0.1663
      8  N5'       35.2920   -3.8780   17.1180 N.2   1009  AZZ1009     0.0678
      9  C2'       34.5950   -0.4010   16.2370 C.3   1009  AZZ1009     0.0819
     10  C1'       34.5580    0.9810   15.5480 C.3   1009  AZZ1009     0.2085
     11  N1        33.2600    1.6640   15.8340 N.am  1009  AZZ1009    -0.1794
     12  C2        33.2220    2.6720   16.7650 C.1   1009  AZZ1009     0.2844
     13  O2        34.2400    3.0100   17.3540 O.2   1009  AZZ1009    -0.1918
     14  N3        32.0440    3.3070   17.0410 N.2   1009  AZZ1009    -0.2455
     15  C4        30.8820    2.9600   16.4050 C.1   1009  AZZ1009     0.2134
     16  O4        29.8430    3.5460   16.6740 O.2   1009  AZZ1009    -0.2088
     17  C5        30.8960    1.9080   15.4260 C.2   1009  AZZ1009     0.0891
     18  C5A       29.6360    1.5030   14.7090 C.3   1009  AZZ1009     0.0462
     19  C6        32.0840    1.2800   15.1580 C.2   1009  AZZ1009     0.0877
@<TRIPOS>BOND
     1     1     2    1
     2     2     3    1
     3     3     4    1
     4     3     5    1
     5     4    10    1
     6    18    17    1
     7     5     6    1
     8     5     9    1
     9    19    17    2
    10    19    11    1
    11    17    15    1
    12     6     7    2
    13    10    11    1
    14    10     9    1
    15    11    12   am
    16     7     8    2
    17    15    16    2
    18    15    14    2
    19    12    14    2
    20    12    13    2
