@<TRIPOS>MOLECULE
3b9m_SAL_A_1.pdb
 10 10 0 0 0
SMALL
GASTEIGER

@<TRIPOS>ATOM
      1  C1'       35.3440    6.1230    9.2440 C.2   1100  SAL1100     0.3909
      2  O1'       35.5410    5.4530   10.2400 O.co2 1100  SAL1100    -0.2404
      3  O2'       36.3700    6.6010    8.7610 O.co2 1100  SAL1100    -0.2404
      4  C1        34.0290    6.3360    8.6830 C.ar  1100  SAL1100     0.1186
      5  C2        32.7900    5.7710    9.2480 C.ar  1100  SAL1100     0.2020
      6  C3        31.4710    6.0000    8.6630 C.ar  1100  SAL1100     0.0422
      7  C4        31.3890    6.8120    7.4870 C.ar  1100  SAL1100     0.0033
      8  C5        32.5630    7.3990    6.8770 C.ar  1100  SAL1100     0.0004
      9  C6        33.8680    7.1540    7.4820 C.ar  1100  SAL1100     0.0098
     10  O2        32.7820    4.9840   10.3730 O.3   1100  SAL1100    -0.2863
@<TRIPOS>BOND
     1     8     9   ar
     2     8     7   ar
     3     9     4   ar
     4     7     6   ar
     5     6     5   ar
     6     4     1    1
     7     4     5   ar
     8     3     1   ar
     9     1     2   ar
    10     5    10    1
