@<TRIPOS>MOLECULE
3b9o_FMN_A_1.pdb
 31 33 0 0 0
SMALL
GASTEIGER

@<TRIPOS>ATOM
      1  N1       -25.4010   33.2890   21.9010 N.2   441  FMN441     -0.2887
      2  C2       -25.0360   33.0630   23.1840 C.1   441  FMN441      0.3669
      3  O2       -25.9470   32.8160   24.0280 O.2   441  FMN441     -0.1744
      4  N3       -23.7020   33.1140   23.5050 N.2   441  FMN441     -0.2300
      5  C4       -22.7460   33.3950   22.5630 C.1   441  FMN441      0.2513
      6  O4       -21.5390   33.4460   22.8810 O.2   441  FMN441     -0.2057
      7  C4A      -23.1220   33.6390   21.2330 C.2   441  FMN441      0.2703
      8  N5       -22.2230   33.9310   20.2450 N.2   441  FMN441     -0.3882
      9  C5A      -22.6560   34.1420   18.9610 C.2   441  FMN441      0.1277
     10  C6       -21.7590   34.4340   17.9150 C.3   441  FMN441      0.0820
     11  C7       -22.2250   34.6600   16.6050 C.2   441  FMN441     -0.0408
     12  C7M      -21.2740   34.9710   15.4690 C.3   441  FMN441      0.0265
     13  C8       -23.5850   34.6040   16.3370 C.2   441  FMN441     -0.0280
     14  C8M      -24.0980   34.8410   14.9350 C.3   441  FMN441      0.0304
     15  C9       -24.4890   34.3110   17.3650 C.2   441  FMN441      0.0123
     16  C9A      -24.0370   34.0760   18.6760 C.2   441  FMN441      0.0793
     17  N10      -24.9180   33.7920   19.6700 N.pl3 441  FMN441     -0.2545
     18  C10      -24.4860   33.5680   20.9280 C.2   441  FMN441      0.2449
     19  C1'      -26.3730   33.7170   19.4180 C.3   441  FMN441      0.1336
     20  C2'      -27.0340   35.0520   19.8020 C.3   441  FMN441      0.2048
     21  O2'      -26.0750   35.9610   20.3450 O.3   441  FMN441     -0.2185
     22  C3'      -28.2020   34.9530   20.7970 C.3   441  FMN441      0.2165
     23  O3'      -27.9070   34.1180   21.9380 O.3   441  FMN441     -0.2175
     24  C4'      -29.5520   34.6320   20.1180 C.3   441  FMN441      0.2147
     25  O4'      -30.2090   33.5190   20.7320 O.3   441  FMN441     -0.2176
     26  C5'      -29.4660   34.3620   18.6120 C.3   441  FMN441      0.1892
     27  O5'      -29.6620   35.6320   18.0030 O.3   441  FMN441     -0.2674
     28  P        -30.3580   35.8250   16.5680 P.3   441  FMN441      0.5327
     29  O1P      -31.5070   34.8300   16.5610 O.3   441  FMN441     -0.1145
     30  O2P      -30.7490   37.2730   16.5910 O.3   441  FMN441     -0.1145
     31  O3P      -29.3160   35.4350   15.5360 O.2   441  FMN441     -0.2224
@<TRIPOS>BOND
     1    14    13    1
     2    12    11    1
     3    31    28    2
     4    13    11    2
     5    13    15    1
     6    29    28    1
     7    28    30    1
     8    28    27    1
     9    11    10    1
    10    15    16    2
    11    10     9    1
    12    27    26    1
    13    26    24    1
    14    16     9    1
    15    16    17    1
    16     9     8    2
    17    19    17    1
    18    19    20    1
    19    17    18    1
    20    20    21    1
    21    20    22    1
    22    24    25    1
    23    24    22    1
    24     8     7    2
    25    22    23    1
    26    18     7    1
    27    18     1    2
    28     7     5    1
    29     1     2    2
    30     5     6    2
    31     5     4    2
    32     2     4    2
    33     2     3    2
