@<TRIPOS>MOLECULE
3b9r_ACP_A_1.pdb
 31 33 0 0 0
SMALL
GASTEIGER

@<TRIPOS>ATOM
      1  PG        59.9020  -12.5540   22.3140 P.3   998  ACP998      0.1295
      2  O1G       59.3830  -11.0480   22.4550 O.3   998  ACP998     -0.3567
      3  O2G       60.3760  -12.5280   20.7950 O.2   998  ACP998     -0.4595
      4  O3G       58.7840  -13.4220   22.6180 O.3   998  ACP998     -0.3567
      5  PB        61.9340  -14.4300   23.4850 P.3   998  ACP998      0.3815
      6  O1B       63.1570  -14.3640   24.2780 O.3   998  ACP998     -0.1391
      7  O2B       62.1270  -15.0960   22.0320 O.2   998  ACP998     -0.2547
      8  C3B       61.2990  -12.8840   23.2610 C.3   998  ACP998      0.1768
      9  PA        61.2490  -17.2710   24.2900 P.3   998  ACP998      0.2209
     10  O1A       61.7320  -17.6190   25.6150 O.3   998  ACP998     -0.4371
     11  O2A       59.7430  -17.6080   23.9880 O.2   998  ACP998     -0.5170
     12  O3A       61.1080  -15.6590   24.1510 O.3   998  ACP998     -0.2483
     13  O5'       62.0650  -18.0760   23.1200 O.3   998  ACP998     -0.3111
     14  C5'       63.4030  -17.6160   22.8190 C.3   998  ACP998      0.1813
     15  C4'       64.2290  -18.6040   21.9660 C.3   998  ACP998      0.1821
     16  O4'       63.3990  -19.7530   22.0460 O.3   998  ACP998     -0.3135
     17  C3'       63.9800  -18.3670   20.4660 C.3   998  ACP998      0.2184
     18  O3'       64.8540  -17.6890   19.5750 O.3   998  ACP998     -0.2174
     19  C2'       63.6910  -19.7510   19.8410 C.3   998  ACP998      0.2570
     20  O2'       64.7170  -19.9600   18.8840 O.3   998  ACP998     -0.2130
     21  C1'       63.9270  -20.7000   21.0780 C.3   998  ACP998      0.3186
     22  N9        63.1230  -21.8840   21.2840 N.pl3 998  ACP998     -0.1439
     23  C8        61.7310  -21.9720   21.5730 C.3   998  ACP998      0.3377
     24  N7        61.2720  -23.2080   21.8230 N.2   998  ACP998     -0.2095
     25  C5        62.4110  -24.0330   21.6690 C.2   998  ACP998      0.2526
     26  C6        62.6190  -25.4700   21.7720 C.2   998  ACP998      0.4393
     27  N6        61.5810  -26.3270   22.0270 N.pl3 998  ACP998      0.2180
     28  N1        63.8720  -25.9680   21.5560 N.2   998  ACP998      0.0021
     29  C2        64.8660  -25.0840   21.2540 C.3   998  ACP998      0.5254
     30  N3        64.8300  -23.7430   21.1190 N.2   998  ACP998     -0.0055
     31  C4        63.5860  -23.2160   21.3500 C.2   998  ACP998      0.3518
@<TRIPOS>BOND
     1    20    19    1
     2    18    17    1
     3    19    17    1
     4    19    21    1
     5    17    15    1
     6     3     1    2
     7    21    22    1
     8    21    16    1
     9    30    29    1
    10    30    31    2
    11    29    28    1
    12    22    31    1
    13    22    23    1
    14    31    25    1
    15    28    26    2
    16    23    24    1
    17    25    26    1
    18    25    24    2
    19    26    27    1
    20    15    16    1
    21    15    14    1
    22     7     5    2
    23     1     2    1
    24     1     4    1
    25     1     8    1
    26    14    13    1
    27    13     9    1
    28     8     5    1
    29     5    12    1
    30     5     6    1
    31    11     9    2
    32    12     9    1
    33     9    10    1
