@<TRIPOS>MOLECULE
3b9s_RW1_A_1.pdb
 12 13 0 0 0
SMALL
GASTEIGER

@<TRIPOS>ATOM
      1  C2       -31.5230   19.6580  -15.1380 C.3   118  RW1118      0.2501
      2  N3       -31.2420   20.1240  -13.9340 N.2   118  RW1118     -0.2471
      3  C4       -30.4410   19.4610  -13.1200 C.2   118  RW1118      0.0754
      4  C5       -29.8740   18.2640  -13.5330 C.3   118  RW1118      0.0919
      5  N1       -31.0150   18.5200  -15.5770 N.2   118  RW1118     -0.2483
      6  C6       -30.1900   17.8030  -14.8030 C.2   118  RW1118      0.0619
      7  C7       -29.6820   16.5820  -15.2300 C.ar  118  RW1118      0.0136
      8  C8       -30.3780   15.8350  -16.1720 C.ar  118  RW1118      0.0012
      9  C12      -28.4670   16.1310  -14.7300 C.ar  118  RW1118      0.0012
     10  C11      -27.9400   14.9250  -15.1760 C.ar  118  RW1118      0.0000
     11  C10      -28.6370   14.1770  -16.1190 C.ar  118  RW1118      0.0000
     12  C9       -29.8540   14.6260  -16.6160 C.ar  118  RW1118      0.0000
@<TRIPOS>BOND
     1    12     8   ar
     2    12    11   ar
     3     8     7   ar
     4    11    10   ar
     5     5     1    1
     6     5     6    2
     7     7     6    1
     8     7     9   ar
     9    10     9   ar
    10     1     2    1
    11     6     4    1
    12     2     3    2
    13     4     3    1
