@<TRIPOS>MOLECULE
3b9x_NOS_A_1.pdb
 19 21 0 0 0
SMALL
GASTEIGER

@<TRIPOS>ATOM
      1  N9       -16.7300   14.7090   16.0840 N.pl3 401  NOS401     -0.1435
      2  C4       -16.9370   13.5380   15.5000 C.2   401  NOS401      0.3528
      3  N3       -16.7010   13.0080   14.2580 N.2   401  NOS401     -0.0334
      4  C2       -17.0550   11.7430   13.9790 C.3   401  NOS401      0.4017
      5  N1       -17.6520   10.9410   14.8830 N.2   401  NOS401     -0.1458
      6  C6       -17.9360   11.3510   16.1320 C.1   401  NOS401      0.1792
      7  O6       -18.4840   10.6150   16.9720 O.2   401  NOS401     -0.2203
      8  C5       -17.5840   12.7250   16.5300 C.2   401  NOS401      0.2446
      9  N7       -17.7000   13.4730   17.6370 N.2   401  NOS401     -0.2054
     10  C8       -17.1610   14.6720   17.3600 C.3   401  NOS401      0.3382
     11  C5'      -13.5920   13.9480   17.0010 C.3   401  NOS401      0.2143
     12  O5'      -13.6890   12.6510   16.4070 O.3   401  NOS401     -0.2176
     13  C4'      -13.7200   15.1390   16.0270 C.3   401  NOS401      0.1851
     14  O4'      -14.7710   15.0960   15.0290 O.3   401  NOS401     -0.3134
     15  C1'      -15.9900   15.7890   15.4200 C.3   401  NOS401      0.3186
     16  C2'      -15.4900   16.7850   16.4680 C.3   401  NOS401      0.2570
     17  O2'      -15.6380   18.1170   15.9690 O.3   401  NOS401     -0.2130
     18  C3'      -14.0430   16.3860   16.8480 C.3   401  NOS401      0.2186
     19  O3'      -13.0220   17.3860   16.6200 O.3   401  NOS401     -0.2174
@<TRIPOS>BOND
     1     4     3    1
     2     4     5    1
     3     3     2    2
     4     5     6    2
     5    14    15    1
     6    14    13    1
     7    15     1    1
     8    15    16    1
     9     2     1    1
    10     2     8    1
    11    17    16    1
    12    13    18    1
    13    13    11    1
    14     1    10    1
    15     6     8    1
    16     6     7    2
    17    12    11    1
    18    16    18    1
    19     8     9    2
    20    19    18    1
    21    10     9    1
