@<TRIPOS>MOLECULE
3ba2_HKL_A_1.pdb
 42 50 0 0 0
SMALL
GASTEIGER

@<TRIPOS>ATOM
      1  N1       -20.0330    5.5150   14.4320 N.2   158  HKL158      0.0000
      2  C1       -21.3690    5.7180   14.4860 C.2   158  HKL158      0.0000
      3  C2       -22.1720    4.6450   14.1340 C.2   158  HKL158      0.0000
      4  C7       -19.9000    4.2770   13.9350 C.2   158  HKL158      0.0000
      5  C6       -21.7090    1.4260   14.2280 C.3   158  HKL158      0.0000
      6  C5       -21.3740    2.2600   13.2370 C.3   158  HKL158      0.0000
      7  C4       -21.1250    3.6450   13.7320 C.2   158  HKL158      0.0000
      8  C3       -23.6750    4.5480   14.1030 C.3   158  HKL158      0.0000
      9  N2       -17.0680    5.4600   14.4790 N.ar  158  HKL158      0.0000
     10  O1       -15.7650   12.0820   17.2760 O.2   158  HKL158      0.0000
     11  C21      -16.5350   11.1710   16.8230 C.2   158  HKL158      0.0000
     12  C20      -16.1080    9.9580   16.3400 C.2   158  HKL158      0.0000
     13  C23      -17.2210    9.3430   15.9790 C.2   158  HKL158      0.0000
     14  C24      -18.4210   10.1030   16.2120 C.2   158  HKL158      0.0000
     15  C22      -17.9480   11.3150   16.7590 C.3   158  HKL158      0.0000
     16  C18      -14.9540    9.0320   16.0790 C.2   158  HKL158      0.0000
     17  C19      -13.5110    9.3020   16.3020 C.3   158  HKL158      0.0000
     18  C17      -15.6410    7.9340   15.5500 C.2   158  HKL158      0.0000
     19  N3       -16.9620    8.1130   15.5020 N.2   158  HKL158      0.0000
     20  C16      -15.3290    6.7250   15.1190 C.2   158  HKL158      0.0000
     21  C15      -15.7370    5.5290   14.6660 C.ar  158  HKL158      0.0000
     22  C12      -15.0100    4.3770   14.3400 C.ar  158  HKL158      0.0000
     23  C13      -13.5180    4.1310   14.4170 C.3   158  HKL158      0.0000
     24  C14      -13.2480    3.5080   15.7610 C.3   158  HKL158      0.0000
     25  C10      -16.0640    3.4330   13.8830 C.ar  158  HKL158      0.0000
     26  C11      -15.9160    2.0280   13.3770 C.3   158  HKL158      0.0000
     27  C9       -17.2980    4.2410   14.0050 C.ar  158  HKL158      0.0000
     28  C8       -18.6050    3.9490   13.8140 C.2   158  HKL158      0.0000
     29  C34      -21.6220    6.9250   14.9920 C.2   158  HKL158      0.0000
     30 FE        -18.5290    6.9290   14.9320 Fe    158  HKL158      0.0000
     31  N4       -19.9110    8.2460   15.4470 N.ar  158  HKL158      0.0000
     32  C25      -19.7180    9.4810   15.8420 C.ar  158  HKL158      0.0000
     33  C33      -21.2380    8.0320   15.4490 C.ar  158  HKL158      0.0000
     34  C31      -22.0420    9.1920   15.9880 C.ar  158  HKL158      0.0000
     35  C32      -22.5020    8.8910   17.4190 C.3   158  HKL158      0.0000
     36  C26      -20.9970   10.3000   15.9450 C.ar  158  HKL158      0.0000
     37  C27      -21.2040   11.2410   14.7410 C.3   158  HKL158      0.0000
     38  C28      -22.6470   11.8200   14.6310 C.3   158  HKL158      0.0000
     39  C29      -22.9580   12.4480   13.2790 C.2   158  HKL158      0.0000
     40  O4       -22.0580   12.5370   12.3150 O.2   158  HKL158      0.0000
     41  O2       -24.2600   13.0350   13.0110 O.3   158  HKL158      0.0000
     42  C30      -24.5500   13.4810   11.6900 C.3   158  HKL158      0.0000
@<TRIPOS>BOND
     1    42    41    1
     2    40    39    2
     3    41    39    1
     4     6     7    1
     5     6     5    1
     6    39    38    1
     7    26    25    1
     8     7     4    1
     9     7     3    2
    10    28     4    2
    11    28    27    1
    12    25    27   ar
    13    25    22   ar
    14     4     1    1
    15    27     9   ar
    16     8     3    1
    17     3     2    1
    18    22    23    1
    19    22    21   ar
    20    23    24    1
    21     1     2    2
    22     1    30    1
    23     9    21   ar
    24     9    30    1
    25     2    29    1
    26    38    37    1
    27    21    20    1
    28    37    36    1
    29    30    31    1
    30    30    19    1
    31    29    33    2
    32    20    18    2
    33    31    33   ar
    34    31    32   ar
    35    33    34   ar
    36    19    18    1
    37    19    13    2
    38    18    16    1
    39    32    36   ar
    40    32    14    2
    41    36    34   ar
    42    13    14    1
    43    13    12    1
    44    34    35    1
    45    16    17    1
    46    16    12    2
    47    14    15    1
    48    12    11    1
    49    15    11    1
    50    11    10    2
