@<TRIPOS>MOLECULE
3ba6_AN2_A_1.pdb
 27 29 0 0 0
SMALL
GASTEIGER

@<TRIPOS>ATOM
      1  N3B      -16.4450    3.9360   13.9550 N.3   1001  AN21001    -0.0178
      2  PB       -16.4150    2.8320   12.6190 P.3   1001  AN21001     0.4738
      3  O2B      -15.4300    3.4630   11.4890 O.2   1001  AN21001    -0.2343
      4  O1B      -17.6020    2.6670   12.2240 O.3   1001  AN21001    -0.1247
      5  O3A      -15.9320    1.3360   13.0050 O.3   1001  AN21001    -0.2354
      6  PA       -15.0740    0.5220   11.8670 P.3   1001  AN21001     0.2220
      7  O1A      -13.4650    0.9470   11.9510 O.2   1001  AN21001    -0.5170
      8  O2A      -15.2240   -0.9240   12.1660 O.3   1001  AN21001    -0.4370
      9  O5'      -15.5760    0.7940   10.3210 O.3   1001  AN21001    -0.3111
     10  C5'      -14.8150    1.6730    9.5130 C.3   1001  AN21001     0.1813
     11  C4'      -15.6120    1.9470    8.2350 C.3   1001  AN21001     0.1821
     12  O4'      -16.1160    0.7270    7.6300 O.3   1001  AN21001    -0.3135
     13  C3'      -16.8560    2.6770    8.7530 C.3   1001  AN21001     0.2184
     14  O3'      -16.6040    4.0390    9.0740 O.3   1001  AN21001    -0.2174
     15  C2'      -17.8020    2.3830    7.6140 C.3   1001  AN21001     0.2570
     16  O2'      -17.8870    3.4250    6.6930 O.3   1001  AN21001    -0.2130
     17  C1'      -17.3320    1.0870    6.9370 C.3   1001  AN21001     0.3186
     18  N9       -18.3930    0.1390    7.2980 N.pl3 1001  AN21001    -0.1439
     19  C8       -18.7030   -0.1630    8.6610 C.3   1001  AN21001     0.3377
     20  N7       -19.6740   -1.2210    8.6810 N.2   1001  AN21001    -0.2095
     21  C5       -19.6700   -1.8620    7.3660 C.2   1001  AN21001     0.2526
     22  C4       -18.9360   -0.9370    6.4740 C.2   1001  AN21001     0.3518
     23  N3       -18.7570   -1.2560    5.2110 N.2   1001  AN21001    -0.0055
     24  C2       -19.2880   -2.4570    4.7570 C.3   1001  AN21001     0.5254
     25  N1       -19.9880   -3.3400    5.5820 N.2   1001  AN21001     0.0021
     26  C6       -20.1690   -3.0330    6.8540 C.2   1001  AN21001     0.4393
     27  N6       -20.9390   -3.9410    7.6890 N.pl3 1001  AN21001     0.2180
@<TRIPOS>BOND
     1    24    23    1
     2    24    25    1
     3    23    22    2
     4    25    26    2
     5    22    18    1
     6    22    21    1
     7    16    15    1
     8    26    21    1
     9    26    27    1
    10    17    18    1
    11    17    15    1
    12    17    12    1
    13    18    19    1
    14    21    20    2
    15    15    13    1
    16    12    11    1
    17    11    13    1
    18    11    10    1
    19    19    20    1
    20    13    14    1
    21    10     9    1
    22     9     6    1
    23     3     2    2
    24     6     7    2
    25     6     8    1
    26     6     5    1
    27     4     2    1
    28     2     5    1
    29     2     1    1
