@<TRIPOS>MOLECULE
3ba8_3B8_A_1.pdb
 20 22 0 0 0
SMALL
GASTEIGER

@<TRIPOS>ATOM
      1  C5        22.6600   37.7540   53.7940 C.ar  501  3B8501      0.0328
      2  C6        21.3710   37.2660   53.4830 C.ar  501  3B8501      0.0400
      3  C3        23.6980   36.0190   52.3880 C.ar  501  3B8501      0.0359
      4  C2        22.4010   35.5260   52.0760 C.ar  501  3B8501      0.0760
      5  C1        21.2350   36.1510   52.6270 C.ar  501  3B8501      0.1513
      6  O11       17.5830   31.0470   48.6850 O.2   501  3B8501     -0.2708
      7  C4        23.8090   37.1300   53.2500 C.ar  501  3B8501      0.1404
      8  O7        19.9520   35.7190   52.3740 O.2   501  3B8501     -0.4272
      9  C8        22.2120   34.3410   51.1720 C.ar  501  3B8501      0.2039
     10  F9        25.0180   37.6030   53.5620 F     501  3B8501     -0.2042
     11  O10       23.1740   33.7550   50.6630 O.2   501  3B8501     -0.2863
     12  N12       19.7550   30.4290   48.6320 N.am  501  3B8501     -0.0871
     13  C13       18.0990   33.2200   50.6020 C.2   501  3B8501      0.2124
     14  C14       19.0800   32.4300   49.9260 C.3   501  3B8501      0.1717
     15  C15       20.4600   32.7910   50.1030 C.2   501  3B8501      0.0003
     16  C16       20.8040   33.9020   50.9280 C.ar  501  3B8501      0.1020
     17  C17       19.7580   34.6210   51.5480 C.ar  501  3B8501      0.2858
     18  N18       18.4370   34.2870   51.3890 N.2   501  3B8501     -0.3526
     19  N19       16.7400   32.9950   50.5300 N.pl3 501  3B8501     -0.0970
     20  C20       18.7450   31.2570   49.0450 C.2   501  3B8501      0.2726
@<TRIPOS>BOND
     1    12    20   am
     2     6    20    2
     3    20    14    1
     4    14    15    1
     5    14    13    1
     6    15    16    2
     7    19    13    1
     8    13    18    2
     9    11     9    2
    10    16     9   ar
    11    16    17   ar
    12     9     4   ar
    13    18    17    2
    14    17     8   ar
    15     4     3   ar
    16     4     5   ar
    17     8     5   ar
    18     3     7   ar
    19     5     2   ar
    20     7    10    1
    21     7     1   ar
    22     2     1   ar
