@<TRIPOS>MOLECULE
3ba8_NMN_A_1.pdb
 22 23 0 0 0
SMALL
GASTEIGER

@<TRIPOS>ATOM
      1  O3P        9.5450   35.2400   23.7300 O.2   401  NMN401     -0.2224
      2  P          9.7480   34.1180   24.6600 P.3   401  NMN401      0.5327
      3  O1P        9.7280   34.4470   26.1060 O.3   401  NMN401     -0.1145
      4  O2P       11.1460   33.4410   24.3920 O.3   401  NMN401     -0.1145
      5  O5R        8.7020   32.9800   24.2800 O.3   401  NMN401     -0.2675
      6  C5R        8.8900   31.6020   24.7770 C.3   401  NMN401      0.1859
      7  C4R        7.5270   30.9560   25.0010 C.3   401  NMN401      0.1801
      8  O4R        6.8480   31.5850   26.1200 O.3   401  NMN401     -0.3327
      9  C3R        6.5090   31.0440   23.8080 C.3   401  NMN401      0.2158
     10  O3R        5.8300   29.7910   23.6280 O.3   401  NMN401     -0.2175
     11  C2R        5.5780   32.1570   24.2320 C.3   401  NMN401      0.2309
     12  O2R        4.2800   32.0930   23.6560 O.3   401  NMN401     -0.2158
     13  C1R        5.5170   32.0040   25.6940 C.3   401  NMN401      0.2263
     14  N1         5.1860   33.2630   26.4070 N.pl3 401  NMN401     -0.2787
     15  C2         3.8480   33.5680   26.7380 C.3   401  NMN401      0.1244
     16  C3         3.5820   34.7650   27.3820 C.2   401  NMN401      0.0544
     17  C7         2.1290   35.0820   27.7320 C.2   401  NMN401      0.2818
     18  O7         1.9270   36.1340   28.2860 O.2   401  NMN401     -0.2670
     19  N7         1.1650   34.2420   27.4340 N.am  401  NMN401     -0.0839
     20  C4         4.6560   35.7120   27.7240 C.2   401  NMN401      0.0033
     21  C5         5.9920   35.3610   27.3740 C.2   401  NMN401      0.0157
     22  C6         6.2860   34.1350   26.7080 C.2   401  NMN401      0.0633
@<TRIPOS>BOND
     1    10     9    1
     2    12    11    1
     3     1     2    2
     4     9    11    1
     5     9     7    1
     6    11    13    1
     7     5     2    1
     8     5     6    1
     9     4     2    1
    10     2     3    1
    11     6     7    1
    12     7     8    1
    13    13     8    1
    14    13    14    1
    15    14    22    1
    16    14    15    1
    17    22    21    2
    18    15    16    1
    19    21    20    1
    20    16    20    2
    21    16    17    1
    22    19    17   am
    23    17    18    2
