@<TRIPOS>MOLECULE
3ba9_NMN_A_1.pdb
 22 23 0 0 0
SMALL
GASTEIGER

@<TRIPOS>ATOM
      1  O3P        9.4890   35.3150   23.9810 O.2   401  NMN401     -0.2224
      2  P          9.7100   34.1850   24.8940 P.3   401  NMN401      0.5327
      3  O1P        9.8400   34.5170   26.3330 O.3   401  NMN401     -0.1145
      4  O2P       11.0340   33.4260   24.5060 O.3   401  NMN401     -0.1145
      5  O5R        8.5620   33.1150   24.6110 O.3   401  NMN401     -0.2675
      6  C5R        8.7450   31.7000   24.9840 C.3   401  NMN401      0.1859
      7  C4R        7.3820   31.0470   25.1970 C.3   401  NMN401      0.1801
      8  O4R        6.6850   31.6600   26.3130 O.3   401  NMN401     -0.3327
      9  C3R        6.3760   31.1240   23.9920 C.3   401  NMN401      0.2158
     10  O3R        5.7340   29.8540   23.7800 O.3   401  NMN401     -0.2175
     11  C2R        5.4020   32.2060   24.4140 C.3   401  NMN401      0.2309
     12  O2R        4.1120   32.0780   23.8360 O.3   401  NMN401     -0.2158
     13  C1R        5.3420   32.0610   25.8810 C.3   401  NMN401      0.2263
     14  N1         5.0050   33.3180   26.6000 N.pl3 401  NMN401     -0.2787
     15  C2         3.6700   33.6140   26.9610 C.3   401  NMN401      0.1244
     16  C3         3.4080   34.8120   27.6170 C.2   401  NMN401      0.0544
     17  C7         1.9610   35.1270   28.0040 C.2   401  NMN401      0.2818
     18  O7         1.7720   36.1800   28.5620 O.2   401  NMN401     -0.2670
     19  N7         0.9870   34.2890   27.7310 N.am  401  NMN401     -0.0839
     20  C4         4.4810   35.7620   27.9350 C.2   401  NMN401      0.0033
     21  C5         5.8120   35.4220   27.5540 C.2   401  NMN401      0.0157
     22  C6         6.1010   34.2000   26.8800 C.2   401  NMN401      0.0633
@<TRIPOS>BOND
     1    10     9    1
     2    12    11    1
     3     1     2    2
     4     9    11    1
     5     9     7    1
     6    11    13    1
     7     4     2    1
     8     5     2    1
     9     5     6    1
    10     2     3    1
    11     6     7    1
    12     7     8    1
    13    13     8    1
    14    13    14    1
    15    14    22    1
    16    14    15    1
    17    22    21    2
    18    15    16    1
    19    21    20    1
    20    16    20    2
    21    16    17    1
    22    19    17   am
    23    17    18    2
