@<TRIPOS>MOLECULE
3ba9_3B9_A_1.pdb
 32 35 0 0 0
SMALL
GASTEIGER

@<TRIPOS>ATOM
      1  C15       22.9720   43.6620   54.8110 C.ar  501  3B9501      0.0376
      2  C1        17.8870   33.4150   51.3530 C.1   501  3B9501      0.2520
      3  C2        20.0550   32.6660   50.7850 C.2   501  3B9501      0.2298
      4  C3        19.7320   34.6910   52.0810 C.1   501  3B9501      0.1376
      5  C8        21.9950   37.3150   53.6150 C.3   501  3B9501      0.0676
      6  C4        20.6380   33.7750   51.4600 C.3   501  3B9501      0.2022
      7  C5        22.0370   34.0510   51.5720 C.2   501  3B9501      0.0014
      8  C6        22.5040   35.1820   52.2640 C.2   501  3B9501      0.0255
      9  C7        21.5490   36.0470   52.8570 C.2   501  3B9501      0.1217
     10  C9        21.9350   38.4960   52.6100 C.3   501  3B9501      0.1220
     11  N1        18.6910   32.5000   50.7390 N.2   501  3B9501     -0.3099
     12  N2        18.3880   34.5030   52.0200 N.2   501  3B9501     -0.2627
     13  N3        20.1900   35.7810   52.7480 N.2   501  3B9501     -0.3465
     14  N4        16.5210   33.2410   51.3000 N.pl3 501  3B9501     -0.0226
     15  N5        20.8430   31.7150   50.1490 N.pl3 501  3B9501     -0.0954
     16  C10       21.0500   37.6020   54.8160 C.3   501  3B9501      0.0088
     17  C11       23.4340   37.2080   54.2100 C.3   501  3B9501      0.0088
     18  N6        22.3090   39.8100   53.1280 N.am  501  3B9501     -0.2012
     19  C12       23.4980   40.4360   52.8530 C.2   501  3B9501      0.2648
     20  O1        24.3800   39.9300   52.1410 O.2   501  3B9501     -0.2684
     21  C13       23.7370   41.7760   53.4270 C.ar  501  3B9501      0.0552
     22  C14       22.7420   42.3760   54.2550 C.ar  501  3B9501      0.0077
     23  C16       24.1920   44.3500   54.5400 C.ar  501  3B9501      0.1453
     24  C17       25.1820   43.7350   53.6990 C.ar  501  3B9501      0.0376
     25  C18       24.9530   42.4550   53.1480 C.ar  501  3B9501      0.0077
     26  O2        24.3920   45.6230   55.1140 O.3   501  3B9501     -0.4535
     27  C19       25.5730   46.3510   54.9100 C.ar  501  3B9501      0.1453
     28  C20       26.8080   46.0630   55.5880 C.ar  501  3B9501      0.0375
     29  C21       27.9550   46.8530   55.3230 C.ar  501  3B9501      0.0031
     30  C22       27.8870   47.9270   54.3950 C.ar  501  3B9501      0.0002
     31  C23       26.6670   48.2180   53.7250 C.ar  501  3B9501      0.0031
     32  C24       25.5080   47.4320   53.9800 C.ar  501  3B9501      0.0375
@<TRIPOS>BOND
     1    15     3    1
     2    11     3    2
     3    11     2    2
     4     3     6    1
     5    14     2    1
     6     2    12    2
     7     6     7    1
     8     6     4    1
     9     7     8    2
    10    12     4    2
    11     4    13    2
    12    20    19    2
    13     8     9    1
    14    10    18    1
    15    10     5    1
    16    13     9    2
    17    19    18   am
    18    19    21    1
    19     9     5    1
    20    25    21   ar
    21    25    24   ar
    22    21    22   ar
    23     5    17    1
    24     5    16    1
    25    24    23   ar
    26    31    32   ar
    27    31    30   ar
    28    32    27   ar
    29    22     1   ar
    30    30    29   ar
    31    23     1   ar
    32    23    26    1
    33    27    26    1
    34    27    28   ar
    35    29    28   ar
