@<TRIPOS>MOLECULE
3baa_3BA_A_1.pdb
 26 28 0 0 0
SMALL
GASTEIGER

@<TRIPOS>ATOM
      1  N1        18.3810   34.1990   51.4720 N.2   501  3BA501     -0.3238
      2  C3        20.2690   32.6730   50.1120 C.2   501  3BA501      0.0077
      3  N2        22.3360   35.2360   51.9630 N.2   501  3BA501     -0.3295
      4  C4        19.6980   34.5050   51.6090 C.1   501  3BA501      0.1378
      5  C9        21.3240   38.3940   52.6680 C.3   501  3BA501      0.0170
      6  C8        21.6360   37.1110   53.4610 C.3   501  3BA501      0.0963
      7  C7        21.3180   35.9050   52.5660 C.1   501  3BA501      0.1238
      8  C6        22.0580   34.1660   51.1510 C.2   501  3BA501      0.2080
      9  C5        20.7050   33.7550   50.9370 C.3   501  3BA501      0.2007
     10  C10       20.7690   37.0790   54.7380 C.3   501  3BA501      0.0170
     11  C12       18.4950   31.2300   49.0650 C.2   501  3BA501      0.2878
     12  C13       24.5390   33.8280   50.6130 C.3   501  3BA501      0.1206
     13  C14       24.8830   34.9930   49.6690 C.3   501  3BA501      0.0668
     14  C15       24.2860   36.3380   49.3950 C.2   501  3BA501      0.0648
     15  C16       22.8930   37.7770   48.6090 C.2   501  3BA501      0.1939
     16  C17       24.7390   37.5700   49.8070 C.3   501  3BA501      0.1683
     17  C1        17.9530   33.1530   50.6750 C.2   501  3BA501      0.2354
     18  C2        18.8960   32.3590   49.9640 C.2   501  3BA501      0.1017
     19  N3        20.0110   35.5540   52.4020 N.2   501  3BA501     -0.2830
     20  N4        16.5730   32.9220   50.5920 N.pl3 501  3BA501     -0.0920
     21  C11       23.1160   37.1500   53.8960 C.3   501  3BA501      0.0170
     22  O1        17.3370   31.1610   48.6500 O.2   501  3BA501     -0.2665
     23  N5        19.4960   30.3530   48.7230 N.am  501  3BA501     -0.0836
     24  N6        23.1150   33.4810   50.5250 N.pl3 501  3BA501     -0.2111
     25  N7        23.1230   36.4770   48.6430 N.2   501  3BA501     -0.2310
     26  N8        23.8440   38.4800   49.2990 N.2   501  3BA501     -0.2440
@<TRIPOS>BOND
     1    15    25    1
     2    15    26    2
     3    25    14    2
     4    22    11    2
     5    23    11   am
     6    11    18    1
     7    26    16    1
     8    14    13    1
     9    14    16    1
    10    13    12    1
    11    18     2    2
    12    18    17    1
    13     2     9    1
    14    24    12    1
    15    24     8    1
    16    20    17    1
    17    17     1    2
    18     9     8    1
    19     9     4    1
    20     8     3    2
    21     1     4    2
    22     4    19    2
    23     3     7    2
    24    19     7    2
    25     7     6    1
    26     5     6    1
    27     6    21    1
    28     6    10    1
