@<TRIPOS>MOLECULE
3baa_NMN_A_1.pdb
 22 23 0 0 0
SMALL
GASTEIGER

@<TRIPOS>ATOM
      1  O3P        9.4550   35.3820   23.7050 O.2   401  NMN401     -0.2224
      2  P          9.6410   34.2580   24.6460 P.3   401  NMN401      0.5327
      3  O1P        9.7070   34.6100   26.0900 O.3   401  NMN401     -0.1145
      4  O2P       10.9870   33.4970   24.3360 O.3   401  NMN401     -0.1145
      5  O5R        8.5170   33.1700   24.3260 O.3   401  NMN401     -0.2675
      6  C5R        8.6730   31.7730   24.7790 C.3   401  NMN401      0.1859
      7  C4R        7.2950   31.1550   25.0550 C.3   401  NMN401      0.1801
      8  O4R        6.6430   31.8180   26.1730 O.3   401  NMN401     -0.3327
      9  C3R        6.2540   31.2280   23.8850 C.3   401  NMN401      0.2158
     10  O3R        5.5220   29.9900   23.7920 O.3   401  NMN401     -0.2175
     11  C2R        5.3770   32.3840   24.2870 C.3   401  NMN401      0.2309
     12  O2R        4.0810   32.3640   23.7060 O.3   401  NMN401     -0.2158
     13  C1R        5.3130   32.2480   25.7530 C.3   401  NMN401      0.2263
     14  N1         5.0120   33.5160   26.4510 N.pl3 401  NMN401     -0.2787
     15  C2         3.6850   33.8430   26.7870 C.3   401  NMN401      0.1244
     16  C3         3.4370   35.0510   27.4180 C.2   401  NMN401      0.0544
     17  C7         1.9910   35.3840   27.7730 C.2   401  NMN401      0.2818
     18  O7         1.8050   36.4420   28.3090 O.2   401  NMN401     -0.2670
     19  N7         1.0130   34.5480   27.4970 N.am  401  NMN401     -0.0839
     20  C4         4.5280   35.9910   27.7400 C.2   401  NMN401      0.0033
     21  C5         5.8590   35.6180   27.3840 C.2   401  NMN401      0.0157
     22  C6         6.1290   34.3790   26.7320 C.2   401  NMN401      0.0633
@<TRIPOS>BOND
     1     1     2    2
     2    12    11    1
     3    10     9    1
     4     9    11    1
     5     9     7    1
     6    11    13    1
     7     5     2    1
     8     5     6    1
     9     4     2    1
    10     2     3    1
    11     6     7    1
    12     7     8    1
    13    13     8    1
    14    13    14    1
    15    14    22    1
    16    14    15    1
    17    22    21    2
    18    15    16    1
    19    21    20    1
    20    16    20    2
    21    16    17    1
    22    19    17   am
    23    17    18    2
