@<TRIPOS>MOLECULE
3bab_3BD_A_1.pdb
 30 33 0 0 0
SMALL
GASTEIGER

@<TRIPOS>ATOM
      1  C12       18.8680   31.1550   49.0860 C.2   501  3BD501      0.2878
      2  C13       24.8580   33.4300   51.2730 C.3   501  3BD501      0.1151
      3  C8        22.0880   37.1810   53.3200 C.3   501  3BD501      0.0963
      4  C9        23.5970   37.3980   53.5330 C.3   501  3BD501      0.0170
      5  C10       21.5250   38.4410   52.6520 C.3   501  3BD501      0.0170
      6  C11       21.4390   37.0200   54.7050 C.3   501  3BD501      0.0170
      7  C14       25.7650   32.2940   50.8130 C.3   501  3BD501      0.1228
      8  C15       24.6990   32.4320   48.5470 C.3   501  3BD501      0.1228
      9  O1        17.6870   31.0150   48.7550 O.2   501  3BD501     -0.2665
     10  N3        20.4640   35.6220   52.2100 N.2   501  3BD501     -0.2830
     11  C1        18.3680   33.2050   50.5400 C.2   501  3BD501      0.2354
     12  C2        19.2940   32.3370   49.9080 C.2   501  3BD501      0.1017
     13  C3        20.6760   32.6220   50.0780 C.2   501  3BD501      0.0076
     14  C4        20.1440   34.5530   51.4520 C.1   501  3BD501      0.1377
     15  C7        21.7860   35.9470   52.4280 C.1   501  3BD501      0.1238
     16  N1        18.8220   34.2840   51.2890 N.2   501  3BD501     -0.3238
     17  N2        22.8230   35.2200   51.8840 N.2   501  3BD501     -0.3310
     18  C5        21.1430   33.7370   50.8540 C.3   501  3BD501      0.1992
     19  C6        22.5230   34.1110   51.0910 C.2   501  3BD501      0.1923
     20  N4        16.9840   33.0160   50.4390 N.pl3 501  3BD501     -0.0920
     21  N5        19.8770   30.2780   48.7460 N.am  501  3BD501     -0.0836
     22  N6        23.5730   33.3410   50.5310 N.pl3 501  3BD501     -0.2816
     23  N7        25.9570   32.3900   49.3440 N.pl3 501  3BD501     -0.2496
     24  C16       23.7960   33.5600   49.0720 C.3   501  3BD501      0.1151
     25  C17       26.9090   31.4430   48.8500 C.1   501  3BD501      0.0903
     26  N8        26.9180   31.1130   47.5060 N.2   501  3BD501     -0.1805
     27  C18       27.8490   30.2110   47.0600 C.2   501  3BD501      0.1082
     28  C19       28.7990   29.5970   47.8810 C.2   501  3BD501      0.0223
     29  C20       28.7350   29.9710   49.2200 C.3   501  3BD501      0.1653
     30  N9        27.8230   30.8700   49.7180 N.2   501  3BD501     -0.2029
@<TRIPOS>BOND
     1    27    26    1
     2    27    28    2
     3    26    25    2
     4    28    29    1
     5     8    24    1
     6     8    23    1
     7    21     1   am
     8     9     1    2
     9    25    23    1
    10    25    30    2
    11    24    22    1
    12     1    12    1
    13    29    30    1
    14    23     7    1
    15    12    13    2
    16    12    11    1
    17    13    18    1
    18    20    11    1
    19    22    19    1
    20    22     2    1
    21    11    16    2
    22     7     2    1
    23    18    19    1
    24    18    14    1
    25    19    17    2
    26    16    14    2
    27    14    10    2
    28    17    15    2
    29    10    15    2
    30    15     3    1
    31     5     3    1
    32     3     4    1
    33     3     6    1
