@<TRIPOS>MOLECULE
3bab_NMN_A_1.pdb
 22 23 0 0 0
SMALL
GASTEIGER

@<TRIPOS>ATOM
      1  O3P        9.2760   35.4300   23.3190 O.2   401  NMN401     -0.2224
      2  P          9.7190   34.2780   24.1190 P.3   401  NMN401      0.5327
      3  O1P       10.2050   34.5720   25.4960 O.3   401  NMN401     -0.1145
      4  O2P       10.9100   33.5260   23.3890 O.3   401  NMN401     -0.1145
      5  O5R        8.5390   33.2060   24.0960 O.3   401  NMN401     -0.2675
      6  C5R        8.7390   31.8730   24.6740 C.3   401  NMN401      0.1859
      7  C4R        7.3780   31.2500   24.9500 C.3   401  NMN401      0.1801
      8  O4R        6.7210   31.9110   26.0660 O.3   401  NMN401     -0.3327
      9  C3R        6.3390   31.3020   23.7830 C.3   401  NMN401      0.2158
     10  O3R        5.6720   30.0460   23.6400 O.3   401  NMN401     -0.2175
     11  C2R        5.4000   32.4180   24.1980 C.3   401  NMN401      0.2309
     12  O2R        4.0980   32.2990   23.6530 O.3   401  NMN401     -0.2158
     13  C1R        5.3710   32.3050   25.6630 C.3   401  NMN401      0.2263
     14  N1         5.0370   33.5640   26.3790 N.pl3 401  NMN401     -0.2787
     15  C2         3.6950   33.8650   26.7400 C.3   401  NMN401      0.1244
     16  C3         3.4330   35.0710   27.3970 C.2   401  NMN401      0.0544
     17  C7         1.9780   35.4050   27.7790 C.2   401  NMN401      0.2818
     18  O7         1.7880   36.4660   28.3310 O.2   401  NMN401     -0.2670
     19  N7         1.0010   34.5830   27.5100 N.am  401  NMN401     -0.0839
     20  C4         4.5240   36.0180   27.7140 C.2   401  NMN401      0.0033
     21  C5         5.8530   35.6670   27.3330 C.2   401  NMN401      0.0157
     22  C6         6.1340   34.4440   26.6600 C.2   401  NMN401      0.0633
@<TRIPOS>BOND
     1     1     2    2
     2     4     2    1
     3    10     9    1
     4    12    11    1
     5     9    11    1
     6     9     7    1
     7     5     2    1
     8     5     6    1
     9     2     3    1
    10    11    13    1
    11     6     7    1
    12     7     8    1
    13    13     8    1
    14    13    14    1
    15    14    22    1
    16    14    15    1
    17    22    21    2
    18    15    16    1
    19    21    20    1
    20    16    20    2
    21    16    17    1
    22    19    17   am
    23    17    18    2
