@<TRIPOS>MOLECULE
3bac_3B9_A_1.pdb
 32 35 0 0 0
SMALL
GASTEIGER

@<TRIPOS>ATOM
      1  C15      101.0340  106.9710   76.0260 C.ar  501  3B9501      0.0376
      2  C1        91.0580  107.9430   82.9080 C.1   501  3B9501      0.2520
      3  C2        90.3810  109.5260   81.2840 C.2   501  3B9501      0.2298
      4  C3        92.3490  108.1330   80.9530 C.1   501  3B9501      0.1376
      5  C8        94.9450  107.7620   78.1980 C.3   501  3B9501      0.0676
      6  C4        91.4780  109.1600   80.4560 C.3   501  3B9501      0.2022
      7  C5        91.7800  109.7200   79.1850 C.2   501  3B9501      0.0014
      8  C6        92.8890  109.2800   78.4460 C.2   501  3B9501      0.0255
      9  C7        93.7080  108.2610   78.9900 C.2   501  3B9501      0.1217
     10  C9        96.1630  108.6380   78.5720 C.3   501  3B9501      0.1220
     11  N1        90.1820  108.9150   82.4990 N.2   501  3B9501     -0.3099
     12  N2        92.1300  107.5500   82.1520 N.2   501  3B9501     -0.2627
     13  N3        93.4200  107.7130   80.2340 N.2   501  3B9501     -0.3465
     14  N4        90.8480  107.3370   84.1250 N.pl3 501  3B9501     -0.0226
     15  N5        89.4720  110.5110   80.8920 N.pl3 501  3B9501     -0.0954
     16  C10       95.2390  106.2800   78.5450 C.3   501  3B9501      0.0088
     17  C11       94.7670  107.8140   76.6560 C.3   501  3B9501      0.0088
     18  N6        97.4020  108.2980   77.8850 N.am  501  3B9501     -0.2012
     19  C12       98.1040  109.1960   77.1000 C.2   501  3B9501      0.2648
     20  O1        97.7340  110.3740   76.9060 O.2   501  3B9501     -0.2684
     21  C13       99.3600  108.7420   76.4590 C.ar  501  3B9501      0.0552
     22  C14       99.8230  107.3970   76.6510 C.ar  501  3B9501      0.0077
     23  C16      101.7720  107.8840   75.2150 C.ar  501  3B9501      0.1453
     24  C17      101.2930  109.2330   75.0380 C.ar  501  3B9501      0.0376
     25  C18      100.0970  109.6520   75.6530 C.ar  501  3B9501      0.0077
     26  O2       102.9620  107.4600   74.5930 O.3   501  3B9501     -0.4535
     27  C19      103.3910  108.1250   73.4300 C.ar  501  3B9501      0.1453
     28  C20      102.6890  108.0490   72.1690 C.ar  501  3B9501      0.0375
     29  C21      103.1880  108.7620   71.0480 C.ar  501  3B9501      0.0031
     30  C22      104.3790  109.5480   71.1650 C.ar  501  3B9501      0.0002
     31  C23      105.0770  109.6210   72.4120 C.ar  501  3B9501      0.0031
     32  C24      104.5880  108.9140   73.5440 C.ar  501  3B9501      0.0375
@<TRIPOS>BOND
     1    29    30   ar
     2    29    28   ar
     3    30    31   ar
     4    28    27   ar
     5    31    32   ar
     6    27    32   ar
     7    27    26    1
     8    26    23    1
     9    24    23   ar
    10    24    25   ar
    11    23     1   ar
    12    25    21   ar
    13     1    22   ar
    14    21    22   ar
    15    21    19    1
    16    17     5    1
    17    20    19    2
    18    19    18   am
    19    18    10    1
    20     5    16    1
    21     5    10    1
    22     5     9    1
    23     8     9    1
    24     8     7    2
    25     9    13    2
    26     7     6    1
    27    13     4    2
    28     6     4    1
    29     6     3    1
    30    15     3    1
    31     4    12    2
    32     3    11    2
    33    12     2    2
    34    11     2    2
    35     2    14    1
