@<TRIPOS>MOLECULE
3baf_SKM_A_1.pdb
 12 12 0 0 0
SMALL
GASTEIGER

@<TRIPOS>ATOM
      1  O12      -20.8120    5.8240   34.1810 O.3   500  SKM500     -0.2177
      2  C8       -20.2070    6.3410   32.9620 C.3   500  SKM500      0.2122
      3  C6       -20.5840    7.7950   32.4950 C.3   500  SKM500      0.1852
      4  O7       -20.6880    8.8330   33.5620 O.3   500  SKM500     -0.2203
      5  C5       -21.6890    7.8080   31.3850 C.3   500  SKM500      0.0470
      6  C4       -22.4880    6.7330   31.1230 C.3   500  SKM500      0.1086
      7  C1       -23.7130    6.8340   30.5370 C.2   500  SKM500      0.3645
      8  O2       -24.4180    5.7520   30.4530 O.co2 500  SKM500     -0.2457
      9  O3       -24.1590    7.9590   30.1090 O.co2 500  SKM500     -0.2457
     10  C10      -22.0600    5.5130   31.5330 C.3   500  SKM500      0.0470
     11  C9       -20.5740    5.3190   31.8620 C.3   500  SKM500      0.1852
     12  O11      -19.6290    5.4170   30.7540 O.3   500  SKM500     -0.2203
@<TRIPOS>BOND
     1     9     7   ar
     2     8     7   ar
     3     7     6    1
     4    12    11    1
     5     6     5    1
     6     6    10    1
     7     5     3    1
     8    10    11    1
     9    11     2    1
    10     3     2    1
    11     3     4    1
    12     2     1    1
