@<TRIPOS>MOLECULE
3baf_ANP_A_1.pdb
 31 33 0 0 0
SMALL
GASTEIGER

@<TRIPOS>ATOM
      1  PG       -19.7080   11.4180   33.4180 P.3   700  ANP700      0.4884
      2  O1G      -18.7680   10.4680   32.6700 O.2   700  ANP700     -0.2331
      3  O2G      -19.6500   10.7490   34.8000 O.3   700  ANP700     -0.1240
      4  O3G      -21.0820   11.1920   32.8890 O.3   700  ANP700     -0.1240
      5  PB       -19.3090   14.9440   34.2590 P.3   700  ANP700      0.4669
      6  O1B      -20.7620   15.4450   34.3440 O.2   700  ANP700     -0.2351
      7  O2B      -18.8490   14.5540   35.6460 O.3   700  ANP700     -0.1253
      8  N3B      -19.1180   13.3210   33.3060 N.3   700  ANP700     -0.0163
      9  PA       -17.1130   17.1030   34.4920 P.3   700  ANP700      0.2220
     10  O1A      -17.1230   17.6880   35.8680 O.3   700  ANP700     -0.4370
     11  O2A      -16.1160   16.0660   34.1530 O.2   700  ANP700     -0.5170
     12  O3A      -18.6140   16.4760   34.0590 O.3   700  ANP700     -0.2360
     13  O5'      -16.8130   18.3520   33.4390 O.3   700  ANP700     -0.3111
     14  C5'      -16.3670   18.1950   32.0420 C.3   700  ANP700      0.1813
     15  C4'      -15.4420   19.3560   31.5460 C.3   700  ANP700      0.1821
     16  O4'      -16.2510   20.5420   31.4660 O.3   700  ANP700     -0.3135
     17  C3'      -14.2520   19.6660   32.5330 C.3   700  ANP700      0.2184
     18  O3'      -12.9140   19.9760   31.9870 O.3   700  ANP700     -0.2174
     19  C2'      -14.7310   20.8910   33.2660 C.3   700  ANP700      0.2570
     20  O2'      -13.5410   21.6390   33.5660 O.3   700  ANP700     -0.2130
     21  C1'      -15.7080   21.6070   32.3150 C.3   700  ANP700      0.3186
     22  N9       -16.7850   22.4320   32.9690 N.pl3 700  ANP700     -0.1439
     23  C8       -17.6870   21.8880   33.8860 C.3   700  ANP700      0.3377
     24  N7       -18.6060   22.8090   34.3110 N.2   700  ANP700     -0.2095
     25  C5       -18.3290   23.9770   33.6610 C.2   700  ANP700      0.2526
     26  C6       -18.8700   25.3530   33.6940 C.2   700  ANP700      0.4393
     27  N6       -19.9410   25.7130   34.4660 N.pl3 700  ANP700      0.2180
     28  N1       -18.2740   26.2870   32.8810 N.2   700  ANP700      0.0021
     29  C2       -17.1740   26.0140   32.1140 C.3   700  ANP700      0.5254
     30  N3       -16.6430   24.7910   32.0230 N.2   700  ANP700     -0.0055
     31  C4       -17.1210   23.7330   32.7890 C.2   700  ANP700      0.3518
@<TRIPOS>BOND
     1    16    15    1
     2    16    21    1
     3    15    14    1
     4    15    17    1
     5    18    17    1
     6    30    29    1
     7    30    31    2
     8    14    13    1
     9    29    28    1
    10    21    22    1
    11    21    19    1
    12    17    19    1
    13     2     1    2
    14    31    22    1
    15    31    25    1
    16    28    26    2
    17     4     1    1
    18    22    23    1
    19    19    20    1
    20     8     1    1
    21     8     5    1
    22     1     3    1
    23    13     9    1
    24    25    26    1
    25    25    24    2
    26    26    27    1
    27    23    24    1
    28    12     5    1
    29    12     9    1
    30    11     9    2
    31     5     6    2
    32     5     7    1
    33     9    10    1
