@<TRIPOS>MOLECULE
3bar_U5P_A_1.pdb
 21 22 0 0 0
SMALL
GASTEIGER

@<TRIPOS>ATOM
      1  N1         8.2420   24.7320   22.8880 N.am  3000  U5P3000    -0.1766
      2  C2         7.1430   25.3780   22.4240 C.1   3000  U5P3000     0.2845
      3  N3         6.2240   24.7360   21.6680 N.2   3000  U5P3000    -0.2452
      4  C4         6.3860   23.4310   21.3860 C.1   3000  U5P3000     0.2182
      5  C5         7.4930   22.7330   21.8520 C.2   3000  U5P3000     0.1242
      6  C6         8.4490   23.4070   22.6180 C.2   3000  U5P3000     0.0929
      7  O2         6.9270   26.6020   22.6210 O.2   3000  U5P3000    -0.1918
      8  O4         5.5090   22.8730   20.6850 O.2   3000  U5P3000    -0.2085
      9  C1'        9.1220   25.4740   23.8010 C.3   3000  U5P3000     0.2401
     10  C2'        9.7830   26.7700   23.3840 C.3   3000  U5P3000     0.2319
     11  O2'       11.0620   26.4470   22.8300 O.3   3000  U5P3000    -0.2157
     12  C3'        9.8770   27.4790   24.7330 C.3   3000  U5P3000     0.2158
     13  C4'        8.5540   27.1620   25.4210 C.3   3000  U5P3000     0.1801
     14  O3'       10.9400   26.9040   25.5220 O.3   3000  U5P3000    -0.2175
     15  O4'        8.2320   25.8700   24.8970 O.3   3000  U5P3000    -0.3320
     16  C5'        7.5270   28.2560   25.0980 C.3   3000  U5P3000     0.1859
     17  O5'        7.8250   29.4030   25.9000 O.3   3000  U5P3000    -0.2675
     18  P          6.9890   30.7940   25.8100 P.3   3000  U5P3000     0.5327
     19  O1P        8.0540   31.8430   26.0760 O.3   3000  U5P3000    -0.1145
     20  O2P        6.3520   30.7890   24.4560 O.2   3000  U5P3000    -0.2224
     21  O3P        5.9300   30.7470   26.8990 O.3   3000  U5P3000    -0.1145
@<TRIPOS>BOND
     1     8     4    2
     2     4     3    2
     3     4     5    1
     4     3     2    2
     5     5     6    2
     6     2     7    2
     7     2     1   am
     8     6     1    1
     9    11    10    1
    10     1     9    1
    11    10     9    1
    12    10    12    1
    13     9    15    1
    14    20    18    2
    15    12    13    1
    16    12    14    1
    17    15    13    1
    18    16    13    1
    19    16    17    1
    20    18    17    1
    21    18    19    1
    22    18    21    1
