@<TRIPOS>MOLECULE
3baz_NAP_A_1.pdb
 48 52 0 0 0
SMALL
GASTEIGER

@<TRIPOS>ATOM
      1  PA        39.4800   19.5770  -14.8910 P.3   500  NAP500      0.2189
      2  O1A       40.2570   18.8840  -15.7800 O.2   500  NAP500     -0.5170
      3  O2A       39.5140   20.9370  -14.8570 O.3   500  NAP500     -0.4371
      4  O5B       39.9070   19.1510  -13.5900 O.3   500  NAP500     -0.3112
      5  C5B       40.3150   17.9400  -13.3090 C.3   500  NAP500      0.1813
      6  C4B       41.2480   17.7550  -12.1950 C.3   500  NAP500      0.1820
      7  O4B       41.5190   16.4940  -11.8100 O.3   500  NAP500     -0.3136
      8  C3B       42.5820   18.4550  -12.1220 C.3   500  NAP500      0.2157
      9  O3B       42.5730   19.1800  -10.9130 O.3   500  NAP500     -0.2175
     10  C2B       43.6430   17.3510  -12.1670 C.3   500  NAP500      0.2314
     11  O2B       44.8700   17.6450  -11.4300 O.3   500  NAP500     -0.2630
     12  C1B       42.8870   16.2500  -11.5300 C.3   500  NAP500      0.3158
     13  N9A       43.3970   14.9840  -12.0540 N.pl3 500  NAP500     -0.1439
     14  C8A       43.5370   14.5940  -13.3150 C.3   500  NAP500      0.3377
     15  N7A       44.0180   13.4120  -13.3580 N.2   500  NAP500     -0.2095
     16  C5A       44.2060   12.9940  -12.1550 C.2   500  NAP500      0.2526
     17  C6A       44.6920   11.8240  -11.5600 C.2   500  NAP500      0.4393
     18  N6A       45.1320   10.7410  -12.1790 N.pl3 500  NAP500      0.2180
     19  N1A       44.7280   11.7800  -10.2480 N.2   500  NAP500      0.0021
     20  C2A       44.3370   12.7800   -9.5060 C.3   500  NAP500      0.5254
     21  N3A       43.8910   13.9000  -10.0280 N.2   500  NAP500     -0.0055
     22  C4A       43.8130   14.0110  -11.3300 C.2   500  NAP500      0.3518
     23  O3        38.0260   19.1360  -15.2580 O.3   500  NAP500     -0.2703
     24  PN        36.6680   19.5560  -14.6460 P.3   500  NAP500      0.2189
     25  O1N       35.9820   20.3470  -15.5500 O.2   500  NAP500     -0.5170
     26  O2N       36.7950   20.1520  -13.3510 O.3   500  NAP500     -0.4371
     27  O5D       35.8890   18.2860  -14.6300 O.3   500  NAP500     -0.3112
     28  C5D       36.1560   17.2050  -13.8260 C.3   500  NAP500      0.1813
     29  C4D       35.3520   15.9870  -14.0910 C.3   500  NAP500      0.1799
     30  O4D       34.1000   16.1550  -13.5640 O.3   500  NAP500     -0.3327
     31  C3D       35.0730   15.5650  -15.5220 C.3   500  NAP500      0.2158
     32  O3D       36.1480   14.9430  -16.1970 O.3   500  NAP500     -0.2175
     33  C2D       33.8820   14.6610  -15.2830 C.3   500  NAP500      0.2309
     34  O2D       34.1890   13.3590  -15.2360 O.3   500  NAP500     -0.2158
     35  C1D       33.2550   15.2050  -13.9820 C.3   500  NAP500      0.2263
     36  N1N       31.9450   15.8770  -14.1890 N.pl3 500  NAP500     -0.2787
     37  C2N       30.7940   15.4030  -13.5940 C.3   500  NAP500      0.1244
     38  C3N       29.5830   16.0440  -13.8420 C.2   500  NAP500      0.0544
     39  C7N       28.2220   15.7030  -13.2820 C.2   500  NAP500      0.2818
     40  O7N       27.2670   16.0890  -13.9230 O.2   500  NAP500     -0.2670
     41  N7N       28.2070   15.3420  -12.0490 N.am  500  NAP500     -0.0839
     42  C4N       29.5940   17.1410  -14.7320 C.2   500  NAP500      0.0033
     43  C5N       30.7500   17.5990  -15.3120 C.2   500  NAP500      0.0157
     44  C6N       31.8780   16.9320  -15.0210 C.2   500  NAP500      0.0633
     45  P2B       46.3550   17.0670  -11.7440 P.3   500  NAP500      0.5328
     46  O1X       46.5930   17.2960  -13.1160 O.2   500  NAP500     -0.2224
     47  O2X       47.3540   17.8010  -11.0120 O.3   500  NAP500     -0.1145
     48  O3X       46.5300   15.6920  -11.1690 O.3   500  NAP500     -0.1145
@<TRIPOS>BOND
     1    32    31    1
     2     2     1    2
     3    25    24    2
     4    31    33    1
     5    31    29    1
     6    43    44    2
     7    43    42    1
     8    33    34    1
     9    33    35    1
    10    23     1    1
    11    23    24    1
    12    44    36    1
    13     1     3    1
    14     1     4    1
    15    42    38    2
    16    24    27    1
    17    24    26    1
    18    27    28    1
    19    36    35    1
    20    36    37    1
    21    29    28    1
    22    29    30    1
    23    35    30    1
    24    40    39    2
    25    38    37    1
    26    38    39    1
    27     4     5    1
    28    15    14    1
    29    15    16    2
    30    14    13    1
    31     5     6    1
    32    39    41   am
    33    46    45    2
    34     6     8    1
    35     6     7    1
    36    18    17    1
    37    10     8    1
    38    10    12    1
    39    10    11    1
    40    16    17    1
    41    16    22    1
    42     8     9    1
    43    13    12    1
    44    13    22    1
    45     7    12    1
    46    45    11    1
    47    45    48    1
    48    45    47    1
    49    17    19    2
    50    22    21    2
    51    19    20    1
    52    21    20    1
