@<TRIPOS>MOLECULE
3bb1_GNP_A_1.pdb
 32 34 0 0 0
SMALL
GASTEIGER

@<TRIPOS>ATOM
      1  PG        -0.7690   55.4090   40.6870 P.3   281  GNP281      0.4884
      2  O1G       -1.0110   54.7390   39.3630 O.2   281  GNP281     -0.2331
      3  O2G       -2.1510   55.7400   41.2400 O.3   281  GNP281     -0.1240
      4  O3G        0.1930   56.5400   40.6180 O.3   281  GNP281     -0.1240
      5  N3B       -0.0870   54.1750   41.6390 N.3   281  GNP281     -0.0163
      6  PB        -0.1060   54.1980   43.2850 P.3   281  GNP281      0.4669
      7  O1B        0.9980   54.9000   43.9410 O.3   281  GNP281     -0.1253
      8  O2B       -1.4690   54.5760   43.8030 O.2   281  GNP281     -0.2351
      9  O3A        0.1760   52.6580   43.6590 O.3   281  GNP281     -0.2360
     10  PA        -1.0530   51.6310   43.9100 P.3   281  GNP281      0.2220
     11  O1A       -1.6910   51.8480   45.2410 O.3   281  GNP281     -0.4370
     12  O2A       -1.8420   51.6730   42.6650 O.2   281  GNP281     -0.5170
     13  O5'       -0.3040   50.2820   44.1050 O.3   281  GNP281     -0.3111
     14  C5'        0.6480   49.9400   43.0920 C.3   281  GNP281      0.1813
     15  C4'        0.8640   48.4650   43.0600 C.3   281  GNP281      0.1799
     16  O4'        1.7860   48.2370   44.1470 O.3   281  GNP281     -0.3326
     17  C3'       -0.3560   47.5900   43.3230 C.3   281  GNP281      0.2158
     18  O3'       -0.1490   46.3210   42.7030 O.3   281  GNP281     -0.2175
     19  C2'       -0.3210   47.2870   44.7720 C.3   281  GNP281      0.2310
     20  O2'       -0.8350   46.0000   45.0570 O.3   281  GNP281     -0.2158
     21  C1'        1.1970   47.3210   45.0520 C.3   281  GNP281      0.2293
     22  N9         1.5780   47.7910   46.3620 N.pl3 281  GNP281     -0.2354
     23  C8         1.3700   49.0360   46.9160 C.3   281  GNP281      0.2246
     24  N7         1.8330   49.1560   48.1320 N.2   281  GNP281     -0.2322
     25  C5         2.4120   47.9060   48.3460 C.2   281  GNP281      0.2182
     26  C6         3.0950   47.4530   49.4930 C.1   281  GNP281      0.2372
     27  O6         3.3450   48.0360   50.5680 O.2   281  GNP281     -0.2069
     28  N1         3.4820   46.1180   49.2960 N.2   281  GNP281     -0.2485
     29  C2         3.2880   45.3430   48.1970 C.1   281  GNP281      0.2531
     30  N2         3.7680   44.0880   48.2490 N.pl3 281  GNP281     -0.0226
     31  N3         2.6780   45.7900   47.1210 N.2   281  GNP281     -0.3074
     32  C4         2.2570   47.0640   47.2950 C.2   281  GNP281      0.2300
@<TRIPOS>BOND
     1     2     1    2
     2     4     1    1
     3     1     3    1
     4     1     5    1
     5     5     6    1
     6    12    10    2
     7    18    17    1
     8    15    14    1
     9    15    17    1
    10    15    16    1
    11    14    13    1
    12     6     9    1
    13     6     8    2
    14     6     7    1
    15    17    19    1
    16     9    10    1
    17    10    13    1
    18    10    11    1
    19    16    21    1
    20    19    21    1
    21    19    20    1
    22    21    22    1
    23    22    23    1
    24    22    32    1
    25    23    24    1
    26    31    32    2
    27    31    29    2
    28    32    25    1
    29    24    25    2
    30    29    30    1
    31    29    28    2
    32    25    26    1
    33    28    26    2
    34    26    27    2
