@<TRIPOS>MOLECULE
3bb3_GDP_A_1.pdb
 28 30 0 0 0
SMALL
GASTEIGER

@<TRIPOS>ATOM
      1  PB        18.3360   44.8440   15.0770 P.3   281  GDP281      0.5373
      2  O1B       17.9440   45.2240   13.6660 O.2   281  GDP281     -0.2221
      3  O2B       19.1450   45.8970   15.8120 O.3   281  GDP281     -0.1143
      4  O3B       18.9490   43.3420   15.0590 O.3   281  GDP281     -0.1143
      5  O3A       16.9670   44.5120   15.8810 O.3   281  GDP281     -0.2261
      6  PA        16.7620   43.6980   17.2650 P.3   281  GDP281      0.2231
      7  O1A       18.0940   43.6000   17.9300 O.3   281  GDP281     -0.4370
      8  O2A       15.9660   42.4660   16.9610 O.2   281  GDP281     -0.5169
      9  O5'       15.7890   44.6020   18.1750 O.3   281  GDP281     -0.3111
     10  C5'       15.8520   45.9850   18.5780 C.3   281  GDP281      0.1813
     11  C4'       14.8010   46.1820   19.7060 C.3   281  GDP281      0.1799
     12  O4'       13.4660   46.2250   19.1680 O.3   281  GDP281     -0.3326
     13  C3'       14.7310   45.0540   20.7530 C.3   281  GDP281      0.2158
     14  O3'       14.7360   45.5530   22.1060 O.3   281  GDP281     -0.2175
     15  C2'       13.4980   44.2120   20.3600 C.3   281  GDP281      0.2310
     16  O2'       12.7890   43.4950   21.3750 O.3   281  GDP281     -0.2158
     17  C1'       12.5850   45.1970   19.6840 C.3   281  GDP281      0.2293
     18  N9        11.7990   44.5640   18.5790 N.pl3 281  GDP281     -0.2354
     19  C8        12.2810   43.9200   17.4790 C.3   281  GDP281      0.2246
     20  N7        11.2660   43.4990   16.6950 N.2   281  GDP281     -0.2322
     21  C5        10.1250   43.9070   17.3180 C.2   281  GDP281      0.2182
     22  C6         8.6620   43.7800   17.0070 C.1   281  GDP281      0.2372
     23  O6         8.2170   43.2200   15.9760 O.2   281  GDP281     -0.2069
     24  N1         7.7910   44.3060   17.9020 N.2   281  GDP281     -0.2485
     25  C2         8.1980   44.9340   19.0270 C.1   281  GDP281      0.2531
     26  N2         7.2270   45.4030   19.8130 N.pl3 281  GDP281     -0.0226
     27  N3         9.5120   45.0870   19.3380 N.2   281  GDP281     -0.3074
     28  C4        10.4680   44.5770   18.5040 C.2   281  GDP281      0.2300
@<TRIPOS>BOND
     1     2     1    2
     2     4     1    1
     3     1     3    1
     4     1     5    1
     5     5     6    1
     6    23    22    2
     7    20    21    2
     8    20    19    1
     9     8     6    2
    10    22    21    1
    11    22    24    2
    12     6     7    1
    13     6     9    1
    14    21    28    1
    15    19    18    1
    16    24    25    2
    17     9    10    1
    18    28    18    1
    19    28    27    2
    20    10    11    1
    21    18    17    1
    22    25    27    2
    23    25    26    1
    24    12    17    1
    25    12    11    1
    26    17    15    1
    27    11    13    1
    28    15    13    1
    29    15    16    1
    30    13    14    1
