@<TRIPOS>MOLECULE
3bb4_GNP_A_1.pdb
 32 34 0 0 0
SMALL
GASTEIGER

@<TRIPOS>ATOM
      1  PG        39.5990   14.7950   15.3480 P.3   264  GNP264      0.4884
      2  O1G       38.9770   13.4690   15.7380 O.3   264  GNP264     -0.1240
      3  O2G       39.0550   16.0490   15.9380 O.3   264  GNP264     -0.1240
      4  O3G       39.5340   15.0310   13.8780 O.2   264  GNP264     -0.2331
      5  N3B       41.2180   14.8470   15.8800 N.3   264  GNP264     -0.0163
      6  PB        42.2520   15.9320   15.1740 P.3   264  GNP264      0.4669
      7  O1B       42.6000   15.3850   13.8380 O.2   264  GNP264     -0.2351
      8  O2B       41.6090   17.3000   15.3680 O.3   264  GNP264     -0.1253
      9  O3A       43.6050   15.9810   16.0930 O.3   264  GNP264     -0.2360
     10  PA        43.8010   16.8400   17.4850 P.3   264  GNP264      0.2220
     11  O1A       44.4420   18.1750   17.2280 O.2   264  GNP264     -0.5170
     12  O2A       42.4940   16.8340   18.1420 O.3   264  GNP264     -0.4370
     13  O5'       44.8850   15.9810   18.2490 O.3   264  GNP264     -0.3111
     14  C5'       44.7130   14.7190   18.9260 C.3   264  GNP264      0.1813
     15  C4'       45.7810   14.6100   20.0130 C.3   264  GNP264      0.1799
     16  O4'       47.0530   14.5920   19.2910 O.3   264  GNP264     -0.3326
     17  C3'       45.9500   15.7350   21.0620 C.3   264  GNP264      0.2158
     18  O3'       46.2110   15.1430   22.3680 O.3   264  GNP264     -0.2175
     19  C2'       47.1070   16.5790   20.5250 C.3   264  GNP264      0.2310
     20  O2'       47.9350   17.3260   21.4160 O.3   264  GNP264     -0.2158
     21  C1'       47.9990   15.5420   19.7950 C.3   264  GNP264      0.2293
     22  N9        48.8090   16.0890   18.7020 N.pl3 264  GNP264     -0.2354
     23  C8        48.3590   16.7420   17.5760 C.3   264  GNP264      0.2246
     24  N7        49.3010   17.1430   16.7700 N.2   264  GNP264     -0.2322
     25  C5        50.4410   16.7090   17.4230 C.2   264  GNP264      0.2182
     26  C6        51.7940   16.8720   17.0110 C.1   264  GNP264      0.2372
     27  O6        52.2790   17.3990   16.0190 O.2   264  GNP264     -0.2069
     28  N1        52.6800   16.3320   17.9460 N.2   264  GNP264     -0.2485
     29  C2        52.3520   15.7080   19.0960 C.1   264  GNP264      0.2531
     30  N2        53.4210   15.2900   19.7530 N.pl3 264  GNP264     -0.0226
     31  N3        51.0870   15.5310   19.4940 N.2   264  GNP264     -0.3074
     32  C4        50.1810   16.0700   18.5960 C.2   264  GNP264      0.2300
@<TRIPOS>BOND
     1     7     6    2
     2     4     1    2
     3     6     8    1
     4     6     5    1
     5     6     9    1
     6     1     2    1
     7     1     5    1
     8     1     3    1
     9    27    26    2
    10     9    10    1
    11    24    25    2
    12    24    23    1
    13    26    25    1
    14    26    28    2
    15    11    10    2
    16    25    32    1
    17    10    12    1
    18    10    13    1
    19    23    22    1
    20    28    29    2
    21    13    14    1
    22    32    22    1
    23    32    31    2
    24    22    21    1
    25    14    15    1
    26    29    31    2
    27    29    30    1
    28    16    21    1
    29    16    15    1
    30    21    19    1
    31    15    17    1
    32    19    17    1
    33    19    20    1
    34    17    18    1
