@<TRIPOS>MOLECULE
3bb8_PLP_A_1.pdb
 15 15 0 0 0
SMALL
GASTEIGER

@<TRIPOS>ATOM
      1  N1        34.8910   42.3860    8.8420 N.ar  500  PLP500     -0.2452
      2  C2        34.1960   41.3640    8.2160 C.ar  500  PLP500      0.0978
      3  C2A       34.7830   39.9610    8.2920 C.3   500  PLP500      0.0555
      4  C3        32.9750   41.6490    7.5350 C.ar  500  PLP500      0.2049
      5  O3        32.2680   40.6840    6.9080 O.3   500  PLP500     -0.2857
      6  C4        32.4580   43.0140    7.5040 C.ar  500  PLP500      0.0182
      7  C4A       31.0960   43.2660    6.7690 C.3   500  PLP500      0.0342
      8  C5        33.2300   44.0280    8.1610 C.ar  500  PLP500      0.0261
      9  C6        34.4610   43.6620    8.8310 C.ar  500  PLP500      0.0965
     10  C5A       32.9030   45.4870    8.2580 C.3   500  PLP500      0.1815
     11  O4P       31.5760   45.7560    8.3530 O.3   500  PLP500     -0.2653
     12  P         30.8080   46.9380    7.5810 P.3   500  PLP500      0.5329
     13  O1P       29.5200   47.1560    8.3480 O.3   500  PLP500     -0.1145
     14  O2P       30.5210   46.3480    6.0790 O.2   500  PLP500     -0.2224
     15  O3P       31.6910   48.1890    7.5200 O.3   500  PLP500     -0.1145
@<TRIPOS>BOND
     1    14    12    2
     2     7     6    1
     3     5     4    1
     4     6     4   ar
     5     6     8   ar
     6    15    12    1
     7     4     2   ar
     8    12    13    1
     9    12    11    1
    10     8    10    1
    11     8     9   ar
    12     2     3    1
    13     2     1   ar
    14    10    11    1
    15     9     1   ar
