@<TRIPOS>MOLECULE
3bbb_DG_B_1.pdb
 23 25 0 0 0
SMALL
GASTEIGER

@<TRIPOS>ATOM
      1  OP3      -27.2600   11.6250   59.2940 O.3   153  DG153      -0.1145
      2  P        -27.0530   13.1170   58.9800 P.3   153  DG153       0.5327
      3  OP1      -26.6730   13.3240   57.5380 O.2   153  DG153      -0.2224
      4  OP2      -28.2810   13.7990   59.5560 O.3   153  DG153      -0.1145
      5  O5'      -25.7800   13.5160   59.9080 O.3   153  DG153      -0.2675
      6  C5'      -24.6250   12.6210   59.7410 C.3   153  DG153       0.1858
      7  C4'      -23.1770   13.0990   59.8230 C.3   153  DG153       0.1774
      8  O4'      -22.6070   12.8950   61.1680 O.3   153  DG153      -0.3347
      9  C3'      -22.3170   12.2560   58.8760 C.3   153  DG153       0.1857
     10  O3'      -21.3850   13.0600   58.1480 O.3   153  DG153      -0.2203
     11  C2'      -21.6650   11.2750   59.8490 C.3   153  DG153       0.0865
     12  C1'      -21.3730   12.1860   61.0160 C.3   153  DG153       0.1981
     13  N9       -20.6770   11.4510   62.1490 N.pl3 153  DG153      -0.2374
     14  C8       -19.3780   11.8620   62.4060 C.3   153  DG153       0.2245
     15  N7       -18.7980   11.2360   63.3830 N.2   153  DG153      -0.2322
     16  C5       -19.7350   10.3140   63.8120 C.2   153  DG153       0.2182
     17  C6       -19.5640    9.3710   64.8480 C.1   153  DG153       0.2372
     18  O6       -18.5810    9.2050   65.5700 O.2   153  DG153      -0.2069
     19  N1       -20.6940    8.5930   65.0230 N.2   153  DG153      -0.2485
     20  C2       -21.8390    8.7250   64.2680 C.1   153  DG153       0.2531
     21  N2       -22.8160    7.8620   64.6110 N.pl3 153  DG153      -0.0226
     22  N3       -22.0000    9.6120   63.2600 N.2   153  DG153      -0.3074
     23  C4       -20.9070   10.3970   63.0680 C.2   153  DG153       0.2299
@<TRIPOS>BOND
     1     3     2    2
     2    10     9    1
     3     9     7    1
     4     9    11    1
     5     2     1    1
     6     2     4    1
     7     2     5    1
     8     6     7    1
     9     6     5    1
    10     7     8    1
    11    11    12    1
    12    12     8    1
    13    12    13    1
    14    13    14    1
    15    13    23    1
    16    14    15    1
    17    23    22    2
    18    23    16    1
    19    22    20    2
    20    15    16    2
    21    16    17    1
    22    20    21    1
    23    20    19    2
    24    17    19    2
    25    17    18    2
