@<TRIPOS>MOLECULE
3bbb_DA_C_1.pdb
 18 20 0 0 0
SMALL
GASTEIGER

@<TRIPOS>ATOM
      1  O5'      -18.7440  -22.2990   44.5820 O.3   153  DA153      -0.2176
      2  C5'      -18.8290  -22.5660   43.1850 C.3   153  DA153       0.2142
      3  C4'      -19.1390  -21.3090   42.3880 C.3   153  DA153       0.1824
      4  O4'      -19.5030  -21.6670   41.0320 O.3   153  DA153      -0.3154
      5  C3'      -20.2920  -20.4510   42.9170 C.3   153  DA153       0.1884
      6  O3'      -19.7900  -19.2710   43.5700 O.3   153  DA153      -0.2202
      7  C2'      -21.1310  -20.1370   41.6730 C.3   153  DA153       0.1151
      8  C1'      -20.2460  -20.5870   40.5110 C.3   153  DA153       0.2874
      9  N9       -20.9160  -21.0040   39.2690 N.pl3 153  DA153      -0.1460
     10  C8       -20.3780  -21.8170   38.3080 C.3   153  DA153       0.3377
     11  N7       -21.1610  -22.0330   37.2770 N.2   153  DA153      -0.2095
     12  C5       -22.3000  -21.3090   37.5760 C.2   153  DA153       0.2526
     13  C6       -23.5130  -21.1260   36.8790 C.2   153  DA153       0.4393
     14  N6       -23.7690  -21.6860   35.6960 N.pl3 153  DA153       0.2180
     15  N1       -24.4560  -20.3430   37.4420 N.2   153  DA153       0.0021
     16  C2       -24.1950  -19.7800   38.6290 C.3   153  DA153       0.5254
     17  N3       -23.0960  -19.8780   39.3800 N.2   153  DA153      -0.0055
     18  C4       -22.1710  -20.6650   38.7970 C.2   153  DA153       0.3518
@<TRIPOS>BOND
     1    14    13    1
     2    13    15    2
     3    13    12    1
     4    11    12    2
     5    11    10    1
     6    15    16    1
     7    12    18    1
     8    10     9    1
     9    16    17    1
    10    18     9    1
    11    18    17    2
    12     9     8    1
    13     8     4    1
    14     8     7    1
    15     4     3    1
    16     7     5    1
    17     3     5    1
    18     3     2    1
    19     5     6    1
    20     2     1    1
