@<TRIPOS>MOLECULE
3bbd_SAH_A_1.pdb
 26 28 0 0 0
SMALL
GASTEIGER

@<TRIPOS>ATOM
      1  N         50.0690   57.5460    7.4880 N.3   206  SAH206     -0.1208
      2  CA        49.1580   56.3640    7.6060 C.3   206  SAH206      0.1952
      3  CB        48.1760   56.3270    6.4320 C.3   206  SAH206      0.0422
      4  CG        47.0980   57.4150    6.4340 C.3   206  SAH206      0.0597
      5  SD        46.2640   57.6350    8.0350 S.3   206  SAH206     -0.1375
      6  C         49.9350   55.0470    7.7200 C.2   206  SAH206      0.3819
      7  O         49.6170   54.1930    8.5430 O.co2 206  SAH206     -0.2441
      8  OXT       50.9010   54.8000    6.9940 O.co2 206  SAH206     -0.2441
      9  C5'       45.7580   59.3230    7.5800 C.3   206  SAH206      0.0899
     10  C4'       46.4560   60.4390    8.3590 C.3   206  SAH206      0.1630
     11  O4'       46.3550   60.2860    9.7720 O.3   206  SAH206     -0.3153
     12  C3'       47.9550   60.4780    8.0660 C.3   206  SAH206      0.2168
     13  O3'       48.2600   61.1820    6.8840 O.3   206  SAH206     -0.2175
     14  C2'       48.5340   61.1170    9.3010 C.3   206  SAH206      0.2569
     15  O2'       48.5300   62.5130    9.1420 O.3   206  SAH206     -0.2130
     16  C1'       47.5620   60.7160   10.4050 C.3   206  SAH206      0.3185
     17  N9        48.1470   59.6730   11.2970 N.pl3 206  SAH206     -0.1439
     18  C8        47.9480   58.3190   11.2050 C.3   206  SAH206      0.3377
     19  N7        48.6300   57.7050   12.1980 N.2   206  SAH206     -0.2095
     20  C5        49.2880   58.6360   12.9300 C.2   206  SAH206      0.2526
     21  C6        50.1250   58.5450   14.0490 C.2   206  SAH206      0.4393
     22  N6        50.4160   57.3560   14.5980 N.pl3 206  SAH206      0.2180
     23  N1        50.6540   59.7040   14.5960 N.2   206  SAH206      0.0021
     24  C2        50.3550   60.9440   14.0410 C.3   206  SAH206      0.5254
     25  N3        49.5260   61.0170   12.9320 N.2   206  SAH206     -0.0055
     26  C4        48.9920   59.8860   12.3800 C.2   206  SAH206      0.3518
@<TRIPOS>BOND
     1     3     4    1
     2     3     2    1
     3     4     5    1
     4    13    12    1
     5     8     6   ar
     6     1     2    1
     7     9     5    1
     8     9    10    1
     9     2     6    1
    10     6     7   ar
    11    12    10    1
    12    12    14    1
    13    10    11    1
    14    15    14    1
    15    14    16    1
    16    11    16    1
    17    16    17    1
    18    18    17    1
    19    18    19    1
    20    17    26    1
    21    19    20    2
    22    26    20    1
    23    26    25    2
    24    20    21    1
    25    25    24    1
    26    24    23    1
    27    21    23    2
    28    21    22    1
