@<TRIPOS>MOLECULE
3bbf_GDP_A_1.pdb
 28 30 0 0 0
SMALL
GASTEIGER

@<TRIPOS>ATOM
      1  PB        21.6060   38.1730   33.5790 P.3   160  GDP160      0.5373
      2  O1B       20.2160   38.8330   33.6130 O.2   160  GDP160     -0.2221
      3  O2B       22.7030   39.1100   34.1200 O.3   160  GDP160     -0.1143
      4  O3B       21.7060   36.9320   34.3990 O.3   160  GDP160     -0.1143
      5  O3A       22.0370   37.8950   32.0350 O.3   160  GDP160     -0.2261
      6  PA        21.2870   37.0870   30.8650 P.3   160  GDP160      0.2231
      7  O1A       19.8100   37.0620   31.0450 O.3   160  GDP160     -0.4370
      8  O2A       21.7210   37.6880   29.5570 O.2   160  GDP160     -0.5169
      9  O5'       21.7850   35.5590   30.9630 O.3   160  GDP160     -0.3111
     10  C5'       21.1290   34.7710   31.9330 C.3   160  GDP160      0.1813
     11  C4'       22.0730   33.7260   32.4630 C.3   160  GDP160      0.1799
     12  O4'       22.5050   32.8580   31.4190 O.3   160  GDP160     -0.3326
     13  C3'       23.3370   34.3080   33.0770 C.3   160  GDP160      0.2158
     14  O3'       23.0620   34.8780   34.3540 O.3   160  GDP160     -0.2175
     15  C2'       24.1860   33.0640   33.0810 C.3   160  GDP160      0.2310
     16  O2'       23.8130   32.1950   34.1560 O.3   160  GDP160     -0.2158
     17  C1'       23.8070   32.4100   31.7620 C.3   160  GDP160      0.2293
     18  N9        24.7080   32.8210   30.6800 N.pl3 160  GDP160     -0.2354
     19  C8        24.7500   34.0170   30.0480 C.3   160  GDP160      0.2246
     20  N7        25.7290   34.0150   29.1200 N.2   160  GDP160     -0.2322
     21  C5        26.3060   32.7870   29.1410 C.2   160  GDP160      0.2182
     22  C6        27.3760   32.0620   28.4130 C.1   160  GDP160      0.2372
     23  O6        28.0620   32.5820   27.5150 O.2   160  GDP160     -0.2069
     24  N1        27.6060   30.7910   28.7680 N.2   160  GDP160     -0.2485
     25  C2        26.9560   30.1370   29.7350 C.1   160  GDP160      0.2531
     26  N2        27.2960   28.8470   29.9810 N.pl3 160  GDP160     -0.0226
     27  N3        25.9490   30.7010   30.4450 N.2   160  GDP160     -0.3074
     28  C4        25.6160   32.0000   30.1730 C.2   160  GDP160      0.2300
@<TRIPOS>BOND
     1    23    22    2
     2    22    24    2
     3    22    21    1
     4    24    25    2
     5    20    21    2
     6    20    19    1
     7    21    28    1
     8     8     6    2
     9    25    26    1
    10    25    27    2
    11    19    18    1
    12    28    27    2
    13    28    18    1
    14    18    17    1
    15     6     9    1
    16     6     7    1
    17     6     5    1
    18     9    10    1
    19    12    17    1
    20    12    11    1
    21    17    15    1
    22    10    11    1
    23     5     1    1
    24    11    13    1
    25    13    15    1
    26    13    14    1
    27    15    16    1
    28     1     2    2
    29     1     3    1
    30     1     4    1
