@<TRIPOS>MOLECULE
3bbh_SFG_A_1.pdb
 27 29 0 0 0
SMALL
GASTEIGER

@<TRIPOS>ATOM
      1  N         49.9150   54.4790    8.5230 N.3   206  SFG206     -0.1208
      2  CA        49.5140   55.7200    7.8540 C.3   206  SFG206      0.1944
      3  C         50.3950   56.9260    8.2960 C.2   206  SFG206      0.3819
      4  O         50.7000   57.7760    7.5170 O.co2 206  SFG206     -0.2441
      5  OXT       50.8670   57.0520    9.6100 O.co2 206  SFG206     -0.2441
      6  CB        48.0260   55.9510    8.1790 C.3   206  SFG206      0.0321
      7  CG        47.1750   56.4970    7.0090 C.3   206  SFG206      0.0212
      8  CD        45.8070   56.9020    7.6320 C.3   206  SFG206      0.0944
      9  NE        44.7340   56.0310    7.1360 N.3   206  SFG206     -0.1328
     10  C5'       45.4520   58.3840    7.3730 C.3   206  SFG206      0.0514
     11  C4'       46.2340   59.3310    8.3150 C.3   206  SFG206      0.1537
     12  O4'       46.1280   58.9990    9.7310 O.3   206  SFG206     -0.3161
     13  C3'       47.7460   59.3290    8.0480 C.3   206  SFG206      0.2159
     14  O3'       48.0840   60.0140    6.8740 O.3   206  SFG206     -0.2175
     15  C2'       48.3170   59.9610    9.2840 C.3   206  SFG206      0.2569
     16  O2'       48.4300   61.3520    9.1160 O.3   206  SFG206     -0.2130
     17  C1'       47.3040   59.6030   10.3800 C.3   206  SFG206      0.3185
     18  N9        47.8740   58.6100   11.2960 N.pl3 206  SFG206     -0.1439
     19  C8        47.5700   57.1540   11.3050 C.3   206  SFG206      0.3377
     20  N7        48.3180   56.5510   12.3980 N.2   206  SFG206     -0.2095
     21  C5        49.0690   57.6120   13.0690 C.2   206  SFG206      0.2526
     22  C6        50.0080   57.5860   14.2570 C.2   206  SFG206      0.4393
     23  N6        50.2810   56.3290   14.9400 N.pl3 206  SFG206      0.2180
     24  N1        50.6200   58.8200   14.7130 N.2   206  SFG206      0.0021
     25  C2        50.3360   60.1160   14.0230 C.3   206  SFG206      0.5254
     26  N3        49.4170   60.1380   12.8630 N.2   206  SFG206     -0.0055
     27  C4        48.7850   58.8800   12.3960 C.2   206  SFG206      0.3518
@<TRIPOS>BOND
     1    14    13    1
     2     7     8    1
     3     7     6    1
     4     9     8    1
     5    10     8    1
     6    10    11    1
     7     4     3   ar
     8     2     6    1
     9     2     3    1
    10     2     1    1
    11    13    11    1
    12    13    15    1
    13     3     5   ar
    14    11    12    1
    15    16    15    1
    16    15    17    1
    17    12    17    1
    18    17    18    1
    19    18    19    1
    20    18    27    1
    21    19    20    1
    22    27    26    2
    23    27    21    1
    24    20    21    2
    25    26    25    1
    26    21    22    1
    27    25    24    1
    28    22    24    2
    29    22    23    1
