@<TRIPOS>MOLECULE
3bbp_GTP_A_1.pdb
 32 34 0 0 0
SMALL
GASTEIGER

@<TRIPOS>ATOM
      1  PG        67.9930  -17.5550   11.9570 P.3   500  GTP500      0.5373
      2  O1G       66.6170  -18.1550   12.0040 O.3   500  GTP500     -0.1143
      3  O2G       68.9720  -18.7000   11.8560 O.2   500  GTP500     -0.2221
      4  O3G       68.2520  -16.7020   13.1860 O.3   500  GTP500     -0.1143
      5  O3B       68.0570  -16.5970   10.6650 O.3   500  GTP500     -0.2258
      6  PB        67.2090  -15.2250   10.6930 P.3   500  GTP500      0.2277
      7  O1B       65.8820  -15.4260   10.0070 O.2   500  GTP500     -0.5168
      8  O2B       67.0160  -14.7980   12.1220 O.3   500  GTP500     -0.4368
      9  O3A       68.0450  -14.0740    9.9360 O.3   500  GTP500     -0.2700
     10  PA        69.3890  -13.3860   10.5100 P.3   500  GTP500      0.2189
     11  O1A       69.0350  -11.9410   10.7350 O.2   500  GTP500     -0.5170
     12  O2A       69.9160  -14.0470   11.7670 O.3   500  GTP500     -0.4371
     13  O5'       70.4610  -13.4510    9.3160 O.3   500  GTP500     -0.3112
     14  C5'       70.0940  -12.9970    8.0340 C.3   500  GTP500      0.1813
     15  C4'       71.3390  -12.7430    7.2000 C.3   500  GTP500      0.1799
     16  O4'       70.9500  -11.9070    6.1350 O.3   500  GTP500     -0.3326
     17  C3'       72.3660  -11.9700    7.9960 C.3   500  GTP500      0.2158
     18  O3'       73.6280  -12.3000    7.4700 O.3   500  GTP500     -0.2175
     19  C2'       72.0560  -10.5290    7.6730 C.3   500  GTP500      0.2310
     20  O2'       73.2160   -9.7350    7.7230 O.3   500  GTP500     -0.2158
     21  C1'       71.4600  -10.5950    6.2780 C.3   500  GTP500      0.2293
     22  N9        70.3400   -9.6410    6.1790 N.pl3 500  GTP500     -0.2354
     23  C8        69.2710   -9.5230    7.0320 C.3   500  GTP500      0.2246
     24  N7        68.4590   -8.5480    6.5660 N.2   500  GTP500     -0.2322
     25  C5        68.9760   -8.0600    5.4130 C.2   500  GTP500      0.2182
     26  C6        68.5600   -7.0740    4.5240 C.1   500  GTP500      0.2372
     27  O6        67.5220   -6.4430    4.7160 O.2   500  GTP500     -0.2069
     28  N1        69.3180   -6.7990    3.4090 N.2   500  GTP500     -0.2485
     29  C2        70.4810   -7.4950    3.1760 C.1   500  GTP500      0.2531
     30  N2        71.2160   -7.2280    2.1000 N.pl3 500  GTP500     -0.0226
     31  N3        70.8860   -8.4670    4.0600 N.2   500  GTP500     -0.3074
     32  C4        70.1510   -8.7470    5.1580 C.2   500  GTP500      0.2300
@<TRIPOS>BOND
     1    30    29    1
     2    29    28    2
     3    29    31    2
     4    28    26    2
     5    31    32    2
     6    26    27    2
     7    26    25    1
     8    32    25    1
     9    32    22    1
    10    25    24    2
    11    16    21    1
    12    16    15    1
    13    22    21    1
    14    22    23    1
    15    21    19    1
    16    24    23    1
    17    15    17    1
    18    15    14    1
    19    18    17    1
    20    19    20    1
    21    19    17    1
    22    14    13    1
    23    13    10    1
    24     9    10    1
    25     9     6    1
    26     7     6    2
    27    10    11    2
    28    10    12    1
    29     5     6    1
    30     5     1    1
    31     6     8    1
    32     3     1    2
    33     1     2    1
    34     1     4    1
