@<TRIPOS>MOLECULE
3bbr_GLU_A_1.pdb
 10 9 0 0 0
SMALL
GASTEIGER

@<TRIPOS>ATOM
      1  N         89.2200   26.2530   28.2100 N.3   267  GLU267     -0.1208
      2  CA        90.6540   26.1300   28.4610 C.3   267  GLU267      0.1949
      3  C         90.9280   25.9450   29.9510 C.2   267  GLU267      0.3819
      4  O         92.0800   25.7800   30.3490 O.co2 267  GLU267     -0.2441
      5  CB        91.4230   27.3470   27.9240 C.3   267  GLU267      0.0424
      6  CG        91.6790   27.3440   26.3970 C.3   267  GLU267      0.1161
      7  CD        92.6690   26.2650   25.9450 C.2   267  GLU267      0.3649
      8  OE1       92.7620   25.9920   24.7200 O.co2 267  GLU267     -0.2457
      9  OE2       93.3580   25.6880   26.8120 O.co2 267  GLU267     -0.2457
     10  OXT       90.0090   25.9470   30.7820 O.co2 267  GLU267     -0.2441
@<TRIPOS>BOND
     1     8     7   ar
     2     7     6    1
     3     7     9   ar
     4     6     5    1
     5     5     2    1
     6     1     2    1
     7     2     3    1
     8     3     4   ar
     9     3    10   ar
