@<TRIPOS>MOLECULE
3bbr_BHY_A_1.pdb
 28 29 0 0 0
SMALL
GASTEIGER

@<TRIPOS>ATOM
      1  N1        75.5760   19.0300   29.9840 N.3   268  BHY268     -0.0817
      2  C2        76.4310   17.9120   27.6080 C.ar  268  BHY268     -0.0042
      3  N2        82.7870   14.1830   29.7720 N.3   268  BHY268     -0.0817
      4  C4        78.7150   17.2250   27.4890 C.ar  268  BHY268     -0.0000
      5  O4        73.5730   18.4690   31.5180 O.2   268  BHY268     -0.1561
      6  C6        78.1820   19.5610   27.7780 C.ar  268  BHY268     -0.0042
      7  C7        81.4240   14.1070   27.6020 C.ar  268  BHY268     -0.0210
      8  C1        76.8340   19.2360   27.7200 C.ar  268  BHY268     -0.0210
      9  O1        85.0690   15.0330   30.6530 O.2   268  BHY268     -0.1561
     10  S1        83.5830   15.2650   30.7460 S.O2  268  BHY268      0.0592
     11  O2        83.2200   16.6670   30.3320 O.2   268  BHY268     -0.1561
     12  S2        74.8180   17.8820   30.9090 S.O2  268  BHY268      0.0592
     13  C3        77.3670   16.9000   27.5090 C.ar  268  BHY268     -0.0003
     14  O3        74.4920   16.7170   30.0240 O.2   268  BHY268     -0.1561
     15  C5        79.1310   18.5440   27.6680 C.ar  268  BHY268     -0.0003
     16  C8        80.0740   13.8440   27.7600 C.ar  268  BHY268     -0.0042
     17  C9        79.1820   14.9050   27.7020 C.ar  268  BHY268     -0.0003
     18  C10       79.6370   16.2000   27.4610 C.ar  268  BHY268     -0.0000
     19  C11       80.9930   16.4710   27.3780 C.ar  268  BHY268     -0.0003
     20  C12       81.8820   15.4090   27.4310 C.ar  268  BHY268     -0.0042
     21  C13       82.4580   13.0200   27.7010 C.3   268  BHY268      0.0417
     22  C14       75.7370   20.2620   27.8890 C.3   268  BHY268      0.0417
     23  C15       74.7920   19.4550   28.7900 C.3   268  BHY268      0.1194
     24  C16       75.1190   20.6000   26.5460 C.3   268  BHY268      0.0062
     25  C17       82.9560   12.6270   26.3160 C.3   268  BHY268      0.0062
     26  C18       83.5000   13.7650   28.5400 C.3   268  BHY268      0.1194
     27  C19       83.0370   15.1020   32.4150 C.3   268  BHY268      0.1975
     28  C20       75.8500   17.2300   32.2000 C.3   268  BHY268      0.1975
@<TRIPOS>BOND
     1    25    21    1
     2    24    22    1
     3    19    20   ar
     4    19    18   ar
     5    20     7   ar
     6    18     4    1
     7    18    17   ar
     8     4    13   ar
     9     4    15   ar
    10    13     2   ar
    11     7    21    1
    12     7    16   ar
    13     2     8   ar
    14    15     6   ar
    15    21    26    1
    16    17    16   ar
    17     8     6   ar
    18     8    22    1
    19    22    23    1
    20    26     3    1
    21    23     1    1
    22     3    10    1
    23     1    12    1
    24    14    12    2
    25    11    10    2
    26     9    10    2
    27    10    27    1
    28    12     5    2
    29    12    28    1
