@<TRIPOS>MOLECULE
3bbt_FMM_B_1.pdb
 27 30 0 0 0
SMALL
GASTEIGER

@<TRIPOS>ATOM
      1  C14      -43.1070   47.9300   15.8280 C.2    91  FMM91      -0.0036
      2  C15      -43.9820   47.9690   14.7410 C.2    91  FMM91       0.0009
      3  C16      -43.6240   48.6640   13.5860 C.2    91  FMM91       0.0153
      4  C17      -42.3920   49.3150   13.5180 C.2    91  FMM91       0.0737
      5  N18      -42.0420   49.9880   12.3970 N.2    91  FMM91      -0.2221
      6  C19      -40.8590   50.6190   12.3220 C.3    91  FMM91       0.3913
      7  N20      -39.9960   50.5980   13.3520 N.2    91  FMM91      -0.0363
      8  C21      -40.2880   49.9410   14.5040 C.2    91  FMM91       0.3482
      9  N22      -39.4090   49.9240   15.5490 N.pl3  91  FMM91      -0.0094
     10  C23      -38.1570   50.5660   15.5280 C.ar   91  FMM91       0.1841
     11  C24      -36.9880   49.8070   15.5430 C.ar   91  FMM91       0.0476
     12  C25      -35.7460   50.4420   15.5290 C.ar   91  FMM91       0.0414
     13  C26      -35.6630   51.8380   15.5070 C.ar   91  FMM91       0.1497
     14  O27      -34.4460   52.4780   15.4850 O.3    91  FMM91      -0.4698
     15  C28      -33.4190   52.2220   16.4440 C.3    91  FMM91       0.2321
     16  C29      -32.1190   51.8930   15.7400 C.ar   91  FMM91       0.0234
     17  C30      -31.8750   52.3430   14.4400 C.ar   91  FMM91      -0.0005
     18  C31      -30.6750   52.0340   13.8010 C.ar   91  FMM91       0.0021
     19  C32      -29.7120   51.2730   14.4620 C.ar   91  FMM91       0.0296
     20  C33      -29.9530   50.8230   15.7590 C.ar   91  FMM91       0.1399
     21  F34      -29.0240   50.0900   16.3960 F      91  FMM91      -0.2042
     22  C35      -31.1520   51.1340   16.3980 C.ar   91  FMM91       0.0289
     23  C36      -36.8270   52.5950   15.4930 C.ar   91  FMM91       0.0951
     24 CL3       -36.7320   54.3900   15.4600 Cl     91  FMM91      -0.0790
     25  C38      -38.0700   51.9610   15.5080 C.ar   91  FMM91       0.0588
     26  C39      -41.5140   49.2770   14.6050 C.3    91  FMM91       0.1710
     27  C40      -41.8750   48.5820   15.7630 C.2    91  FMM91      -0.0083
@<TRIPOS>BOND
     1     6     5    1
     2     6     7    1
     3     5     4    2
     4     7     8    2
     5     4     3    1
     6     4    26    1
     7     3     2    2
     8    18    17   ar
     9    18    19   ar
    10    17    16   ar
    11    19    20   ar
    12     8    26    1
    13     8     9    1
    14    26    27    1
    15     2     1    1
    16    24    23    1
    17    14    13    1
    18    14    15    1
    19    23    13   ar
    20    23    25   ar
    21    13    12   ar
    22    25    10   ar
    23    10    11   ar
    24    10     9    1
    25    12    11   ar
    26    16    22   ar
    27    16    15    1
    28    20    21    1
    29    20    22   ar
    30    27     1    2
