@<TRIPOS>MOLECULE
3bc1_GNP_A_1.pdb
 32 34 0 0 0
SMALL
GASTEIGER

@<TRIPOS>ATOM
      1  PG         6.6170    7.3310  -26.2730 P.3   195  GNP195      0.4884
      2  O1G        7.2910    8.2570  -25.2980 O.3   195  GNP195     -0.1240
      3  O2G        5.3070    6.7640  -25.7960 O.3   195  GNP195     -0.1240
      4  O3G        7.6520    6.3250  -26.7090 O.2   195  GNP195     -0.2331
      5  N3B        6.2180    8.1150  -27.6130 N.3   195  GNP195     -0.0163
      6  PB         7.1860    8.9840  -28.5320 P.3   195  GNP195      0.4669
      7  O1B        7.3640   10.3670  -28.0190 O.3   195  GNP195     -0.1253
      8  O2B        8.3900    8.2000  -28.8390 O.2   195  GNP195     -0.2351
      9  O3A        6.3950    9.1690  -29.8530 O.3   195  GNP195     -0.2360
     10  PA         6.5800    8.4430  -31.2100 P.3   195  GNP195      0.2220
     11  O1A        7.8480    8.8770  -31.8480 O.2   195  GNP195     -0.5170
     12  O2A        6.2950    6.9960  -31.0610 O.3   195  GNP195     -0.4370
     13  O5'        5.4400    9.0380  -32.1490 O.3   195  GNP195     -0.3111
     14  C5'        4.0600    8.9890  -31.7650 C.3   195  GNP195      0.1813
     15  C4'        3.1210    9.0050  -32.9690 C.3   195  GNP195      0.1799
     16  O4'        3.2030   10.2870  -33.6290 O.3   195  GNP195     -0.3326
     17  C3'        3.4110    7.9910  -34.0670 C.3   195  GNP195      0.2158
     18  O3'        2.1910    7.5440  -34.6690 O.3   195  GNP195     -0.2175
     19  C2'        4.2760    8.7640  -35.0530 C.3   195  GNP195      0.2310
     20  O2'        4.1460    8.3010  -36.3780 O.3   195  GNP195     -0.2158
     21  C1'        3.6880   10.1600  -34.9500 C.3   195  GNP195      0.2293
     22  N9         4.6150   11.2600  -35.1880 N.pl3 195  GNP195     -0.2354
     23  C8         5.7850   11.5380  -34.5140 C.3   195  GNP195      0.2246
     24  N7         6.3880   12.6120  -34.9460 N.2   195  GNP195     -0.2322
     25  C5         5.5800   13.0760  -35.9750 C.2   195  GNP195      0.2182
     26  C6         5.7180   14.2180  -36.8110 C.1   195  GNP195      0.2372
     27  O6         6.6390   15.0550  -36.8030 O.2   195  GNP195     -0.2069
     28  N1         4.6720   14.3280  -37.7380 N.2   195  GNP195     -0.2485
     29  C2         3.6080   13.4470  -37.8040 C.1   195  GNP195      0.2531
     30  N2         2.6760   13.6760  -38.7430 N.pl3 195  GNP195     -0.0226
     31  N3         3.4620   12.3830  -37.0210 N.2   195  GNP195     -0.3074
     32  C4         4.4860   12.2550  -36.1390 C.2   195  GNP195      0.2300
@<TRIPOS>BOND
     1    30    29    1
     2    29    28    2
     3    29    31    2
     4    28    26    2
     5    31    32    2
     6    26    27    2
     7    26    25    1
     8    20    19    1
     9    32    25    1
    10    32    22    1
    11    25    24    2
    12    22    21    1
    13    22    23    1
    14    19    21    1
    15    19    17    1
    16    21    16    1
    17    24    23    1
    18    18    17    1
    19    17    15    1
    20    16    15    1
    21    15    14    1
    22    13    14    1
    23    13    10    1
    24    11    10    2
    25    10    12    1
    26    10     9    1
    27     9     6    1
    28     8     6    2
    29     6     7    1
    30     6     5    1
    31     5     1    1
    32     4     1    2
    33     1     3    1
    34     1     2    1
