@<TRIPOS>MOLECULE
3bc4_LLG_A_1.pdb
 17 18 0 0 0
SMALL
GASTEIGER

@<TRIPOS>ATOM
      1  N1         6.0100    6.0100    0.0000 N.3   2501  LLG2501    -0.1273
      2  C4         7.1890    7.9650   -0.5420 C.3   2501  LLG2501     0.2289
      3  C5         5.7790    7.3850   -0.4520 C.3   2501  LLG2501     0.1566
      4  C6         8.5560    7.7540   -4.1180 C.3   2501  LLG2501     0.1359
      5  C7         8.0530    8.2520   -2.7680 C.2   2501  LLG2501     0.3215
      6  C10       12.3980    9.2940   -2.6080 C.ar  2501  LLG2501    -0.0000
      7  C13       11.2140   10.4630   -4.9830 C.ar  2501  LLG2501    -0.0003
      8  C15        9.3020    8.8590   -4.8970 C.ar  2501  LLG2501    -0.0111
      9  C17        9.4100   10.6120   -6.6840 C.ar  2501  LLG2501    -0.0003
     10  O6         7.6930    7.4250   -1.7700 O.3   2501  LLG2501    -0.4466
     11  C16        8.7250    9.4870   -6.0140 C.ar  2501  LLG2501    -0.0037
     12  C18       10.6360   11.0610   -6.2040 C.ar  2501  LLG2501    -0.0000
     13  C14       10.5320    9.4430   -4.2820 C.ar  2501  LLG2501    -0.0034
     14  C9        11.1810    8.8030   -3.1100 C.ar  2501  LLG2501    -0.0003
     15  C11       13.0610   10.4180   -3.3060 C.ar  2501  LLG2501    -0.0000
     16  C12       12.4960   10.9910   -4.4490 C.ar  2501  LLG2501    -0.0000
     17  O8         7.9750    9.4520   -2.5810 O.2   2501  LLG2501    -0.2497
@<TRIPOS>BOND
     1     9    12   ar
     2     9    11   ar
     3    12     7   ar
     4    11     8   ar
     5     7    16   ar
     6     7    13   ar
     7     8    13   ar
     8     8     4    1
     9    16    15   ar
    10    13    14   ar
    11     4     5    1
    12    15     6   ar
    13    14     6   ar
    14     5    17    2
    15     5    10    1
    16    10     2    1
    17     2     3    1
    18     3     1    1
