@<TRIPOS>MOLECULE
3bc5_ZAA_A_1.pdb
 37 41 0 0 0
SMALL
GASTEIGER

@<TRIPOS>ATOM
      1  C13       56.4570   24.0590    5.4510 C.3     1  ZAA1        0.1055
      2  C18       54.6030   29.4830    5.9670 C.ar    1  ZAA1        0.0028
      3  C17       54.9270   28.1340    5.8480 C.ar    1  ZAA1        0.0369
      4  C16       56.2230   27.6890    6.1180 C.ar    1  ZAA1        0.1383
      5  C19       55.5810   30.3980    6.3670 C.ar    1  ZAA1       -0.0037
      6  C20       56.8940   30.0130    6.6450 C.ar    1  ZAA1       -0.0131
      7  C21       57.1540   28.6490    6.5090 C.ar    1  ZAA1        0.0330
      8  C22       58.0150   30.9630    7.0740 C.3     1  ZAA1        0.0753
      9  C23       59.1470   30.9070    6.0820 C.ar    1  ZAA1        0.1006
     10  C24       59.3350   31.5310    4.8460 C.ar    1  ZAA1        0.1074
     11  C11       57.2960   23.4690   -1.0830 C.ar    1  ZAA1        0.0002
     12  C12       57.3250   23.6660    0.3020 C.ar    1  ZAA1        0.0058
     13  C34       58.5230   32.5040    4.0220 C.3     1  ZAA1        0.1627
     14  C33       62.4000   28.4650    5.9840 C.ar    1  ZAA1        0.0209
     15  C1        59.8980   24.3010    5.7600 C.3     1  ZAA1        0.0549
     16  C2        58.9900   24.1130    4.5590 C.3     1  ZAA1        0.2161
     17  C3        57.5990   24.0270    4.4460 C.2     1  ZAA1        0.1336
     18  N4        57.3810   23.8720    3.1140 N.2     1  ZAA1       -0.3728
     19  C5        58.5590   23.8800    2.4520 C.2     1  ZAA1        0.2771
     20  O6        59.4840   24.0190    3.3570 O.2     1  ZAA1       -0.4486
     21  C7        58.5600   23.7010    0.9690 C.ar    1  ZAA1        0.0660
     22  C8        59.7740   23.5270    0.2760 C.ar    1  ZAA1        0.0058
     23  C9        59.7420   23.3280   -1.1080 C.ar    1  ZAA1        0.0002
     24  C10       58.5150   23.3070   -1.7800 C.ar    1  ZAA1        0.0000
     25  C14       55.8010   25.4240    5.5060 C.3     1  ZAA1        0.2126
     26  O15       56.6730   26.4410    6.0430 O.3     1  ZAA1       -0.4750
     27  N25       60.5070   31.0880    4.3750 N.ar    1  ZAA1       -0.1506
     28  N26       61.0840   30.2480    5.2290 N.ar    1  ZAA1       -0.1485
     29  N27       60.2440   30.1440    6.2410 N.ar    1  ZAA1       -0.1508
     30  C28       62.2280   29.5410    5.1190 C.ar    1  ZAA1        0.1029
     31  C29       63.1510   29.8350    4.1090 C.ar    1  ZAA1        0.0209
     32  C30       64.2950   29.0470    4.0070 C.ar    1  ZAA1        0.0016
     33  C31       64.4960   27.9790    4.8800 C.ar    1  ZAA1        0.0001
     34  C32       63.5510   27.6900    5.8680 C.ar    1  ZAA1        0.0016
     35  C35       58.4980   33.8690    4.6700 C.2     1  ZAA1        0.3709
     36  O36       57.6330   34.6820    4.3830 O.co2   1  ZAA1       -0.2452
     37  O37       59.4140   34.2460    5.5710 O.co2   1  ZAA1       -0.2452
@<TRIPOS>BOND
     1    24    23   ar
     2    24    11   ar
     3    23    22   ar
     4    11    12   ar
     5    22    21   ar
     6    12    21   ar
     7    21    19    1
     8    19    18    2
     9    19    20    1
    10    18    17    2
    11    20    16    1
    12    32    31   ar
    13    32    33   ar
    14    13    35    1
    15    13    10    1
    16    31    30   ar
    17    27    10   ar
    18    27    28   ar
    19    36    35   ar
    20    17    16    1
    21    17     1    1
    22    16    15    1
    23    35    37   ar
    24    10     9   ar
    25    33    34   ar
    26    30    28    1
    27    30    14   ar
    28    28    29   ar
    29     1    25    1
    30    25    26    1
    31     3     2   ar
    32     3     4   ar
    33    34    14   ar
    34     2     5   ar
    35    26     4    1
    36     9    29   ar
    37     9     8    1
    38     4     7   ar
    39     5     6   ar
    40     7     6   ar
    41     6     8    1
