@<TRIPOS>MOLECULE
3bc9_GLC_A_1.pdb
 11 11 0 0 0
SMALL
GASTEIGER

@<TRIPOS>ATOM
      1  C1        46.8620   22.2470    2.7200 C.3   802  GLC802      0.1777
      2  C2        47.9860   22.0160    3.7040 C.3   802  GLC802      0.2141
      3  C3        47.9120   22.8620    4.9380 C.3   802  GLC802      0.2173
      4  C4        47.9490   24.3130    4.5440 C.3   802  GLC802      0.2142
      5  C5        46.7720   24.5020    3.6430 C.3   802  GLC802      0.1810
      6  C6        46.6680   25.9640    3.1570 C.3   802  GLC802      0.2141
      7  O2        48.0470   20.7030    4.1870 O.3   802  GLC802     -0.2176
      8  O3        49.1270   22.6220    5.6510 O.3   802  GLC802     -0.2175
      9  O4        47.7520   25.0230    5.8000 O.3   802  GLC802     -0.2176
     10  O5        46.8140   23.6850    2.4670 O.3   802  GLC802     -0.3481
     11  O6        45.3630   26.1190    2.5230 O.3   802  GLC802     -0.2176
@<TRIPOS>BOND
     1    10     1    1
     2    10     5    1
     3    11     6    1
     4     1     2    1
     5     6     5    1
     6     5     4    1
     7     2     7    1
     8     2     3    1
     9     4     3    1
    10     4     9    1
    11     3     8    1
