@<TRIPOS>MOLECULE
3bc9_BGC_A_1.pdb
 12 12 0 0 0
SMALL
GASTEIGER

@<TRIPOS>ATOM
      1  C2        32.1790    1.4910   -5.3640 C.3   809  BGC809      0.2434
      2  C3        32.9890    2.2720   -4.3220 C.3   809  BGC809      0.2199
      3  C4        32.6340    3.7530   -4.3290 C.3   809  BGC809      0.2144
      4  C5        31.1800    3.7860   -3.9640 C.3   809  BGC809      0.1836
      5  C6        30.6720    5.2350   -3.7510 C.3   809  BGC809      0.2142
      6  C1        30.6950    1.7390   -5.0460 C.3   809  BGC809      0.3024
      7  O1        29.8110    0.9500   -5.8840 O.3   809  BGC809     -0.1869
      8  O2        32.5150    0.0820   -5.1780 O.3   809  BGC809     -0.2148
      9  O3        34.3930    2.0600   -4.5330 O.3   809  BGC809     -0.2174
     10  O4        33.4110    4.4750   -3.3160 O.3   809  BGC809     -0.2176
     11  O5        30.4270    3.1690   -5.0590 O.3   809  BGC809     -0.3236
     12  O6        30.4000    5.4350   -2.3530 O.3   809  BGC809     -0.2176
@<TRIPOS>BOND
     1     7     6    1
     2     1     8    1
     3     1     6    1
     4     1     2    1
     5    11     6    1
     6    11     4    1
     7     9     2    1
     8     3     2    1
     9     3     4    1
    10     3    10    1
    11     4     5    1
    12     5    12    1
