@<TRIPOS>MOLECULE
3bc9_G6D_A_1.pdb
 10 10 0 0 0
SMALL
GASTEIGER

@<TRIPOS>ATOM
      1  C1        48.7120   26.0760    6.0020 C.3   801  G6D801      0.1776
      2  O2        49.9100   24.5360    7.3490 O.3   801  G6D801     -0.2176
      3  C2        49.4460   25.8340    7.3260 C.3   801  G6D801      0.2141
      4  C3A       48.5450   25.9680    8.5320 C.3   801  G6D801      0.2172
      5  O3A       49.4170   25.9220    9.6870 O.3   801  G6D801     -0.2175
      6  C4A       47.8240   27.2970    8.4450 C.3   801  G6D801      0.2116
      7  O4A       46.9120   27.4510    9.5490 O.3   801  G6D801     -0.2177
      8  C5A       47.0880   27.3890    7.1140 C.3   801  G6D801      0.1483
      9  O5        48.0700   27.3340    6.0240 O.3   801  G6D801     -0.3508
     10  C6A       46.3780   28.7250    6.8200 C.3   801  G6D801      0.0349
@<TRIPOS>BOND
     1     1     9    1
     2     1     3    1
     3     9     8    1
     4    10     8    1
     5     8     6    1
     6     3     2    1
     7     3     4    1
     8     6     4    1
     9     6     7    1
    10     4     5    1
