@<TRIPOS>MOLECULE
3bc9_ACI_A_1.pdb
 12 12 0 0 0
SMALL
GASTEIGER

@<TRIPOS>ATOM
      1  C1        42.2350   19.8440    1.6370 C.3   803  ACI803      0.1462
      2  C2        43.6210   19.5990    0.9590 C.3   803  ACI803      0.2065
      3  C3        44.7700   19.8940    1.8880 C.3   803  ACI803      0.2179
      4  C4        44.7090   21.3940    2.2620 C.3   803  ACI803      0.2053
      5  C5        43.3640   21.8000    2.8000 C.2   803  ACI803      0.0180
      6  C6        43.2430   23.0650    3.6370 C.3   803  ACI803      0.2066
      7  C7        42.2440   21.1060    2.4480 C.2   803  ACI803     -0.0084
      8  N1        41.9880   18.7400    2.5900 N.3   803  ACI803     -0.1254
      9  O2        43.6690   18.2150    0.5190 O.3   803  ACI803     -0.2184
     10  O3        46.0200   19.7150    1.1390 O.3   803  ACI803     -0.2172
     11  O4        45.6730   21.8090    3.3110 O.3   803  ACI803     -0.2157
     12  O6        41.8760   23.3050    4.0330 O.3   803  ACI803     -0.2155
@<TRIPOS>BOND
     1     9     2    1
     2     2     1    1
     3     2     3    1
     4    10     3    1
     5     1     7    1
     6     1     8    1
     7     3     4    1
     8     4     5    1
     9     4    11    1
    10     7     5    2
    11     5     6    1
    12     6    12    1
