@<TRIPOS>MOLECULE
3bc9_ACR_A_1.pdb
 44 47 0 0 0
SMALL
GASTEIGER

@<TRIPOS>ATOM
      1  C1A       15.9900    2.4290   13.5450 C.3   901  ACR901      0.1060
      2  C2A       15.5670    1.2700   12.6180 C.3   901  ACR901      0.2005
      3  C3A       14.1220    1.4390   12.2410 C.3   901  ACR901      0.2136
      4  C4A       13.3050    1.3360   13.5220 C.3   901  ACR901      0.1872
      5  C5A       13.7780    2.2650   14.5990 C.3   901  ACR901      0.0675
      6  C6A       12.8190    2.8150   15.6160 C.3   901  ACR901      0.1847
      7  C7A       15.0470    2.6120   14.7140 C.3   901  ACR901      0.0253
      8  O2A       16.3140    1.3130   11.3850 O.3   901  ACR901     -0.2188
      9  O3A       13.7160    0.5070   11.2280 O.3   901  ACR901     -0.2176
     10  O4A       11.9340    1.6070   13.2070 O.3   901  ACR901     -0.2202
     11  O6A       12.5130    1.7620   16.5120 O.3   901  ACR901     -0.2203
     12  C1B       19.0840    6.7330   12.7150 C.3   901  ACR901      0.2694
     13  C2B       19.4830    5.3510   12.2800 C.3   901  ACR901      0.2394
     14  C3B       18.1910    4.6210   11.9610 C.3   901  ACR901      0.2054
     15  C4B       17.2890    4.6000   13.1910 C.3   901  ACR901      0.1329
     16  C5B       16.9770    6.0340   13.6010 C.3   901  ACR901      0.1364
     17  C6B       16.1880    6.1050   14.9070 C.3   901  ACR901      0.0337
     18  N4B       16.1170    3.7190   12.8800 N.3   901  ACR901     -0.2131
     19  O2B       20.3350    5.3660   11.1490 O.3   901  ACR901     -0.2149
     20  O3B       18.4300    3.2900   11.5040 O.3   901  ACR901     -0.2186
     21  O5B       18.2120    6.7200   13.8410 O.3   901  ACR901     -0.3295
     22  C1C       18.7510   10.8930    9.4960 C.3   901  ACR901      0.2695
     23  C2C       20.0440   10.0680    9.5360 C.3   901  ACR901      0.2404
     24  C3C       19.7180    8.6530    9.9570 C.3   901  ACR901      0.2167
     25  C4C       19.0390    8.6850   11.2960 C.3   901  ACR901      0.1804
     26  C5C       17.8550    9.6550   11.3450 C.3   901  ACR901      0.1803
     27  C6C       17.4550    9.8380   12.8080 C.3   901  ACR901      0.2141
     28  O2C       20.5890   10.1150    8.2320 O.3   901  ACR901     -0.2149
     29  O3C       20.8990    7.8140   10.1020 O.3   901  ACR901     -0.2175
     30  O4C       18.4940    7.4200   11.6200 O.3   901  ACR901     -0.3257
     31  O5C       18.2730   10.9020   10.8340 O.3   901  ACR901     -0.3257
     32  O6C       16.2880   10.6590   12.8880 O.3   901  ACR901     -0.2176
     33  C1D       15.7210   10.5220    5.0530 C.3   901  ACR901      0.3023
     34  C2D       17.2240   10.8460    4.9470 C.3   901  ACR901      0.2433
     35  C3D       17.9260   10.4820    6.2380 C.3   901  ACR901      0.2168
     36  C4D       17.2410   10.9640    7.5070 C.3   901  ACR901      0.1804
     37  C5D       15.7420   10.6370    7.4790 C.3   901  ACR901      0.1804
     38  C6D       15.0110   11.2220    8.6850 C.3   901  ACR901      0.2141
     39  O1D       15.0250   11.0620    3.9060 O.3   901  ACR901     -0.1869
     40  O2D       17.9670   10.1440    3.9100 O.3   901  ACR901     -0.2148
     41  O3D       19.2290   11.0670    6.1680 O.3   901  ACR901     -0.2175
     42  O4D       17.8620   10.2490    8.5940 O.3   901  ACR901     -0.3257
     43  O5D       15.1450   11.1090    6.2500 O.3   901  ACR901     -0.3237
     44  O6D       15.6260   12.4500    9.1140 O.3   901  ACR901     -0.2176
@<TRIPOS>BOND
     1    39    33    1
     2    40    34    1
     3    34    33    1
     4    34    35    1
     5    33    43    1
     6    41    35    1
     7    35    36    1
     8    43    37    1
     9    37    36    1
    10    37    38    1
    11    36    42    1
    12    28    23    1
    13    42    22    1
    14    38    44    1
    15    22    23    1
    16    22    31    1
    17    23    24    1
    18    24    29    1
    19    24    25    1
    20    31    26    1
    21    19    13    1
    22     9     3    1
    23    25    26    1
    24    25    30    1
    25    26    27    1
    26     8     2    1
    27    20    14    1
    28    30    12    1
    29    14    13    1
    30    14    15    1
    31     3     2    1
    32     3     4    1
    33    13    12    1
    34     2     1    1
    35    12    21    1
    36    27    32    1
    37    18    15    1
    38    18     1    1
    39    15    16    1
    40    10     4    1
    41     4     5    1
    42     1     7    1
    43    16    21    1
    44    16    17    1
    45     5     7    1
    46     5     6    1
    47     6    11    1
