@<TRIPOS>MOLECULE
3bcc_HEM_C_1.pdb
 43 50 0 0 0
SMALL
GASTEIGER

@<TRIPOS>ATOM
      1  CHA       20.7100  135.3640   76.7110 C.2   381  HEM381      0.0000
      2  CHB       19.7610  130.8110   76.2670 C.2   381  HEM381      0.0000
      3  CHC       24.0670  129.9110   77.6140 C.2   381  HEM381      0.0000
      4  CHD       24.9710  134.5220   78.2440 C.2   381  HEM381      0.0000
      5  C1A       20.1410  134.1550   76.5170 C.ar  381  HEM381      0.0000
      6  C2A       18.7820  134.0920   76.0680 C.ar  381  HEM381      0.0000
      7  C3A       18.5730  132.8150   75.8680 C.ar  381  HEM381      0.0000
      8  C4A       19.7450  132.1450   76.2830 C.ar  381  HEM381      0.0000
      9  CMA       17.3980  132.2090   75.1400 C.3   381  HEM381      0.0000
     10  CAA       17.8710  135.2060   75.5890 C.3   381  HEM381      0.0000
     11  CBA       18.2720  135.5540   74.1650 C.3   381  HEM381      0.0000
     12  CGA       17.2520  136.4240   73.4670 C.2   381  HEM381      0.0000
     13  O1A       17.0390  137.5820   73.8770 O.co2 381  HEM381      0.0000
     14  O2A       16.6450  135.9320   72.5020 O.co2 381  HEM381      0.0000
     15  C1B       20.8610  130.1770   76.6510 C.2   381  HEM381      0.0000
     16  C2B       20.8960  128.7500   76.8560 C.2   381  HEM381      0.0000
     17  C3B       22.1430  128.4870   76.9780 C.2   381  HEM381      0.0000
     18  C4B       22.7800  129.7770   77.2440 C.2   381  HEM381      0.0000
     19  CMB       19.8090  127.7110   76.8720 C.3   381  HEM381      0.0000
     20  CAB       22.6380  127.2230   76.8540 C.2   381  HEM381      0.0000
     21  CBB       22.7780  126.4340   77.9540 C.2   381  HEM381      0.0000
     22  C1C       24.7090  131.1100   77.7670 C.ar  381  HEM381      0.0000
     23  C2C       26.0920  131.1780   78.2760 C.ar  381  HEM381      0.0000
     24  C3C       26.3040  132.4800   78.5930 C.ar  381  HEM381      0.0000
     25  C4C       25.0910  133.1810   78.1330 C.ar  381  HEM381      0.0000
     26  CMC       27.0680  130.0220   78.5590 C.3   381  HEM381      0.0000
     27  CAC       27.4220  132.9960   79.2390 C.3   381  HEM381      0.0000
     28  CBC       27.8170  132.4710   80.4520 C.3   381  HEM381      0.0000
     29  C1D       23.8760  135.1250   77.7590 C.2   381  HEM381      0.0000
     30  C2D       23.8190  136.5490   77.5270 C.2   381  HEM381      0.0000
     31  C3D       22.5780  136.8220   77.2350 C.2   381  HEM381      0.0000
     32  C4D       21.9770  135.5180   77.0670 C.2   381  HEM381      0.0000
     33  CMD       24.9400  137.5650   77.4500 C.3   381  HEM381      0.0000
     34  CAD       22.0670  138.2540   77.1060 C.3   381  HEM381      0.0000
     35  CBD       21.9670  138.9040   75.7420 C.3   381  HEM381      0.0000
     36  CGD       20.8490  138.3370   74.9380 C.2   381  HEM381      0.0000
     37  O1D       19.7230  138.4180   75.4250 O.co2 381  HEM381      0.0000
     38  O2D       21.0700  137.8130   73.8340 O.co2 381  HEM381      0.0000
     39  NA        20.7840  132.9460   76.6650 N.ar  381  HEM381      0.0000
     40  NB        21.9990  130.8800   77.0290 N.2   381  HEM381      0.0000
     41  NC        24.0600  132.3430   77.5890 N.ar  381  HEM381      0.0000
     42  ND        22.7730  134.4240   77.3020 N.2   381  HEM381      0.0000
     43 FE         22.3440  132.6000   77.0950 Fe    381  HEM381      0.0000
@<TRIPOS>BOND
     1    14    12   ar
     2    12    13   ar
     3    12    11    1
     4    38    36   ar
     5    11    10    1
     6    36    37   ar
     7    36    35    1
     8     9     7    1
     9    10     6    1
    10    35    34    1
    11     7     6   ar
    12     7     8   ar
    13     6     5   ar
    14     2     8    2
    15     2    15    1
    16     8    39   ar
    17     5    39   ar
    18     5     1    2
    19    15    16    1
    20    15    40    2
    21    39    43    1
    22     1    32    1
    23    20    17    1
    24    20    21    2
    25    16    19    1
    26    16    17    2
    27    17    18    1
    28    40    43    1
    29    40    18    1
    30    32    31    1
    31    32    42    2
    32    43    42    1
    33    43    41    1
    34    34    31    1
    35    31    30    2
    36    18     3    2
    37    42    29    1
    38    33    30    1
    39    30    29    1
    40    41    22   ar
    41    41    25   ar
    42     3    22    1
    43    29     4    2
    44    22    23   ar
    45    25     4    1
    46    25    24   ar
    47    23    26    1
    48    23    24   ar
    49    24    27    1
    50    27    28    1
