@<TRIPOS>MOLECULE
3bcc_III_I_2.pdb
 40 39 0 0 0
SMALL
GASTEIGER

@<TRIPOS>ATOM
      1  N         52.1100   78.7420   75.0080 N.3   202  UNK202     -0.1231
      2  CA        51.3810   78.0830   73.8870 C.3   202  UNK202      0.1694
      3  C         51.7780   78.6450   72.5030 C.2   202  UNK202      0.2592
      4  O         50.9450   78.6960   71.5840 O.2   202  UNK202     -0.2718
      5  CB        49.8750   78.2310   74.1140 C.3   202  UNK202      0.0304
      6  N         53.0530   79.0380   72.3670 N.am  203  UNK203     -0.1966
      7  CA        53.6190   79.6150   71.1290 C.3   203  UNK203      0.1728
      8  C         53.7780   78.6410   69.9340 C.2   203  UNK203      0.2616
      9  O         54.6500   77.7670   69.9480 O.2   203  UNK203     -0.2715
     10  CB        54.9770   80.2760   71.4480 C.3   203  UNK203      0.0334
     11  N         52.9470   78.8190   68.9010 N.am  204  UNK204     -0.1963
     12  CA        52.9610   77.9790   67.6920 C.3   204  UNK204      0.1728
     13  C         54.3530   77.5350   67.2160 C.2   204  UNK204      0.2617
     14  O         54.6100   76.3380   67.0610 O.2   204  UNK204     -0.2715
     15  CB        52.2310   78.7050   66.5490 C.3   204  UNK204      0.0334
     16  N         55.2400   78.4980   66.9730 N.am  205  UNK205     -0.1940
     17  CA        56.5850   78.1760   66.5170 C.3   205  UNK205      0.2014
     18  C         56.8650   78.6680   65.1070 C.2   205  UNK205      0.2639
     19  O         57.1230   77.8600   64.2100 O.2   205  UNK205     -0.2714
     20  N         56.8340   79.9920   64.9240 N.am  206  UNK206     -0.1963
     21  CA        57.0570   80.6430   63.6210 C.3   206  UNK206      0.1728
     22  C         58.5150   80.8800   63.2450 C.2   206  UNK206      0.2617
     23  O         58.8270   81.8230   62.4970 O.2   206  UNK206     -0.2715
     24  CB        56.2880   81.9820   63.5480 C.3   206  UNK206      0.0334
     25  N         59.3970   80.0260   63.7660 N.am  207  UNK207     -0.1940
     26  CA        60.8110   80.1310   63.4490 C.3   207  UNK207      0.2014
     27  C         61.0210   79.7660   61.9860 C.2   207  UNK207      0.2639
     28  O         61.1580   80.6440   61.1240 O.2   207  UNK207     -0.2714
     29  N         61.0290   78.4640   61.7030 N.am  208  UNK208     -0.1939
     30  CA        61.2110   78.0000   60.3360 C.3   208  UNK208      0.2014
     31  C         62.6660   77.8150   59.9250 C.2   208  UNK208      0.2639
     32  O         62.9930   76.8990   59.1610 O.2   208  UNK208     -0.2714
     33  N         63.5440   78.6870   60.4200 N.am  209  UNK209     -0.1939
     34  CA        64.9560   78.5850   60.0870 C.3   209  UNK209      0.2014
     35  C         65.4520   79.5860   59.0550 C.2   209  UNK209      0.2639
     36  O         65.3500   79.3560   57.8440 O.2   209  UNK209     -0.2714
     37  N         66.0010   80.6990   59.5360 N.am  210  UNK210     -0.1954
     38  CA        66.5130   81.7200   58.6410 C.3   210  UNK210      0.1869
     39  C         68.0010   81.5470   58.4150 C.2   210  UNK210      0.2309
     40  O         68.7800   82.3980   58.8930 O.2   210  UNK210     -0.2863
@<TRIPOS>BOND
     1    36    35    2
     2    39    38    1
     3    39    40    2
     4    38    37    1
     5    35    37   am
     6    35    34    1
     7    32    31    2
     8    31    30    1
     9    31    33   am
    10    34    33    1
    11    30    29    1
    12    28    27    2
    13    29    27   am
    14    27    26    1
    15    23    22    2
    16    22    21    1
    17    22    25   am
    18    26    25    1
    19    24    21    1
    20    21    20    1
    21    19    18    2
    22    20    18   am
    23    18    17    1
    24    17    16    1
    25    15    12    1
    26    16    13   am
    27    14    13    2
    28    13    12    1
    29    12    11    1
    30    11     8   am
    31     8     9    2
    32     8     7    1
    33     7    10    1
    34     7     6    1
    35     4     3    2
    36     6     3   am
    37     3     2    1
    38     2     5    1
    39     2     1    1
