@<TRIPOS>MOLECULE
3bcc_SIG_C_1.pdb
 35 36 0 0 0
SMALL
GASTEIGER

@<TRIPOS>ATOM
      1  C1         3.3850  132.2750   80.7990 C.ar  383  SIG383      0.1835
      2  C2         3.6110  130.9050   81.1860 C.ar  383  SIG383      0.2636
      3  C3         4.7940  130.2840   80.8630 C.ar  383  SIG383      0.1925
      4  C4         5.8060  131.0110   80.1650 C.ar  383  SIG383      0.1105
      5  C5         5.6100  132.3940   79.7690 C.ar  383  SIG383      0.1479
      6  C6         4.3880  132.9970   80.1030 C.ar  383  SIG383      0.0774
      7  O7         4.9640  128.9490   81.2590 O.2   383  SIG383     -0.4544
      8  C8         6.0920  128.2480   80.9970 C.ar  383  SIG383      0.1220
      9  C9         7.1210  128.8450   80.3220 C.ar  383  SIG383      0.0475
     10  C10        7.0110  130.2960   79.8600 C.ar  383  SIG383      0.2002
     11  O12        2.6620  130.1560   81.8730 O.3   383  SIG383     -0.2800
     12  O13        2.1700  132.8150   81.1490 O.3   383  SIG383     -0.4680
     13  O14        6.6510  133.0830   79.0740 O.3   383  SIG383     -0.4711
     14  O15        7.9770  130.7980   79.2540 O.2   383  SIG383     -0.2866
     15  C16        6.4790  134.4510   78.6830 C.3   383  SIG383      0.2525
     16  C20        5.9130  126.8300   81.5800 C.3   383  SIG383      0.0643
     17  C21        6.8840  125.6270   81.3230 C.3   383  SIG383      0.0079
     18  C22        7.8580  125.2380   82.5220 C.3   383  SIG383      0.0004
     19  C23        9.3600  125.1660   82.2070 C.3   383  SIG383      0.0000
     20  C24       10.3070  126.2100   82.8840 C.3   383  SIG383      0.0000
     21  C25       10.8510  125.7230   84.2630 C.3   383  SIG383      0.0000
     22  C26        1.9470  134.1610   80.7740 C.3   383  SIG383      0.2526
     23  C27        7.4960  123.8610   83.1040 C.3   383  SIG383      0.0000
     24  C28        9.5820  125.1740   80.7020 C.3   383  SIG383      0.0000
     25  C29       11.6490  126.7620   84.9870 C.3   383  SIG383      0.0000
     26  C30       11.7260  126.9360   86.3010 C.3   383  SIG383      0.0003
     27  C31       12.1310  128.1650   86.9910 C.3   383  SIG383      0.0043
     28  C32       13.0010  128.2360   88.0270 C.3   383  SIG383      0.0217
     29  C33        8.4080  128.2040   79.9690 C.3   383  SIG383      0.0373
     30  C34       11.7210  124.4710   84.0760 C.3   383  SIG383      0.0000
     31  C35        9.6330  127.5860   83.0340 C.3   383  SIG383      0.0000
     32  C36       13.8400  129.4050   88.3730 C.2   383  SIG383     -0.0482
     33  C37       15.0050  129.6880   87.7480 C.2   383  SIG383     -0.0342
     34  C38       15.9320  130.8320   88.0040 C.3   383  SIG383      0.0300
     35  C39       13.2330  130.2260   89.4930 C.3   383  SIG383      0.0260
@<TRIPOS>BOND
     1    15    13    1
     2    13     5    1
     3    14    10    2
     4     5     6   ar
     5     5     4   ar
     6    10     4   ar
     7    10     9   ar
     8    29     9    1
     9     6     1   ar
    10     4     3   ar
    11     9     8   ar
    12    24    19    1
    13    22    12    1
    14     1    12    1
    15     1     2   ar
    16     3     2   ar
    17     3     7   ar
    18     8     7   ar
    19     8    16    1
    20     2    11    1
    21    17    16    1
    22    17    18    1
    23    19    18    1
    24    19    20    1
    25    18    23    1
    26    20    31    1
    27    20    21    1
    28    30    21    1
    29    21    25    1
    30    25    26    1
    31    26    27    1
    32    27    28    1
    33    33    34    1
    34    33    32    2
    35    28    32    1
    36    32    35    1
