@<TRIPOS>MOLECULE
3bcc_AMY_C_1.pdb
 38 40 0 0 0
SMALL
GASTEIGER

@<TRIPOS>ATOM
      1  C1        27.8510  109.9360   69.2830 C.ar  384  AMY384      0.2152
      2  C2        27.0690  109.0600   68.4960 C.ar  384  AMY384      0.1128
      3  C3        26.6220  107.8140   69.0170 C.ar  384  AMY384      0.0199
      4  C5        27.7820  108.3560   71.1850 C.ar  384  AMY384      0.0079
      5  O5        32.1240  113.2380   72.3310 O.3   384  AMY384     -0.3249
      6  C6        28.2320  109.5970   70.6580 C.ar  384  AMY384      0.0930
      7  C7        29.0830  110.4950   71.5090 C.2   384  AMY384      0.2237
      8  C8        25.6240  109.2210   66.6380 C.2   384  AMY384      0.3247
      9  C9        29.5210  112.6280   72.5280 C.3   384  AMY384      0.1960
     10  O9        30.7860  116.7550   77.4980 O.3   384  AMY384     -0.1899
     11  C11       29.9330  114.6950   74.6040 C.3   384  AMY384      0.1452
     12  C12       31.3130  115.1760   75.2250 C.3   384  AMY384      0.1498
     13  C13       32.4860  114.8260   74.2080 C.3   384  AMY384      0.0890
     14  C14       32.5580  113.3320   73.8050 C.3   384  AMY384      0.2713
     15  C4        26.9740  107.4640   70.3560 C.ar  384  AMY384      0.0017
     16  N1        26.7560  109.4490   67.1910 N.am  384  AMY384     -0.1683
     17  N2        28.7040  111.7450   71.7540 N.2   384  AMY384     -0.2318
     18  O1        28.2280  111.0830   68.7020 O.3   384  AMY384     -0.2850
     19  O2        25.6170  108.7670   65.5410 O.2   384  AMY384     -0.2629
     20  O3        30.1830  109.9790   71.9470 O.2   384  AMY384     -0.4576
     21  C10       30.9210  112.4460   71.9040 C.3   384  AMY384      0.1888
     22  O4        29.8380  115.0160   73.1950 O.3   384  AMY384     -0.3270
     23  O6        31.5770  112.5220   74.6220 O.3   384  AMY384     -0.1898
     24  C15       33.9020  115.2560   74.8480 C.3   384  AMY384      0.0077
     25  C16       35.2390  115.0210   74.0820 C.3   384  AMY384      0.0003
     26  C17       36.4710  115.5730   74.9340 C.3   384  AMY384      0.0000
     27  C18       36.9920  116.9590   74.3210 C.3   384  AMY384      0.0000
     28  C19       38.2020  117.5730   75.0870 C.3   384  AMY384      0.0000
     29  C20       29.0090  114.0700   72.4140 C.3   384  AMY384      0.2941
     30  O7        27.6410  114.1280   72.9420 O.3   384  AMY384     -0.1876
     31  O8        31.4530  116.6170   75.3810 O.3   384  AMY384     -0.3283
     32  C21       30.5950  117.2890   76.2390 C.3   384  AMY384      0.2689
     33  C22       31.0110  118.7440   76.1910 C.3   384  AMY384      0.0644
     34  C23       30.1040  119.6430   77.1010 C.3   384  AMY384      0.0051
     35  C24       30.5920  121.0720   76.9660 C.3   384  AMY384      0.0002
     36  C25       30.2710  119.2790   78.4450 C.3   384  AMY384      0.0002
     37  C26       31.3990  111.1600   72.2160 C.3   384  AMY384      0.2386
     38  C27       28.8720  114.9890   75.3430 C.3   384  AMY384      0.0347
@<TRIPOS>BOND
     1    19     8    2
     2     8    16   am
     3    16     2    1
     4     2     3   ar
     5     2     1   ar
     6    18     1    1
     7     3    15   ar
     8     1     6   ar
     9    15     4   ar
    10     6     4   ar
    11     6     7    1
    12     7    17    2
    13     7    20    1
    14    17     9    1
    15    21    37    1
    16    21     5    1
    17    21     9    1
    18    20    37    1
    19     5    14    1
    20    29     9    1
    21    29    30    1
    22    29    22    1
    23    22    11    1
    24    14    13    1
    25    14    23    1
    26    25    24    1
    27    25    26    1
    28    13    24    1
    29    13    12    1
    30    27    26    1
    31    27    28    1
    32    11    12    1
    33    11    38    1
    34    12    31    1
    35    31    32    1
    36    33    32    1
    37    33    34    1
    38    32    10    1
    39    35    34    1
    40    34    36    1
