@<TRIPOS>MOLECULE
3bcd_BGC_A_1.pdb
 12 12 0 0 0
SMALL
GASTEIGER

@<TRIPOS>ATOM
      1  C2        31.4750    2.0050   -5.3960 C.3   804  BGC804      0.2434
      2  C3        32.4840    2.4390   -4.3070 C.3   804  BGC804      0.2199
      3  C4        32.3360    3.9750   -4.1010 C.3   804  BGC804      0.2144
      4  C5        30.8630    4.4460   -3.8730 C.3   804  BGC804      0.1836
      5  C6        30.6980    5.9850   -3.9040 C.3   804  BGC804      0.2142
      6  C1        30.0700    2.4100   -4.8800 C.3   804  BGC804      0.3024
      7  O1        28.9800    1.8180   -5.5920 O.3   804  BGC804     -0.1869
      8  O2        31.5890    0.6210   -5.6810 O.3   804  BGC804     -0.2148
      9  O3        33.8280    1.9470   -4.4930 O.3   804  BGC804     -0.2174
     10  O4        33.1890    4.4400   -3.0600 O.3   804  BGC804     -0.2176
     11  O5        29.9760    3.8390   -4.8220 O.3   804  BGC804     -0.3236
     12  O6        29.5760    6.4850   -4.6190 O.3   804  BGC804     -0.2176
@<TRIPOS>BOND
     1     8     1    1
     2     7     6    1
     3     1     6    1
     4     1     2    1
     5     6    11    1
     6    11     4    1
     7    12     5    1
     8     9     2    1
     9     2     3    1
    10     3     4    1
    11     3    10    1
    12     5     4    1
