@<TRIPOS>MOLECULE
3bcd_GLC_A_1.pdb
 11 11 0 0 0
SMALL
GASTEIGER

@<TRIPOS>ATOM
      1  C1        38.7760    7.7400    5.3170 C.3   801  GLC801      0.1777
      2  C2        38.3250    8.2020    6.7300 C.3   801  GLC801      0.2141
      3  C3        37.6540    9.5890    6.5190 C.3   801  GLC801      0.2173
      4  C4        38.7610   10.6550    6.2810 C.3   801  GLC801      0.2142
      5  C5        39.9130   10.1080    5.4070 C.3   801  GLC801      0.1810
      6  C6        41.1300   10.1380    6.3620 C.3   801  GLC801      0.2141
      7  O2        37.5380    7.2420    7.4890 O.3   801  GLC801     -0.2176
      8  O3        36.8490    9.9100    7.6560 O.3   801  GLC801     -0.2175
      9  O4        38.3380   11.9530    5.8020 O.3   801  GLC801     -0.2176
     10  O5        39.7000    8.7790    4.7940 O.3   801  GLC801     -0.3481
     11  O6        42.4190   10.0710    5.7640 O.3   801  GLC801     -0.2176
@<TRIPOS>BOND
     1    10     1    1
     2    10     5    1
     3     1     2    1
     4     5     4    1
     5     5     6    1
     6    11     6    1
     7     9     4    1
     8     4     3    1
     9     3     2    1
    10     3     8    1
    11     2     7    1
