@<TRIPOS>MOLECULE
3bcj_FIS_A_1.pdb
 20 22 0 0 0
SMALL
GASTEIGER

@<TRIPOS>ATOM
      1  O3I       17.1350  -16.3490   22.0660 O.2   320  FIS320     -0.1881
      2  O6I       21.0710  -14.1710   21.2520 O.2   320  FIS320     -0.2111
      3  N1I       18.1250  -15.6580   20.1100 N.2   320  FIS320     -0.1582
      4  C2I       18.0420  -15.8250   21.4450 C.1   320  FIS320      0.3075
      5  N4        19.2030  -15.2870   22.0080 N.2   320  FIS320     -0.2446
      6  F17       22.5940  -18.2450   18.4810 F     320  FIS320     -0.2042
      7  C16       20.9090  -15.8300   16.4120 C.ar  320  FIS320      0.0390
      8  C11       20.1360  -15.1930   17.3980 C.ar  320  FIS320      0.1380
      9  C12       20.1490  -15.5990   18.7040 C.ar  320  FIS320      0.0506
     10  C13       20.9790  -16.6630   19.0890 C.ar  320  FIS320      0.0313
     11  C14       21.7850  -17.2550   18.1230 C.ar  320  FIS320      0.1401
     12  C15       21.7880  -16.8500   16.7760 C.ar  320  FIS320      0.0327
     13  O10       19.3960  -14.1190   16.9190 O.3   320  FIS320     -0.4699
     14  C5        19.9890  -14.7300   21.0760 C.1   320  FIS320      0.2166
     15  N21       18.7430  -11.7150   16.2410 N.am  320  FIS320     -0.0846
     16  O20       17.1790  -11.5400   17.8800 O.2   320  FIS320     -0.2677
     17  C19       18.0580  -12.1730   17.2850 C.2   320  FIS320      0.3010
     18  C7I       19.2740  -14.8690   19.7280 C.3   320  FIS320      0.2260
     19  C8I       18.9320  -13.4770   19.2300 C.3   320  FIS320      0.0980
     20  C9        18.4290  -13.5510   17.7870 C.3   320  FIS320      0.2477
@<TRIPOS>BOND
     1    15    17   am
     2     7    12   ar
     3     7     8   ar
     4    12    11   ar
     5    13     8    1
     6    13    20    1
     7    17    20    1
     8    17    16    2
     9     8     9   ar
    10    20    19    1
    11    11     6    1
    12    11    10   ar
    13     9    10   ar
    14     9    18    1
    15    19    18    1
    16    18     3    1
    17    18    14    1
    18     3     4    2
    19    14     2    2
    20    14     5    2
    21     4     5    2
    22     4     1    2
