@<TRIPOS>MOLECULE
3bcj_NAP_A_1.pdb
 48 52 0 0 0
SMALL
GASTEIGER

@<TRIPOS>ATOM
      1  PA        22.8900   -4.4210   26.9870 P.3   318  NAP318      0.2189
      2  O1A       21.7930   -4.0880   27.9210 O.3   318  NAP318     -0.4371
      3  O2A       23.8180   -3.3620   26.5060 O.2   318  NAP318     -0.5170
      4  O5B       23.8130   -5.6050   27.5220 O.3   318  NAP318     -0.3112
      5  C5B       23.2200   -6.8300   27.9880 C.3   318  NAP318      0.1813
      6  C4B       24.3640   -7.7560   28.3220 C.3   318  NAP318      0.1820
      7  O4B       25.1530   -7.1770   29.3840 O.3   318  NAP318     -0.3136
      8  C3B       23.9590   -9.1640   28.7750 C.3   318  NAP318      0.2157
      9  O3B       24.9230  -10.0700   28.2680 O.3   318  NAP318     -0.2175
     10  C2B       24.0790   -9.0540   30.2970 C.3   318  NAP318      0.2314
     11  O2B       24.3930  -10.3070   30.8910 O.3   318  NAP318     -0.2630
     12  C1B       25.2300   -8.1050   30.4640 C.3   318  NAP318      0.3158
     13  N9A       25.2110   -7.3550   31.7070 N.pl3 318  NAP318     -0.1439
     14  C8A       24.1040   -6.7210   32.2490 C.3   318  NAP318      0.3377
     15  N7A       24.3810   -6.0600   33.3570 N.2   318  NAP318     -0.2095
     16  C5A       25.7280   -6.2860   33.5520 C.2   318  NAP318      0.2526
     17  C6A       26.5680   -5.8810   34.5790 C.2   318  NAP318      0.4393
     18  N6A       26.1630   -5.1400   35.6140 N.pl3 318  NAP318      0.2180
     19  N1A       27.8610   -6.3130   34.4980 N.2   318  NAP318      0.0021
     20  C2A       28.2760   -7.0600   33.4380 C.3   318  NAP318      0.5254
     21  N3A       27.5380   -7.4800   32.4190 N.2   318  NAP318     -0.0055
     22  C4A       26.2410   -7.0820   32.5350 C.2   318  NAP318      0.3518
     23  O3        22.2910   -5.1330   25.6580 O.3   318  NAP318     -0.2703
     24  PN        20.9070   -5.2510   24.8830 P.3   318  NAP318      0.2189
     25  O1N       20.1100   -6.3810   25.4610 O.3   318  NAP318     -0.4371
     26  O2N       21.2510   -5.2830   23.4360 O.2   318  NAP318     -0.5170
     27  O5D       20.1680   -3.8450   25.1140 O.3   318  NAP318     -0.3112
     28  C5D       19.2890   -3.6080   26.2360 C.3   318  NAP318      0.1813
     29  C4D       17.8510   -3.7060   25.8360 C.3   318  NAP318      0.1799
     30  O4D       17.5240   -2.6900   24.8580 O.3   318  NAP318     -0.3327
     31  C3D       17.4200   -4.9910   25.1430 C.3   318  NAP318      0.2158
     32  O3D       17.3630   -6.1120   25.9990 O.3   318  NAP318     -0.2175
     33  C2D       16.0840   -4.5740   24.5520 C.3   318  NAP318      0.2309
     34  O2D       15.1420   -4.5250   25.6140 O.3   318  NAP318     -0.2158
     35  C1D       16.4610   -3.1550   24.0560 C.3   318  NAP318      0.2263
     36  N1N       16.9150   -3.1440   22.6310 N.pl3 318  NAP318     -0.2787
     37  C2N       16.0780   -2.6480   21.6980 C.3   318  NAP318      0.1244
     38  C3N       16.4140   -2.6350   20.3670 C.2   318  NAP318      0.0544
     39  C7N       15.5420   -1.9950   19.3270 C.2   318  NAP318      0.2818
     40  O7N       15.6930   -2.2850   18.1370 O.2   318  NAP318     -0.2670
     41  N7N       14.6330   -1.1220   19.7720 N.am  318  NAP318     -0.0839
     42  C4N       17.6490   -3.1940   19.9730 C.2   318  NAP318      0.0033
     43  C5N       18.5110   -3.6590   20.9470 C.2   318  NAP318      0.0157
     44  C6N       18.1560   -3.6060   22.2820 C.2   318  NAP318      0.0633
     45  P2B       23.3170  -11.1990   31.7420 P.3   318  NAP318      0.5328
     46  O1X       21.9380  -10.9560   31.1880 O.2   318  NAP318     -0.2224
     47  O2X       23.4540  -10.7500   33.1920 O.3   318  NAP318     -0.1145
     48  O3X       23.8560  -12.5940   31.5230 O.3   318  NAP318     -0.1145
@<TRIPOS>BOND
     1    40    39    2
     2    39    41   am
     3    39    38    1
     4    42    38    2
     5    42    43    1
     6    38    37    1
     7    43    44    2
     8    37    36    1
     9    44    36    1
    10    36    35    1
    11    26    24    2
    12    35    33    1
    13    35    30    1
    14    33    31    1
    15    33    34    1
    16    30    29    1
    17    24    27    1
    18    24    25    1
    19    24    23    1
    20    27    28    1
    21    31    29    1
    22    31    32    1
    23    23     1    1
    24    29    28    1
    25     3     1    2
    26     1     4    1
    27     1     2    1
    28     4     5    1
    29     5     6    1
    30     9     8    1
    31     6     8    1
    32     6     7    1
    33     8    10    1
    34     7    12    1
    35    10    12    1
    36    10    11    1
    37    12    13    1
    38    11    45    1
    39    46    45    2
    40    48    45    1
    41    13    14    1
    42    13    22    1
    43    45    47    1
    44    14    15    1
    45    21    22    2
    46    21    20    1
    47    22    16    1
    48    15    16    2
    49    20    19    1
    50    16    17    1
    51    19    17    2
    52    17    18    1
