@<TRIPOS>MOLECULE
3bcn_E64_A_1.pdb
 25 24 0 0 0
SMALL
GASTEIGER

@<TRIPOS>ATOM
      1  C1         1.1740   -8.6320   22.3530 C.2   214  E64214      0.3680
      2  O1         1.7820   -8.5140   21.2080 O.co2 214  E64214     -0.2455
      3  O2         1.2860   -9.6220   23.0690 O.co2 214  E64214     -0.2455
      4  C2         0.3120   -7.4730   22.7650 C.3   214  E64214      0.1564
      5  C3        -1.0960   -7.8990   23.1800 C.3   214  E64214      0.2403
      6  O3        -1.8670   -8.8310   22.4130 O.3   214  E64214     -0.2126
      7  C4        -1.8320   -6.7020   23.7500 C.2   214  E64214      0.2728
      8  O4        -2.0740   -6.6030   24.9620 O.2   214  E64214     -0.2706
      9  N1        -2.1640   -5.7930   22.8350 N.am  214  E64214     -0.1956
     10  C6        -2.9030   -4.5760   23.1380 C.3   214  E64214      0.1728
     11  C7        -2.2520   -3.3850   22.4290 C.3   214  E64214      0.0311
     12  C8        -1.6420   -2.2600   23.2690 C.3   214  E64214      0.0022
     13  C9        -2.4820   -1.0090   23.0950 C.3   214  E64214      0.0001
     14  C10       -1.5660   -2.6640   24.7320 C.3   214  E64214      0.0001
     15  C11       -4.3540   -4.7190   22.6770 C.2   214  E64214      0.2612
     16  O5        -4.9590   -3.7650   22.1760 O.2   214  E64214     -0.2715
     17  N2        -4.9040   -5.9160   22.8550 N.am  214  E64214     -0.2040
     18  C12       -6.3190   -6.1970   22.6590 C.3   214  E64214      0.1153
     19  C13       -6.8290   -7.2840   23.5830 C.3   214  E64214      0.0271
     20  C14       -7.4250   -8.4460   22.7900 C.3   214  E64214      0.0487
     21  C15       -8.1720   -7.9670   21.5430 C.3   214  E64214      0.2205
     22  N3        -8.1010   -8.9270   20.4390 N.pl3 214  E64214     -0.0865
     23  C16       -9.1230   -9.6890   20.0460 C.cat 214  E64214      0.5346
     24  N4        -9.9940   -9.9390   21.0230 N.pl3 214  E64214      0.1354
     25  N5        -9.3350  -10.1980   18.8270 N.pl3 214  E64214      0.1354
@<TRIPOS>BOND
     1    25    23    1
     2    23    22    2
     3    23    24    1
     4    22    21    1
     5     2     1   ar
     6    21    20    1
     7    16    15    2
     8     1     4    1
     9     1     3   ar
    10     6     5    1
    11    11    10    1
    12    11    12    1
    13    18    17    1
    14    18    19    1
    15    15    17   am
    16    15    10    1
    17     4     5    1
    18    20    19    1
    19     9    10    1
    20     9     7   am
    21    13    12    1
    22     5     7    1
    23    12    14    1
    24     7     8    2
