@<TRIPOS>MOLECULE
3bcq_HEM_A_1.pdb
 43 50 0 0 0
SMALL
GASTEIGER

@<TRIPOS>ATOM
      1  CHA        9.8160    1.7700    9.2630 C.2   143  HEM143      0.0000
      2  CHB        8.9710    5.8090   11.7460 C.2   143  HEM143      0.0000
      3  CHC        6.1960    2.9830   14.6850 C.2   143  HEM143      0.0000
      4  CHD        7.1020   -1.0730   12.2470 C.2   143  HEM143      0.0000
      5  C1A        9.8950    3.0760    9.6580 C.ar  143  HEM143      0.0000
      6  C2A       10.7000    4.1890    9.1180 C.ar  143  HEM143      0.0000
      7  C3A       10.4550    5.2820    9.8820 C.ar  143  HEM143      0.0000
      8  C4A        9.4740    4.9060   10.8510 C.ar  143  HEM143      0.0000
      9  CMA       10.9550    6.7580    9.8490 C.3   143  HEM143      0.0000
     10  CAA       11.6910    4.1750    7.9250 C.3   143  HEM143      0.0000
     11  CBA       10.9900    4.8320    6.7220 C.3   143  HEM143      0.0000
     12  CGA       11.8160    4.6510    5.4430 C.2   143  HEM143      0.0000
     13  O1A       12.4800    3.5530    5.2630 O.co2 143  HEM143      0.0000
     14  O2A       11.7930    5.5940    4.5880 O.co2 143  HEM143      0.0000
     15  C1B        8.1310    5.3820   12.7520 C.2   143  HEM143      0.0000
     16  C2B        7.6010    6.2120   13.8090 C.2   143  HEM143      0.0000
     17  C3B        6.8260    5.3810   14.5780 C.2   143  HEM143      0.0000
     18  C4B        6.8810    4.0350   14.0880 C.2   143  HEM143      0.0000
     19  CMB        7.8770    7.7340   13.9150 C.3   143  HEM143      0.0000
     20  CAB        5.9620    5.6410   15.8360 C.2   143  HEM143      0.0000
     21  CBB        6.2430    6.6920   16.6420 C.2   143  HEM143      0.0000
     22  C1C        6.2300    1.6090   14.3460 C.ar  143  HEM143      0.0000
     23  C2C        5.6520    0.4920   15.1220 C.ar  143  HEM143      0.0000
     24  C3C        5.8960   -0.6000   14.3840 C.ar  143  HEM143      0.0000
     25  C4C        6.6510   -0.2100   13.2080 C.ar  143  HEM143      0.0000
     26  CMC        4.8440    0.5910   16.4790 C.3   143  HEM143      0.0000
     27  CAC        5.5460   -2.0970   14.5630 C.2   143  HEM143      0.0000
     28  CBC        6.1330   -2.8510   15.5070 C.2   143  HEM143      0.0000
     29  C1D        7.9310   -0.6820   11.2410 C.2   143  HEM143      0.0000
     30  C2D        8.5400   -1.5770   10.2940 C.2   143  HEM143      0.0000
     31  C3D        9.3460   -0.6600    9.4120 C.2   143  HEM143      0.0000
     32  C4D        9.1850    0.6920    9.9090 C.2   143  HEM143      0.0000
     33  CMD        8.4010   -3.1330   10.1400 C.3   143  HEM143      0.0000
     34  CAD       10.2380   -1.0090    8.2010 C.3   143  HEM143      0.0000
     35  CBD       11.6330   -1.3930    8.7420 C.3   143  HEM143      0.0000
     36  CGD       12.2530   -2.0770    7.5640 C.2   143  HEM143      0.0000
     37  O1D       12.0710   -3.3160    7.4500 O.co2 143  HEM143      0.0000
     38  O2D       12.8630   -1.4020    6.6920 O.co2 143  HEM143      0.0000
     39  NA         9.1100    3.6130   10.6980 N.ar  143  HEM143      0.0000
     40  NB         7.6650    4.0370   12.9600 N.2   143  HEM143      0.0000
     41  NC         6.8620    1.0790   13.1950 N.ar  143  HEM143      0.0000
     42  ND         8.3530    0.6340   11.0040 N.2   143  HEM143      0.0000
     43 FE          7.9530    2.3470   11.8780 Fe    143  HEM143      0.0000
@<TRIPOS>BOND
     1    14    12   ar
     2    13    12   ar
     3    12    11    1
     4    38    36   ar
     5    11    10    1
     6    37    36   ar
     7    36    35    1
     8    10     6    1
     9    34    35    1
    10    34    31    1
    11     6     5   ar
    12     6     7   ar
    13     1     5    2
    14     1    32    1
    15    31    32    1
    16    31    30    2
    17     5    39   ar
    18     9     7    1
    19     7     8   ar
    20    32    42    2
    21    33    30    1
    22    30    29    1
    23    39     8   ar
    24    39    43    1
    25     8     2    2
    26    42    29    1
    27    42    43    1
    28    29     4    2
    29     2    15    1
    30    43    40    1
    31    43    41    1
    32     4    25    1
    33    15    40    2
    34    15    16    1
    35    40    18    1
    36    41    25   ar
    37    41    22   ar
    38    25    24   ar
    39    16    19    1
    40    16    17    2
    41    18    17    1
    42    18     3    2
    43    22     3    1
    44    22    23   ar
    45    24    27    1
    46    24    23   ar
    47    27    28    2
    48    17    20    1
    49    23    26    1
    50    20    21    2
