@<TRIPOS>MOLECULE
3bcr_AZZ_A_1.pdb
 19 20 0 0 0
SMALL
GASTEIGER

@<TRIPOS>ATOM
      1  O5'       41.5560   36.6790   27.7140 O.3   940  AZZ940     -0.2176
      2  C5'       41.4690   38.0870   27.4400 C.3   940  AZZ940      0.2136
      3  C4'       40.9210   38.8420   28.6700 C.3   940  AZZ940      0.1752
      4  O4'       39.6490   38.2830   29.0670 O.3   940  AZZ940     -0.3344
      5  C3'       41.8770   38.6580   29.8580 C.3   940  AZZ940      0.1732
      6  N3'       42.4430   39.9670   30.2390 N.2   940  AZZ940     -0.0969
      7  N4'       43.4090   40.1540   29.6930 N.2   940  AZZ940     -0.1663
      8  N5'       44.3710   40.3930   29.1570 N.2   940  AZZ940      0.0678
      9  C2'       41.0090   38.1080   30.9890 C.3   940  AZZ940      0.0819
     10  C1'       39.5740   38.3330   30.5120 C.3   940  AZZ940      0.2085
     11  N1        38.6700   37.2490   31.0110 N.am  940  AZZ940     -0.1794
     12  C2        38.2630   36.1660   30.1830 C.1   940  AZZ940      0.2844
     13  O2        38.6360   36.0630   29.0130 O.2   940  AZZ940     -0.1918
     14  N3        37.4130   35.1740   30.6970 N.2   940  AZZ940     -0.2455
     15  C4        36.9650   35.2480   32.0200 C.1   940  AZZ940      0.2134
     16  O4        36.2230   34.3590   32.4380 O.2   940  AZZ940     -0.2088
     17  C5        37.3680   36.3100   32.8420 C.2   940  AZZ940      0.0891
     18  C5A       36.8920   36.4100   34.3010 C.3   940  AZZ940      0.0462
     19  C6        38.2090   37.3020   32.3390 C.2   940  AZZ940      0.0877
@<TRIPOS>BOND
     1     2     1    1
     2     2     3    1
     3     3     4    1
     4     3     5    1
     5    13    12    2
     6     4    10    1
     7     8     7    2
     8     7     6    2
     9     5     6    1
    10     5     9    1
    11    12    14    2
    12    12    11   am
    13    10     9    1
    14    10    11    1
    15    14    15    2
    16    11    19    1
    17    15    16    2
    18    15    17    1
    19    19    17    2
    20    17    18    1
