@<TRIPOS>MOLECULE
3bcs_CJB_A_1.pdb
 19 20 0 0 0
SMALL
GASTEIGER

@<TRIPOS>ATOM
      1  N1        34.2110   23.6060   28.7830 N.am  998  CJB998     -0.1766
      2  O2        32.3890   24.2570   29.9950 O.2   998  CJB998     -0.1918
      3  C2        33.6170   24.2610   29.8630 C.1   998  CJB998      0.2845
      4  N3        34.4340   24.9320   30.7800 N.2   998  CJB998     -0.2452
      5  C4        35.8250   24.9440   30.6240 C.1   998  CJB998      0.2182
      6  O4        36.5020   25.5480   31.4480 O.2   998  CJB998     -0.2085
      7  C5        36.4300   24.2780   29.5560 C.2   998  CJB998      0.1242
      8  C6        35.6150   23.6100   28.6380 C.2   998  CJB998      0.0929
      9  C1*       33.3260   22.9020   27.8180 C.3   998  CJB998      0.2401
     10  O5*       33.3120   21.4810   28.1060 O.3   998  CJB998     -0.3318
     11  C5*       32.2360   20.8510   27.3610 C.3   998  CJB998      0.1828
     12  C6*       32.1660   19.3840   27.8020 C.3   998  CJB998      0.2142
     13  O6*       33.2990   18.6750   27.3010 O.3   998  CJB998     -0.2176
     14  C4*       32.4090   21.0040   25.8270 C.3   998  CJB998      0.2144
     15  O4*       31.2510   20.4900   25.1550 O.3   998  CJB998     -0.2176
     16  C3*       32.6490   22.4660   25.4170 C.3   998  CJB998      0.2190
     17  O3*       33.0940   22.5160   24.0620 O.3   998  CJB998     -0.2174
     18  C2*       33.6990   23.1260   26.3350 C.3   998  CJB998      0.2320
     19  O2*       33.8330   24.5270   26.0520 O.3   998  CJB998     -0.2157
@<TRIPOS>BOND
     1    17    16    1
     2    15    14    1
     3    16    14    1
     4    16    18    1
     5    14    11    1
     6    19    18    1
     7    18     9    1
     8    13    12    1
     9    11    12    1
    10    11    10    1
    11     9    10    1
    12     9     1    1
    13     8     1    1
    14     8     7    2
    15     1     3   am
    16     7     5    1
    17     3     2    2
    18     3     4    2
    19     5     4    2
    20     5     6    2
