@<TRIPOS>MOLECULE
3bcu_THM_A_1.pdb
 17 18 0 0 0
SMALL
GASTEIGER

@<TRIPOS>ATOM
      1  O5'       42.2470   37.9640   27.0790 O.3   940  THM940     -0.2176
      2  C5'       41.1880   37.4950   27.9220 C.3   940  THM940      0.2141
      3  C4'       40.7900   38.6030   28.8900 C.3   940  THM940      0.1802
      4  O4'       39.4380   38.4340   29.3330 O.3   940  THM940     -0.3338
      5  C3'       41.6850   38.5950   30.1170 C.3   940  THM940      0.1858
      6  O3'       42.3210   39.8720   30.2450 O.3   940  THM940     -0.2203
      7  C2'       40.7790   38.3270   31.3050 C.3   940  THM940      0.0874
      8  C1'       39.3540   38.4110   30.7650 C.3   940  THM940      0.2090
      9  N1        38.5110   37.3090   31.2710 N.am  940  THM940     -0.1794
     10  C2        38.1060   36.2040   30.4550 C.1   940  THM940      0.2844
     11  O2        38.4560   36.1120   29.2560 O.2   940  THM940     -0.1918
     12  N3        37.3340   35.2190   30.9450 N.2   940  THM940     -0.2455
     13  C4        36.9150   35.2340   32.2150 C.1   940  THM940      0.2134
     14  O4        36.2000   34.3000   32.6400 O.2   940  THM940     -0.2088
     15  C5        37.3210   36.3690   33.0950 C.2   940  THM940      0.0891
     16  C5M       36.8900   36.4560   34.5400 C.3   940  THM940      0.0462
     17  C6        38.1150   37.3730   32.5530 C.2   940  THM940      0.0877
@<TRIPOS>BOND
     1     1     2    1
     2     2     3    1
     3     3     4    1
     4     3     5    1
     5    11    10    2
     6     4     8    1
     7     5     6    1
     8     5     7    1
     9    10    12    2
    10    10     9   am
    11     8     9    1
    12     8     7    1
    13    12    13    2
    14     9    17    1
    15    13    14    2
    16    13    15    1
    17    17    15    2
    18    15    16    1
