@<TRIPOS>MOLECULE
3bd6_RDD_A_1.pdb
 18 19 0 0 0
SMALL
GASTEIGER

@<TRIPOS>ATOM
      1  C2        32.1400    1.5460   51.8340 C.1   930  RDD930      0.2966
      2  C6        29.8780    1.9010   52.6850 C.1   930  RDD930      0.2966
      3  C4        31.1330    3.7570   51.7300 C.1   930  RDD930      0.3775
      4  O6        28.8360    1.5040   53.2100 O.2   930  RDD930     -0.1911
      5  N5        29.9690    3.2580   52.3290 N.2   930  RDD930     -0.2185
      6  O4        31.2060    4.9440   51.4220 O.2   930  RDD930     -0.1737
      7  N3        32.2140    2.9020   51.4830 N.2   930  RDD930     -0.2185
      8  O2        33.1090    0.8220   51.6050 O.2   930  RDD930     -0.1911
      9  N1        30.9720    1.0260   52.4420 N.am  930  RDD930     -0.0934
     10  C1'       30.9190   -0.4310   52.8010 C.3   930  RDD930      0.2519
     11  O4'       29.7290   -1.0570   52.2380 O.3   930  RDD930     -0.3313
     12  C4'       29.5230   -2.2370   53.0380 C.3   930  RDD930      0.1829
     13  C5'       28.1090   -2.8240   52.8240 C.3   930  RDD930      0.2142
     14  O5'       27.1290   -1.7840   52.7110 O.3   930  RDD930     -0.2176
     15  C3'       29.7240   -1.7270   54.4690 C.3   930  RDD930      0.2160
     16  O3'       30.1250   -2.8050   55.3240 O.3   930  RDD930     -0.2175
     17  C2'       30.8550   -0.7000   54.3190 C.3   930  RDD930      0.2327
     18  O2'       32.1030   -1.2470   54.7620 O.3   930  RDD930     -0.2157
@<TRIPOS>BOND
     1     6     3    2
     2     7     3    2
     3     7     1    2
     4     8     1    2
     5     3     5    2
     6     1     9   am
     7    11    10    1
     8    11    12    1
     9     5     2    2
    10     9     2   am
    11     9    10    1
    12     2     4    2
    13    14    13    1
    14    10    17    1
    15    13    12    1
    16    12    15    1
    17    17    15    1
    18    17    18    1
    19    15    16    1
