@<TRIPOS>MOLECULE
3bd7_CKB_A_1.pdb
 20 21 0 0 0
SMALL
GASTEIGER

@<TRIPOS>ATOM
      1  C2        38.5160   36.8230   30.3910 C.1   940  CKB940      0.2845
      2  C4        37.1450   35.5690   31.9820 C.1   940  CKB940      0.2134
      3  C5        37.5310   36.4450   33.1540 C.2   940  CKB940      0.0891
      4  C6        38.3970   37.4670   32.8500 C.2   940  CKB940      0.0878
      5  C7        37.0330   36.2490   34.5760 C.3   940  CKB940      0.0462
      6  N1        38.8960   37.6740   31.4910 N.am  940  CKB940     -0.1770
      7  N3        37.6510   35.8040   30.6840 N.2   940  CKB940     -0.2455
      8  C1'       39.8400   38.7440   31.0440 C.3   940  CKB940      0.2400
      9  C2'       39.4280   40.1340   31.7150 C.3   940  CKB940      0.2320
     10  C3'       40.4740   41.1750   31.2110 C.3   940  CKB940      0.2190
     11  C4'       41.8970   40.7240   31.5460 C.3   940  CKB940      0.2144
     12  C5'       42.1760   39.3370   30.8690 C.3   940  CKB940      0.1828
     13  C6'       43.5950   38.7870   31.1690 C.3   940  CKB940      0.2142
     14  O6'       43.6970   38.5440   32.6240 O.3   940  CKB940     -0.2176
     15  O2'       38.0770   40.5190   31.4160 O.3   940  CKB940     -0.2157
     16  O3'       40.1820   42.4520   31.8100 O.3   940  CKB940     -0.2174
     17  O4'       42.8620   41.7150   31.0760 O.3   940  CKB940     -0.2176
     18  O5'       41.2150   38.2880   31.3060 O.3   940  CKB940     -0.3318
     19  O2        38.8900   36.9160   29.2140 O.2   940  CKB940     -0.1918
     20  O4        36.3720   34.6070   32.1180 O.2   940  CKB940     -0.2088
@<TRIPOS>BOND
     1    19     1    2
     2     1     7    2
     3     1     6   am
     4     7     2    2
     5    12    13    1
     6    12    18    1
     7    12    11    1
     8     8    18    1
     9     8     6    1
    10     8     9    1
    11    17    11    1
    12    13    14    1
    13    10    11    1
    14    10     9    1
    15    10    16    1
    16    15     9    1
    17     6     4    1
    18     2    20    2
    19     2     3    1
    20     4     3    2
    21     3     5    1
