@<TRIPOS>MOLECULE
3bd7_PLP_A_1.pdb
 15 15 0 0 0
SMALL
GASTEIGER

@<TRIPOS>ATOM
      1  N1        24.6230   25.5740   30.2720 N.ar  999  PLP999     -0.2452
      2  C2        23.5040   24.8570   30.5050 C.ar  999  PLP999      0.0978
      3  C2A       22.5360   25.3380   31.5870 C.3   999  PLP999      0.0555
      4  C3        23.2780   23.6940   29.8010 C.ar  999  PLP999      0.2049
      5  O3        22.1490   22.9520   30.0580 O.3   999  PLP999     -0.2857
      6  C4        24.1890   23.2750   28.8460 C.ar  999  PLP999      0.0182
      7  C4A       23.8860   21.9740   28.0130 C.3   999  PLP999      0.0342
      8  C5        25.3440   24.0400   28.6350 C.ar  999  PLP999      0.0261
      9  C6        25.5390   25.1730   29.3590 C.ar  999  PLP999      0.0965
     10  C5A       26.3570   23.7520   27.5240 C.3   999  PLP999      0.1815
     11  O4P       25.8870   24.3990   26.3560 O.3   999  PLP999     -0.2653
     12  P         26.9000   24.6360   25.0990 P.3   999  PLP999      0.5329
     13  O1P       26.1620   25.4140   24.1470 O.2   999  PLP999     -0.2224
     14  O2P       28.0130   25.5240   25.6620 O.3   999  PLP999     -0.1145
     15  O3P       27.4790   23.3850   24.6710 O.3   999  PLP999     -0.1145
@<TRIPOS>BOND
     1    13    12    2
     2    15    12    1
     3    12    14    1
     4    12    11    1
     5    11    10    1
     6    10     8    1
     7     7     6    1
     8     8     6   ar
     9     8     9   ar
    10     6     4   ar
    11     9     1   ar
    12     4     5    1
    13     4     2   ar
    14     1     2   ar
    15     2     3    1
