@<TRIPOS>MOLECULE
3bd8_PLP_A_1.pdb
 15 15 0 0 0
SMALL
GASTEIGER

@<TRIPOS>ATOM
      1  N1        24.7120   25.6110   30.3000 N.ar  999  PLP999     -0.2452
      2  C2        23.5830   24.8990   30.5380 C.ar  999  PLP999      0.0978
      3  C2A       22.6480   25.3870   31.6340 C.3   999  PLP999      0.0555
      4  C3        23.3250   23.7490   29.8110 C.ar  999  PLP999      0.2049
      5  O3        22.1960   22.9850   30.0780 O.3   999  PLP999     -0.2857
      6  C4        24.2260   23.3450   28.8410 C.ar  999  PLP999      0.0182
      7  C4A       23.9030   22.1000   27.9440 C.3   999  PLP999      0.0342
      8  C5        25.3920   24.0960   28.6440 C.ar  999  PLP999      0.0261
      9  C6        25.6060   25.2070   29.3730 C.ar  999  PLP999      0.0965
     10  C5A       26.4280   23.7790   27.5370 C.3   999  PLP999      0.1815
     11  O4P       26.0230   24.4510   26.3400 O.3   999  PLP999     -0.2653
     12  P         26.9840   24.6890   25.0570 P.3   999  PLP999      0.5329
     13  O1P       26.2070   25.4900   24.0930 O.2   999  PLP999     -0.2224
     14  O2P       28.1160   25.5800   25.6320 O.3   999  PLP999     -0.1145
     15  O3P       27.5480   23.3930   24.6460 O.3   999  PLP999     -0.1145
@<TRIPOS>BOND
     1    13    12    2
     2    15    12    1
     3    12    14    1
     4    12    11    1
     5    11    10    1
     6    10     8    1
     7     7     6    1
     8     8     6   ar
     9     8     9   ar
    10     6     4   ar
    11     9     1   ar
    12     4     5    1
    13     4     2   ar
    14     1     2   ar
    15     2     3    1
