@<TRIPOS>MOLECULE
3bd8_C3B_A_1.pdb
 19 20 0 0 0
SMALL
GASTEIGER

@<TRIPOS>ATOM
      1  C1'       33.4550   22.9500   27.8320 C.3   998  C3B998      0.2400
      2  C2'       33.8310   23.1440   26.3260 C.3   998  C3B998      0.2320
      3  O2'       33.9840   24.5640   26.0260 O.3   998  C3B998     -0.2157
      4  C3'       32.6960   22.5150   25.4660 C.3   998  C3B998      0.2190
      5  O3'       32.9920   22.6440   24.0700 O.3   998  C3B998     -0.2174
      6  C4'       32.5780   21.0620   25.8230 C.3   998  C3B998      0.2144
      7  O4'       31.5330   20.4810   25.0540 O.3   998  C3B998     -0.2176
      8  C5'       32.2840   20.8830   27.3530 C.3   998  C3B998      0.1828
      9  O5'       33.2910   21.4960   28.2120 O.3   998  C3B998     -0.3318
     10  C6'       32.1820   19.3840   27.8330 C.3   998  C3B998      0.2142
     11  O6'       33.3230   18.6110   27.2760 O.3   998  C3B998     -0.2176
     12  N1        34.4270   23.4560   28.8030 N.am  998  C3B998     -0.1778
     13  C2        33.7860   24.0350   29.8880 C.1   998  C3B998      0.2756
     14  O2        32.5040   24.1370   30.0490 O.2   998  C3B998     -0.1925
     15  N3        34.5980   24.5710   30.9330 N.2   998  C3B998     -0.3024
     16  C4        35.9350   24.5510   30.9420 C.2   998  C3B998      0.2346
     17  N4        36.5990   25.0530   31.9380 N.pl3 998  C3B998     -0.0921
     18  C5        36.6760   23.9250   29.7650 C.2   998  C3B998      0.0687
     19  C6        35.8840   23.4030   28.7450 C.2   998  C3B998      0.0836
@<TRIPOS>BOND
     1     5     4    1
     2     7     6    1
     3     4     6    1
     4     4     2    1
     5     6     8    1
     6     3     2    1
     7     2     1    1
     8    11    10    1
     9     8    10    1
    10     8     9    1
    11     1     9    1
    12     1    12    1
    13    19    12    1
    14    19    18    2
    15    12    13   am
    16    18    16    1
    17    13    14    2
    18    13    15    2
    19    15    16    2
    20    16    17    1
