@<TRIPOS>MOLECULE
3bd9_A3P_A_1.pdb
 27 29 0 0 0
SMALL
GASTEIGER

@<TRIPOS>ATOM
      1  P1        -4.2020   12.7300   54.0300 P.3   347  A3P347      0.5327
      2  O1P       -4.2350   11.2790   54.5040 O.3   347  A3P347     -0.1145
      3  O2P       -3.6510   12.8690   52.6250 O.2   347  A3P347     -0.2224
      4  O3P       -5.5210   13.4560   54.2260 O.3   347  A3P347     -0.1145
      5  P2        -2.0650   18.5170   57.5350 P.3   347  A3P347      0.5327
      6  O4P       -0.6920   19.1350   57.6770 O.3   347  A3P347     -0.1145
      7  O5P       -2.8670   18.5240   58.8230 O.3   347  A3P347     -0.1145
      8  O6P       -2.8440   19.0900   56.3640 O.2   347  A3P347     -0.2224
      9  O5'       -1.8070   16.9460   57.1840 O.3   347  A3P347     -0.2675
     10  C5'       -2.9170   16.0410   57.0110 C.3   347  A3P347      0.1859
     11  C4'       -2.4230   14.6140   56.9650 C.3   347  A3P347      0.1796
     12  O4'       -2.2010   14.1240   58.2990 O.3   347  A3P347     -0.3136
     13  C3'       -3.3880   13.5910   56.3730 C.3   347  A3P347      0.1928
     14  O3'       -3.1400   13.4790   54.9750 O.3   347  A3P347     -0.2673
     15  C2'       -3.0630   12.2800   57.1150 C.3   347  A3P347      0.2543
     16  O2'       -2.4270   11.3290   56.2800 O.3   347  A3P347     -0.2131
     17  C1'       -2.0980   12.7280   58.2250 C.3   347  A3P347      0.3185
     18  N9        -2.3360   12.1660   59.5580 N.pl3 347  A3P347     -0.1439
     19  C8        -1.3820   11.7880   60.4760 C.3   347  A3P347      0.3377
     20  N7        -1.8790   11.3230   61.5970 N.2   347  A3P347     -0.2095
     21  C5        -3.2530   11.3970   61.4090 C.2   347  A3P347      0.2526
     22  C6        -4.3390   11.1290   62.2650 C.2   347  A3P347      0.4393
     23  N6        -4.2040   10.6310   63.4970 N.pl3 347  A3P347      0.2180
     24  N1        -5.5830   11.3940   61.8050 N.2   347  A3P347      0.0021
     25  C2        -5.7180   11.8920   60.5650 C.3   347  A3P347      0.5254
     26  N3        -4.7760   12.1810   59.6650 N.2   347  A3P347     -0.0055
     27  C4        -3.5500   11.9110   60.1550 C.2   347  A3P347      0.3518
@<TRIPOS>BOND
     1     3     1    2
     2     1     4    1
     3     1     2    1
     4     1    14    1
     5    14    13    1
     6    16    15    1
     7     8     5    2
     8    13    11    1
     9    13    15    1
    10    11    10    1
    11    11    12    1
    12    10     9    1
    13    15    17    1
    14     9     5    1
    15     5     6    1
    16     5     7    1
    17    17    12    1
    18    17    18    1
    19    18    27    1
    20    18    19    1
    21    26    27    2
    22    26    25    1
    23    27    21    1
    24    19    20    1
    25    25    24    1
    26    21    20    2
    27    21    22    1
    28    24    22    2
    29    22    23    1
