@<TRIPOS>MOLECULE
3bda_C4B_A_1.pdb
 20 21 0 0 0
SMALL
GASTEIGER

@<TRIPOS>ATOM
      1  C1'       39.8430   38.1750   29.7000 C.3   940  C4B940      0.2519
      2  C2'       39.6510   39.6860   30.0220 C.3   940  C4B940      0.2328
      3  O2'       38.2820   40.1160   29.7760 O.3   940  C4B940     -0.2157
      4  C3'       40.6920   40.4670   29.1350 C.3   940  C4B940      0.2190
      5  O3'       40.6000   41.9070   29.3850 O.3   940  C4B940     -0.2174
      6  C4'       42.1080   39.9690   29.4430 C.3   940  C4B940      0.2144
      7  O4'       43.0740   40.6570   28.6600 O.3   940  C4B940     -0.2176
      8  C5'       42.1900   38.4390   29.1700 C.3   940  C4B940      0.1828
      9  O5'       41.2130   37.6470   29.9310 O.3   940  C4B940     -0.3313
     10  C6'       43.6060   37.8230   29.4670 C.3   940  C4B940      0.2142
     11  O6'       44.1030   38.3190   30.7610 O.3   940  C4B940     -0.2176
     12  N1        38.9040   37.2850   30.5000 N.am  940  C4B940     -0.0934
     13  C2        38.3770   36.2190   29.7100 C.1   940  C4B940      0.2966
     14  O2        38.6660   36.0410   28.4840 O.2   940  C4B940     -0.1911
     15  N3        37.5270   35.3400   30.2790 N.2   940  C4B940     -0.2185
     16  C4        37.1410   35.4240   31.5910 C.1   940  C4B940      0.3775
     17  O4        36.3740   34.5970   32.0280 O.2   940  C4B940     -0.1737
     18  N5        37.6260   36.4370   32.3880 N.2   940  C4B940     -0.2185
     19  C6        38.4990   37.3840   31.9000 C.1   940  C4B940      0.2966
     20  O6        38.8720   38.2420   32.6940 O.2   940  C4B940     -0.1911
@<TRIPOS>BOND
     1    14    13    2
     2     7     6    1
     3     4     5    1
     4     4     6    1
     5     4     2    1
     6     8     6    1
     7     8    10    1
     8     8     9    1
     9    10    11    1
    10     1     9    1
    11     1     2    1
    12     1    12    1
    13    13    15    2
    14    13    12   am
    15     3     2    1
    16    15    16    2
    17    12    19   am
    18    16    17    2
    19    16    18    2
    20    19    18    2
    21    19    20    2
