@<TRIPOS>MOLECULE
3bda_PLP_A_1.pdb
 15 15 0 0 0
SMALL
GASTEIGER

@<TRIPOS>ATOM
      1  N1        24.7330   25.6150   30.3080 N.ar  999  PLP999     -0.2452
      2  C2        23.6180   24.8890   30.5700 C.ar  999  PLP999      0.0978
      3  C2A       22.7250   25.3370   31.7110 C.3   999  PLP999      0.0555
      4  C3        23.3520   23.7480   29.8420 C.ar  999  PLP999      0.2049
      5  O3        22.2040   23.0160   30.1170 O.3   999  PLP999     -0.2857
      6  C4        24.2490   23.3430   28.8470 C.ar  999  PLP999      0.0182
      7  C4A       23.9230   22.1060   27.9350 C.3   999  PLP999      0.0342
      8  C5        25.4010   24.1060   28.6230 C.ar  999  PLP999      0.0261
      9  C6        25.6090   25.2340   29.3560 C.ar  999  PLP999      0.0965
     10  C5A       26.4310   23.7980   27.4860 C.3   999  PLP999      0.1815
     11  O4P       26.0200   24.5320   26.3270 O.3   999  PLP999     -0.2653
     12  P         27.0270   24.7370   25.0630 P.3   999  PLP999      0.5329
     13  O1P       26.2550   25.5380   24.1010 O.2   999  PLP999     -0.2224
     14  O2P       28.1430   25.6300   25.6810 O.3   999  PLP999     -0.1145
     15  O3P       27.6170   23.4390   24.6690 O.3   999  PLP999     -0.1145
@<TRIPOS>BOND
     1    13    12    2
     2    15    12    1
     3    12    14    1
     4    12    11    1
     5    11    10    1
     6    10     8    1
     7     7     6    1
     8     8     6   ar
     9     8     9   ar
    10     6     4   ar
    11     9     1   ar
    12     4     5    1
    13     4     2   ar
    14     1     2   ar
    15     2     3    1
