@<TRIPOS>MOLECULE
3bdc_THP_A_1.pdb
 25 26 0 0 0
SMALL
GASTEIGER

@<TRIPOS>ATOM
      1  P2        17.9510   11.2170    4.3180 P.3   151  THP151      0.5327
      2  O4P       16.7570   11.9980    4.8300 O.3   151  THP151     -0.1145
      3  O5P       18.0310    9.7550    4.7040 O.3   151  THP151     -0.1145
      4  O6P       19.2180   11.9330    4.6490 O.2   151  THP151     -0.2224
      5  P1        21.2060   14.5590    0.3370 P.3   151  THP151      0.5326
      6  O1P       22.1200   15.1490   -0.7140 O.2   151  THP151     -0.2224
      7  O2P       21.9510   13.4950    1.0860 O.3   151  THP151     -0.1145
      8  O3P       20.5460   15.4510    1.3620 O.3   151  THP151     -0.1145
      9  O5'       17.8280   11.3010    2.7020 O.3   151  THP151     -0.2675
     10  C5'       18.0630   12.5600    2.0640 C.3   151  THP151      0.1857
     11  C4'       18.9470   12.3560    0.8460 C.3   151  THP151      0.1748
     12  O4'       18.5560   11.1710    0.1670 O.3   151  THP151     -0.3340
     13  C3'       18.7860   13.5190   -0.1390 C.3   151  THP151      0.1600
     14  O3'       20.0840   13.9410   -0.6540 O.3   151  THP151     -0.2700
     15  C2'       17.9070   12.9790   -1.2450 C.3   151  THP151      0.0847
     16  C1'       18.0920   11.4620   -1.1730 C.3   151  THP151      0.2089
     17  N1        16.8040   10.8730   -1.4780 N.am  151  THP151     -0.1794
     18  C2        16.4850   10.6220   -2.8440 C.1   151  THP151      0.2844
     19  O2        17.3240   10.8760   -3.7550 O.2   151  THP151     -0.1918
     20  N3        15.3050   10.0950   -3.1990 N.2   151  THP151     -0.2455
     21  C4        14.3680    9.7960   -2.2760 C.1   151  THP151      0.2134
     22  O4        13.3220    9.2990   -2.7110 O.2   151  THP151     -0.2088
     23  C5        14.6520   10.0440   -0.8380 C.2   151  THP151      0.0891
     24  C5M       13.6340    9.7620    0.2440 C.3   151  THP151      0.0462
     25  C6        15.8850   10.5990   -0.5050 C.2   151  THP151      0.0877
@<TRIPOS>BOND
     1    19    18    2
     2    20    18    2
     3    20    21    2
     4    18    17   am
     5    22    21    2
     6    21    23    1
     7    17    16    1
     8    17    25    1
     9    15    16    1
    10    15    13    1
    11    16    12    1
    12    23    25    2
    13    23    24    1
    14     6     5    2
    15    14    13    1
    16    14     5    1
    17    13    11    1
    18    12    11    1
    19     5     7    1
    20     5     8    1
    21    11    10    1
    22    10     9    1
    23     9     1    1
    24     1     4    2
    25     1     3    1
    26     1     2    1
