@<TRIPOS>MOLECULE
3bdj_141_A_1.pdb
 11 12 0 0 0
SMALL
GASTEIGER

@<TRIPOS>ATOM
      1  O6        96.2670   45.9300  110.6040 O.2   5101  1415101    -0.2119
      2  C6        95.7790   46.5590  111.5240 C.1   5101  1415101     0.2137
      3  C5        96.3770   46.6770  112.8480 C.3   5101  1415101     0.2602
      4  C7        97.5540   46.1540  113.3690 C.2   5101  1415101     0.1303
      5  N8        97.5850   46.5780  114.6080 N.2   5101  1415101    -0.1394
      6  N9        96.5140   47.3530  114.9570 N.2   5101  1415101    -0.0840
      7  C4        95.7320   47.4190  113.8200 C.1   5101  1415101     0.1205
      8  N3        94.5430   48.1000  113.7180 N.2   5101  1415101    -0.2543
      9  O2        92.8670   48.5710  112.2410 O.2   5101  1415101    -0.1738
     10  C2        93.9430   48.0080  112.4680 C.1   5101  1415101     0.3738
     11  N1        94.5680   47.2610  111.4440 N.2   5101  1415101    -0.2351
@<TRIPOS>BOND
     1     1     2    2
     2    11     2    2
     3    11    10    2
     4     2     3    1
     5     9    10    2
     6    10     8    2
     7     3     4    1
     8     3     7    1
     9     4     5    2
    10     8     7    2
    11     7     6    2
    12     5     6    1
