@<TRIPOS>MOLECULE
3bdk_DNO_A_1.pdb
 12 11 0 0 0
SMALL
GASTEIGER

@<TRIPOS>ATOM
      1  C1        23.6520   -1.1720   -1.0790 C.2   387  DNO387      0.2427
      2  C2        22.4760   -1.7850   -0.3010 C.3   387  DNO387      0.2486
      3  C3        21.3600   -0.7730    0.1090 C.3   387  DNO387      0.2225
      4  C4        21.6850    0.5090    0.9430 C.3   387  DNO387      0.2179
      5  C5        22.7400    0.4340    2.0880 C.3   387  DNO387      0.2175
      6  C6        22.4090    1.4770    3.1630 C.3   387  DNO387      0.2175
      7  O1        24.4830   -1.8970   -1.6290 O.2   387  DNO387     -0.2854
      8  O2        22.9590   -2.5350    0.8280 O.3   387  DNO387     -0.2118
      9  O3        20.3550   -1.4850    0.8250 O.3   387  DNO387     -0.2171
     10  O4        21.9760    1.5940    0.0520 O.3   387  DNO387     -0.2175
     11  O5        22.8120   -0.8520    2.7240 O.3   387  DNO387     -0.2175
     12  O6        23.1920    2.6530    2.9400 O.3   387  DNO387     -0.2175
@<TRIPOS>BOND
     1     7     1    2
     2     1     2    1
     3     2     3    1
     4     2     8    1
     5    10     4    1
     6     3     9    1
     7     3     4    1
     8     4     5    1
     9     5    11    1
    10     5     6    1
    11    12     6    1
