@<TRIPOS>MOLECULE
3bdl_CIT_A_1.pdb
 13 12 0 0 0
SMALL
GASTEIGER

@<TRIPOS>ATOM
      1  C1        -5.5420  -15.0230  -15.8920 C.2   2000  CIT2000     0.3680
      2  O1        -5.1370  -14.6240  -16.9590 O.co2 2000  CIT2000    -0.2455
      3  O2        -5.2460  -14.3500  -14.7690 O.co2 2000  CIT2000    -0.2455
      4  C2        -6.3880  -16.2810  -15.8190 C.3   2000  CIT2000     0.1560
      5  C3        -7.8960  -15.9350  -15.6930 C.3   2000  CIT2000     0.2402
      6  O7        -8.2610  -14.9950  -16.7100 O.3   2000  CIT2000    -0.2129
      7  C4        -8.7610  -17.2190  -15.8230 C.3   2000  CIT2000     0.1560
      8  C5        -8.7250  -17.8170  -17.2150 C.2   2000  CIT2000     0.3680
      9  O3        -9.6140  -17.5820  -18.0000 O.co2 2000  CIT2000    -0.2455
     10  O4        -7.7110  -18.6200  -17.5720 O.co2 2000  CIT2000    -0.2455
     11  C6        -8.1710  -15.3260  -14.3310 C.2   2000  CIT2000     0.3927
     12  O5        -8.6490  -14.2150  -14.2450 O.co2 2000  CIT2000    -0.2429
     13  O6        -7.8780  -16.0210  -13.2120 O.co2 2000  CIT2000    -0.2429
@<TRIPOS>BOND
     1     9     8   ar
     2    10     8   ar
     3     8     7    1
     4     2     1   ar
     5     6     5    1
     6     1     4    1
     7     1     3   ar
     8     7     5    1
     9     4     5    1
    10     5    11    1
    11    11    12   ar
    12    11    13   ar
