@<TRIPOS>MOLECULE
3bdm_GDT_H_1.pdb
 37 37 0 0 0
SMALL
GASTEIGER

@<TRIPOS>ATOM
      1  C1        57.3890 -133.4450   34.3850 C.2   500  GDT500      0.0595
      2  C2        56.0660 -133.7940   34.4680 C.2   500  GDT500      0.0044
      3  C3        55.0740 -132.9730   33.7510 C.2   500  GDT500     -0.0044
      4  C4        53.7270 -133.1660   33.6920 C.2   500  GDT500     -0.0261
      5  C5        52.9140 -132.2060   32.8400 C.3   500  GDT500      0.0260
      6  C6        51.5090 -132.6700   32.4770 C.3   500  GDT500      0.0047
      7  O37       58.1680 -135.2220   35.6780 O.2   500  GDT500     -0.2684
      8  C12       58.4890 -134.1990   35.0230 C.2   500  GDT500      0.2654
      9  N13       59.8110 -133.8120   34.8840 N.am  500  GDT500     -0.1913
     10  C14       60.9130 -134.6400   35.5050 C.3   500  GDT500      0.2031
     11  C34       62.3840 -134.2130   35.1270 C.3   500  GDT500      0.1808
     12  C36       62.5710 -134.0070   33.6120 C.3   500  GDT500      0.0379
     13  O35       62.7610 -133.0290   35.8560 O.3   500  GDT500     -0.2208
     14  C15       60.7180 -134.8090   37.0440 C.2   500  GDT500      0.2648
     15  O33       60.2870 -133.8800   37.7100 O.2   500  GDT500     -0.2714
     16  N16       61.0030 -135.9960   37.5620 N.am  500  GDT500     -0.1886
     17  C17       60.8190 -136.2500   38.9540 C.3   500  GDT500      0.2026
     18  C31       62.0950 -136.0140   39.7670 C.1   500  GDT500      0.1457
     19  O32       63.2030 -136.3250   39.2590 O.2   500  GDT500     -0.2253
     20  N30       61.9680 -135.5950   41.0820 N.2   500  GDT500     -0.2069
     21  C28       63.1360 -135.5280   41.9610 C.3   500  GDT500      0.1157
     22  C29       63.4350 -134.0540   42.3490 C.3   500  GDT500      0.0272
     23  C27       62.8230 -136.3760   43.1910 C.3   500  GDT500      0.0428
     24  C26       62.4620 -137.8720   42.8260 C.3   500  GDT500      0.1237
     25  C24       61.1490 -138.2900   43.4600 C.1   500  GDT500      0.1261
     26  O25       60.8390 -137.7120   44.5190 O.2   500  GDT500     -0.2270
     27  N23       60.3030 -139.2230   42.9640 N.2   500  GDT500     -0.2062
     28  C22       60.4640 -140.0020   41.7490 C.3   500  GDT500      0.1402
     29  C21       59.4790 -139.5090   40.6700 C.3   500  GDT500      0.0601
     30  C19       59.5330 -138.0040   40.3930 C.3   500  GDT500      0.1569
     31  O20       58.2040 -137.5790   40.1460 O.3   500  GDT500     -0.2230
     32  C18       60.3910 -137.7200   39.1570 C.3   500  GDT500      0.0716
     33  C7        50.4280 -131.7790   33.1580 C.3   500  GDT500      0.0003
     34  C8        48.9490 -132.1510   32.8610 C.3   500  GDT500      0.0000
     35  C9        48.0740 -131.1190   33.6610 C.3   500  GDT500      0.0000
     36  C10       46.5240 -131.3530   33.4290 C.3   500  GDT500      0.0000
     37  C11       45.7300 -130.2470   34.2730 C.3   500  GDT500      0.0000
@<TRIPOS>BOND
     1     6     5    1
     2     6    33    1
     3     5     4    1
     4    34    33    1
     5    34    35    1
     6    36    35    1
     7    36    37    1
     8    12    11    1
     9     4     3    2
    10     3     2    1
    11     1     2    2
    12     1     8    1
    13     9     8   am
    14     9    10    1
    15     8     7    2
    16    11    10    1
    17    11    13    1
    18    10    14    1
    19    14    16   am
    20    14    15    2
    21    16    17    1
    22    17    32    1
    23    17    18    1
    24    32    30    1
    25    19    18    2
    26    18    20    2
    27    31    30    1
    28    30    29    1
    29    29    28    1
    30    20    21    1
    31    28    27    1
    32    21    22    1
    33    21    23    1
    34    24    23    1
    35    24    25    1
    36    27    25    2
    37    25    26    2
