@<TRIPOS>MOLECULE
3bdz_HEM_A_1.pdb
 43 50 0 0 0
SMALL
GASTEIGER

@<TRIPOS>ATOM
      1 FE         13.0980   -4.8050   45.5730 Fe    450  HEM450      0.0000
      2  CHA       13.5570   -4.9340   48.9440 C.2   450  HEM450      0.0000
      3  CHB       13.5270   -1.4400   45.6200 C.2   450  HEM450      0.0000
      4  CHC       12.5050   -4.6920   42.2510 C.2   450  HEM450      0.0000
      5  CHD       12.2420   -8.0970   45.6080 C.2   450  HEM450      0.0000
      6  NA        13.5680   -3.4750   46.9620 N.ar  450  HEM450      0.0000
      7  C1A       13.8310   -3.7400   48.2850 C.ar  450  HEM450      0.0000
      8  C2A       14.2860   -2.5680   48.9650 C.ar  450  HEM450      0.0000
      9  C3A       14.1380   -1.5430   48.0500 C.ar  450  HEM450      0.0000
     10  C4A       13.7140   -2.1420   46.8180 C.ar  450  HEM450      0.0000
     11  CMA       14.3010   -0.0520   48.2860 C.3   450  HEM450      0.0000
     12  CAA       14.7620   -2.4690   50.4370 C.3   450  HEM450      0.0000
     13  CBA       13.6370   -2.0980   51.3460 C.3   450  HEM450      0.0000
     14  CGA       14.1370   -1.7920   52.7460 C.2   450  HEM450      0.0000
     15  O1A       15.1710   -1.1350   52.8900 O.co2 450  HEM450      0.0000
     16  O2A       13.4960   -2.1870   53.7060 O.co2 450  HEM450      0.0000
     17  NB        12.9350   -3.3240   44.2600 N.2   450  HEM450      0.0000
     18  C1B       13.1920   -2.0330   44.4170 C.2   450  HEM450      0.0000
     19  C2B       13.1650   -1.3060   43.1030 C.2   450  HEM450      0.0000
     20  C3B       12.9150   -2.2510   42.1320 C.2   450  HEM450      0.0000
     21  C4B       12.6960   -3.4790   42.9020 C.2   450  HEM450      0.0000
     22  CMB       13.4250    0.2250   42.8960 C.3   450  HEM450      0.0000
     23  CAB       12.7870   -2.1530   40.7220 C.2   450  HEM450      0.0000
     24  CBB       12.8090   -0.9800   40.0280 C.2   450  HEM450      0.0000
     25  NC        12.5720   -6.1170   44.1850 N.ar  450  HEM450      0.0000
     26  C1C       12.5680   -5.9360   42.8350 C.ar  450  HEM450      0.0000
     27  C2C       12.3680   -7.2120   42.0820 C.ar  450  HEM450      0.0000
     28  C3C       12.0780   -8.0860   43.0560 C.ar  450  HEM450      0.0000
     29  C4C       12.2520   -7.4360   44.3450 C.ar  450  HEM450      0.0000
     30  CMC       12.5610   -7.4000   40.5860 C.3   450  HEM450      0.0000
     31  CAC       11.4130   -9.2750   42.8710 C.2   450  HEM450      0.0000
     32  CBC       12.0330  -10.3860   43.2020 C.2   450  HEM450      0.0000
     33  ND        12.9270   -6.2060   46.9850 N.2   450  HEM450      0.0000
     34  C1D       12.5640   -7.5160   46.8270 C.2   450  HEM450      0.0000
     35  C2D       12.6410   -8.2250   48.0790 C.2   450  HEM450      0.0000
     36  C3D       12.9880   -7.3700   49.0300 C.2   450  HEM450      0.0000
     37  C4D       13.1210   -6.0770   48.3510 C.2   450  HEM450      0.0000
     38  CMD       12.1630   -9.6530   48.2150 C.3   450  HEM450      0.0000
     39  CAD       13.0690   -7.6510   50.5490 C.3   450  HEM450      0.0000
     40  CBD       14.5420   -7.7310   50.8840 C.3   450  HEM450      0.0000
     41  CGD       14.8240   -7.9190   52.3760 C.2   450  HEM450      0.0000
     42  O1D       15.8270   -8.5710   52.7160 O.co2 450  HEM450      0.0000
     43  O2D       14.0610   -7.4260   53.2160 O.co2 450  HEM450      0.0000
@<TRIPOS>BOND
     1    24    23    2
     2    30    27    1
     3    23    20    1
     4    27    26   ar
     5    27    28   ar
     6    20    21    1
     7    20    19    2
     8     4    26    1
     9     4    21    2
    10    26    25   ar
    11    31    28    1
    12    31    32    2
    13    22    19    1
    14    21    17    1
    15    28    29   ar
    16    19    18    1
    17    25    29   ar
    18    25     1    1
    19    17    18    2
    20    17     1    1
    21    29     5    1
    22    18     3    1
    23     1     6    1
    24     1    33    1
    25     5    34    2
    26     3    10    2
    27    10     6   ar
    28    10     9   ar
    29    34    33    1
    30    34    35    1
    31     6     7   ar
    32    33    37    2
    33     9    11    1
    34     9     8   ar
    35    35    38    1
    36    35    36    2
    37     7     2    2
    38     7     8   ar
    39    37     2    1
    40    37    36    1
    41     8    12    1
    42    36    39    1
    43    12    13    1
    44    39    40    1
    45    40    41    1
    46    13    14    1
    47    41    42   ar
    48    41    43   ar
    49    14    15   ar
    50    14    16   ar
