@<TRIPOS>MOLECULE
3be0_CNL_A_1.pdb
 11 12 0 0 0
SMALL
GASTEIGER

@<TRIPOS>ATOM
      1  C1         9.4570  -20.1130   -1.3790 C.3   500  CNL500      0.0926
      2  C2        10.4840  -19.7550   -0.2270 C.3   500  CNL500      0.0273
      3  C3        11.3990  -21.0200    0.1420 C.3   500  CNL500      0.0047
      4  C4        10.9830  -22.2780   -0.7400 C.3   500  CNL500      0.0251
      5  C5        11.2280  -21.8460   -2.2630 C.3   500  CNL500      0.0047
      6  C6        10.3180  -20.5820   -2.6410 C.3   500  CNL500      0.0273
      7  C7         8.5580  -18.9060   -1.7320 C.3   500  CNL500      0.0296
      8  C8         9.4180  -22.5510   -0.5110 C.3   500  CNL500      0.0926
      9  C9         9.0550  -22.9440    0.9440 C.3   500  CNL500      0.0296
     10  C10        8.8620  -23.7230   -1.3450 C.3   500  CNL500      0.0296
     11  O          8.6620  -21.2980   -0.8890 O.3   500  CNL500     -0.3633
@<TRIPOS>BOND
     1     6     5    1
     2     6     1    1
     3     5     4    1
     4     7     1    1
     5     1    11    1
     6     1     2    1
     7    10     8    1
     8    11     8    1
     9     4     8    1
    10     4     3    1
    11     8     9    1
    12     2     3    1
