@<TRIPOS>MOLECULE
3be0_HEM_A_1.pdb
 43 50 0 0 0
SMALL
GASTEIGER

@<TRIPOS>ATOM
      1 FE         11.8240  -16.6040   -2.9560 Fe    450  HEM450      0.0000
      2  CHA       14.4170  -18.8390   -2.6520 C.2   450  HEM450      0.0000
      3  CHB       11.6960  -16.2720    0.4260 C.2   450  HEM450      0.0000
      4  CHC        9.5000  -14.1190   -3.3260 C.2   450  HEM450      0.0000
      5  CHD       11.6810  -17.1650   -6.2890 C.2   450  HEM450      0.0000
      6  NA        12.9300  -17.2540   -1.4670 N.2   450  HEM450      0.0000
      7  C1A       13.9810  -18.1570   -1.5050 C.2   450  HEM450      0.0000
      8  C2A       14.4340  -18.4770   -0.1820 C.2   450  HEM450      0.0000
      9  C3A       13.6220  -17.8600    0.6570 C.2   450  HEM450      0.0000
     10  C4A       12.7150  -17.0660   -0.1190 C.2   450  HEM450      0.0000
     11  CMA       13.6450  -17.9680    2.1500 C.3   450  HEM450      0.0000
     12  CAA       15.7370  -19.1880    0.1290 C.3   450  HEM450      0.0000
     13  CBA       15.6730  -20.5500    0.8110 C.3   450  HEM450      0.0000
     14  CGA       17.0320  -21.2130    0.9080 C.2   450  HEM450      0.0000
     15  O1A       18.0340  -20.5030    1.1520 O.co2 450  HEM450      0.0000
     16  O2A       17.0930  -22.4430    0.7490 O.co2 450  HEM450      0.0000
     17  NB        10.7280  -15.5230   -1.7150 N.ar  450  HEM450      0.0000
     18  C1B       10.7810  -15.5120   -0.3300 C.ar  450  HEM450      0.0000
     19  C2B        9.9300  -14.4730    0.2250 C.ar  450  HEM450      0.0000
     20  C3B        9.2530  -13.9240   -0.8280 C.ar  450  HEM450      0.0000
     21  C4B        9.7820  -14.5580   -2.0210 C.ar  450  HEM450      0.0000
     22  CMB        9.9430  -14.0250    1.6880 C.3   450  HEM450      0.0000
     23  CAB        8.1430  -13.0750   -0.8260 C.2   450  HEM450      0.0000
     24  CBB        7.9780  -11.9320   -0.1110 C.2   450  HEM450      0.0000
     25  NC        10.9820  -15.6570   -4.5020 N.2   450  HEM450      0.0000
     26  C1C       10.1100  -14.5860   -4.4840 C.2   450  HEM450      0.0000
     27  C2C        9.6840  -14.1930   -5.8030 C.2   450  HEM450      0.0000
     28  C3C       10.1420  -15.1600   -6.6070 C.2   450  HEM450      0.0000
     29  C4C       11.0100  -16.0160   -5.8240 C.2   450  HEM450      0.0000
     30  CMC        8.9650  -12.9050   -6.2250 C.3   450  HEM450      0.0000
     31  CAC        9.6020  -15.4450   -7.8510 C.2   450  HEM450      0.0000
     32  CBC       10.0220  -14.9420   -9.0450 C.2   450  HEM450      0.0000
     33  ND        12.7620  -17.8340   -4.1790 N.ar  450  HEM450      0.0000
     34  C1D       12.4760  -18.0460   -5.5060 C.ar  450  HEM450      0.0000
     35  C2D       13.2550  -19.1570   -6.0120 C.ar  450  HEM450      0.0000
     36  C3D       14.0930  -19.5600   -5.0530 C.ar  450  HEM450      0.0000
     37  C4D       13.8060  -18.7270   -3.9080 C.ar  450  HEM450      0.0000
     38  CMD       13.0360  -19.8430   -7.3470 C.3   450  HEM450      0.0000
     39  CAD       14.9850  -20.7740   -5.1560 C.3   450  HEM450      0.0000
     40  CBD       16.3140  -20.4990   -5.8200 C.3   450  HEM450      0.0000
     41  CGD       17.4150  -20.2020   -4.8300 C.2   450  HEM450      0.0000
     42  O1D       17.2360  -19.2970   -3.9870 O.co2 450  HEM450      0.0000
     43  O2D       18.4630  -20.8730   -4.9000 O.co2 450  HEM450      0.0000
@<TRIPOS>BOND
     1    32    31    2
     2    31    28    1
     3    38    35    1
     4    28    29    1
     5    28    27    2
     6     5    29    1
     7     5    34    2
     8    30    27    1
     9    35    34   ar
    10    35    36   ar
    11    29    25    2
    12    40    39    1
    13    40    41    1
    14    27    26    1
    15    34    33   ar
    16    39    36    1
    17    36    37   ar
    18    43    41   ar
    19    41    42   ar
    20    25    26    1
    21    25     1    1
    22    26     4    2
    23    33    37   ar
    24    33     1    1
    25    37     2    2
    26     4    21    1
    27     1    17    1
    28     1     6    1
    29     2     7    1
    30    21    17   ar
    31    21    20   ar
    32    17    18   ar
    33     7     6    2
    34     7     8    1
    35     6    10    1
    36    20    23    1
    37    20    19   ar
    38    23    24    2
    39    18    19   ar
    40    18     3    1
    41     8    12    1
    42     8     9    2
    43    10     3    2
    44    10     9    1
    45    12    13    1
    46    19    22    1
    47     9    11    1
    48    16    14   ar
    49    13    14    1
    50    14    15   ar
