@<TRIPOS>MOLECULE
3be2_RAJ_A_1.pdb
 39 42 0 0 0
SMALL
GASTEIGER

@<TRIPOS>ATOM
      1  C28       37.7300   40.0880   15.3620 C.3   501  RAJ501      0.0897
      2  N6        37.5900   38.7530   15.9600 N.3   501  RAJ501     -0.2703
      3  C29       38.3070   37.7500   15.1510 C.3   501  RAJ501      0.0897
      4  C27       36.1470   38.4420   16.0550 C.3   501  RAJ501      0.0725
      5  C26       35.9280   37.3790   17.1150 C.3   501  RAJ501      0.0220
      6  C25       34.4720   36.9410   17.1690 C.3   501  RAJ501      0.0278
      7  C20       34.0630   36.1550   15.9320 C.ar  501  RAJ501     -0.0209
      8  C19       34.9740   35.2590   15.2700 C.ar  501  RAJ501      0.0123
      9  C21       32.7310   36.3350   15.4060 C.ar  501  RAJ501     -0.0003
     10  C22       32.2910   35.6300   14.2170 C.ar  501  RAJ501      0.0724
     11  C24       30.8600   35.8160   13.6230 C.3   501  RAJ501      0.4186
     12  F2        30.7630   36.9920   13.0440 F     501  RAJ501     -0.1659
     13  F3        29.9520   35.7200   14.5600 F     501  RAJ501     -0.1659
     14  F1        30.5610   34.9300   12.7110 F     501  RAJ501     -0.1659
     15  C23       33.2460   34.7470   13.5930 C.ar  501  RAJ501      0.0204
     16  C18       34.5720   34.5490   14.0960 C.ar  501  RAJ501      0.0733
     17  N5        35.4630   33.6860   13.4890 N.am  501  RAJ501     -0.1755
     18  C17       35.4810   33.4210   12.1550 C.2   501  RAJ501      0.2690
     19  O1        34.7740   33.9910   11.3270 O.2   501  RAJ501     -0.2680
     20  C12       36.4170   32.3760   11.7510 C.ar  501  RAJ501      0.0567
     21  C11       36.5400   32.1320   10.3360 C.ar  501  RAJ501      0.0208
     22  C13       37.1270   31.6410   12.7620 C.ar  501  RAJ501      0.0043
     23  C14       38.0250   30.5840   12.3700 C.ar  501  RAJ501     -0.0028
     24  C15       38.1470   30.3380   10.9700 C.ar  501  RAJ501     -0.0065
     25  C16       39.0620   29.2380   10.5240 C.3   501  RAJ501      0.0324
     26  C10       37.4400   31.0750    9.9690 C.ar  501  RAJ501      0.0683
     27  N4        37.6310   30.7570    8.6530 N.pl3 501  RAJ501     -0.1944
     28  C9        38.4860   31.4120    7.8070 C.ar  501  RAJ501      0.1531
     29  N3        39.3130   32.3920    8.3640 N.ar  501  RAJ501     -0.2273
     30  C8        40.2340   33.1760    7.7000 C.ar  501  RAJ501      0.1004
     31  C7        40.3430   32.9470    6.2880 C.ar  501  RAJ501      0.0208
     32  C6        39.5100   31.9450    5.6730 C.ar  501  RAJ501      0.0059
     33  C5        38.5350   31.1210    6.3920 C.ar  501  RAJ501      0.0511
     34  C3        37.6600   30.0880    5.7080 C.ar  501  RAJ501      0.0873
     35  C2        37.7120   29.7890    4.2760 C.ar  501  RAJ501      0.0399
     36  C1        36.8000   28.7880    3.8300 C.ar  501  RAJ501      0.1022
     37  N2        35.9330   28.1540    4.6950 N.ar  501  RAJ501     -0.2224
     38  C4        35.8620   28.4120    6.0340 C.ar  501  RAJ501      0.1989
     39  N1        36.7220   29.3650    6.5070 N.ar  501  RAJ501     -0.2239
@<TRIPOS>BOND
     1    36    35   ar
     2    36    37   ar
     3    35    34   ar
     4    37    38   ar
     5    32    31   ar
     6    32    33   ar
     7    34    33    1
     8    34    39   ar
     9    38    39   ar
    10    31    30   ar
    11    33    28   ar
    12    30    29   ar
    13    28    29   ar
    14    28    27    1
    15    27    26    1
    16    26    21   ar
    17    26    24   ar
    18    21    20   ar
    19    25    24    1
    20    24    23   ar
    21    19    18    2
    22    20    18    1
    23    20    22   ar
    24    18    17   am
    25    23    22   ar
    26    14    11    1
    27    12    11    1
    28    17    16    1
    29    15    16   ar
    30    15    10   ar
    31    11    10    1
    32    11    13    1
    33    16     8   ar
    34    10     9   ar
    35     3     2    1
    36     8     7   ar
    37     1     2    1
    38     9     7   ar
    39     7     6    1
    40     2     4    1
    41     4     5    1
    42     5     6    1
