@<TRIPOS>MOLECULE
3be7_ARG_A_1.pdb
 12 11 0 0 0
SMALL
GASTEIGER

@<TRIPOS>ATOM
      1  N         52.1950  -27.2140   -4.4040 N.3   501  ARG501     -0.1208
      2  CA        52.2830  -27.1150   -2.9210 C.3   501  ARG501      0.1944
      3  C         52.2910  -25.6570   -2.4960 C.2   501  ARG501      0.3819
      4  O         51.6620  -25.2900   -1.5050 O.co2 501  ARG501     -0.2441
      5  CB        53.5450  -27.8080   -2.4060 C.3   501  ARG501      0.0343
      6  CG        53.6420  -27.8990   -0.8930 C.3   501  ARG501      0.0490
      7  CD        54.8030  -28.7720   -0.4920 C.3   501  ARG501      0.2205
      8  NE        55.0740  -28.7140    0.9420 N.pl3 501  ARG501     -0.0865
      9  CZ        54.6080  -29.5810    1.8360 C.cat 501  ARG501      0.5346
     10  NH1       53.8310  -30.5890    1.4570 N.pl3 501  ARG501      0.1354
     11  NH2       54.9210  -29.4390    3.1140 N.pl3 501  ARG501      0.1354
     12  OXT       52.9420  -24.8260   -3.1290 O.co2 501  ARG501     -0.2441
@<TRIPOS>BOND
     1     1     2    1
     2    12     3   ar
     3     2     3    1
     4     2     5    1
     5     3     4   ar
     6     5     6    1
     7     6     7    1
     8     7     8    1
     9     8     9    2
    10    10     9    1
    11     9    11    1
