@<TRIPOS>MOLECULE
3be9_P04_A_1.pdb
 27 31 0 0 0
SMALL
GASTEIGER

@<TRIPOS>ATOM
      1  N01       19.8520    9.7850   20.2670 N.2   501  P04501     -0.1714
      2  C02       20.0680   10.1140   18.9670 C.2   501  P04501      0.1001
      3  C03       21.0430    9.2650   18.4140 C.3   501  P04501      0.1129
      4  C04       21.4070    8.3690   19.4940 C.2   501  P04501      0.2061
      5  N05       20.6640    8.7370   20.5790 N.pl3 501  P04501     -0.1226
      6  N06       22.2670    7.3390   19.6120 N.2   501  P04501     -0.3020
      7  C07       22.3540    6.7320   20.7960 C.1   501  P04501      0.2952
      8  N08       21.6370    7.0920   21.8580 N.2   501  P04501     -0.2805
      9  C09       20.7880    8.1060   21.7270 C.cat 501  P04501      0.2961
     10  N10       20.0240    8.5140   22.7680 N.pl3 501  P04501     -0.1960
     11  C11       20.1020    7.7880   24.0350 C.3   501  P04501      0.0965
     12  C12       21.1270    8.4590   24.9540 C.3   501  P04501      0.0235
     13  C13       19.6250    8.6740   25.1890 C.3   501  P04501      0.0235
     14  N17       23.1880    5.6780   21.0220 N.2   501  P04501     -0.3233
     15  C18       23.9800    4.9910   20.1530 C.2   501  P04501      0.1129
     16  C19       24.1130    5.3020   18.7990 C.3   501  P04501      0.1156
     17  C20       24.9290    4.5710   17.9370 C.2   501  P04501      0.1281
     18  C21       25.6290    3.4900   18.4670 C.2   501  P04501      0.0248
     19  C22       25.5220    3.1510   19.8160 C.2   501  P04501     -0.0167
     20  C23       24.6980    3.9050   20.6500 C.3   501  P04501      0.0819
     21  N27       25.0850    4.8270   16.6100 N.2   501  P04501     -0.3404
     22  C28       25.0230    5.9710   15.8930 C.1   501  P04501      0.1798
     23  O29       25.1020    5.9790   14.6700 O.2   501  P04501     -0.2142
     24  C30       24.8560    7.3170   16.5840 C.3   501  P04501      0.1348
     25  C31       23.3670    7.6750   16.5960 C.3   501  P04501      0.0188
     26  C32       23.0690    9.1300   16.9560 C.3   501  P04501      0.0021
     27  C33       21.5600    9.3760   16.9990 C.3   501  P04501      0.0146
@<TRIPOS>BOND
     1    23    22    2
     2    22    24    1
     3    22    21    2
     4    24    25    1
     5    25    26    1
     6    21    17    2
     7    26    27    1
     8    27     3    1
     9    17    18    1
    10    17    16    1
    11     3     2    1
    12     3     4    1
    13    18    19    2
    14    16    15    1
    15     2     1    2
    16     4     6    2
    17     4     5    1
    18     6     7    2
    19    19    20    1
    20    15    20    1
    21    15    14    2
    22     1     5    1
    23     5     9    1
    24     7    14    2
    25     7     8    2
    26     9     8    2
    27     9    10    1
    28    10    11    1
    29    11    12    1
    30    11    13    1
    31    12    13    1
