@<TRIPOS>MOLECULE
3bea_IXH_A_1.pdb
 38 43 0 0 0
SMALL
GASTEIGER

@<TRIPOS>ATOM
      1  C1        -0.5690   33.6610    5.6790 C.3   923  IXH923      0.0206
      2  C2         0.3430   33.7460    6.8970 C.3   923  IXH923      0.0925
      3  C3         1.4550   32.6540    6.8310 C.3   923  IXH923      0.1081
      4  C4         2.9600   34.1300    8.1160 C.3   923  IXH923      0.1081
      5  C5         1.8420   35.2100    8.1720 C.3   923  IXH923      0.0925
      6  C6         2.4490   36.6100    8.2460 C.3   923  IXH923      0.0206
      7  C7         3.2600   31.7420    8.2360 C.ar  923  IXH923      0.0480
      8  C8         3.7950   30.9080    7.1950 C.ar  923  IXH923      0.0159
      9  C9         4.7320   29.8660    7.4770 C.ar  923  IXH923      0.0186
     10  C10        5.1830   29.6120    8.8070 C.ar  923  IXH923      0.0827
     11  C11        4.6570   30.4290    9.8370 C.ar  923  IXH923      0.0186
     12  C12        3.7230   31.4650    9.5610 C.ar  923  IXH923      0.0159
     13  C13        6.6290   27.4980    8.5580 C.1   923  IXH923      0.1711
     14  C14        7.8760   25.5360    8.5080 C.2   923  IXH923      0.1191
     15  C15        7.5860   25.3150    7.1600 C.ar  923  IXH923      0.1067
     16  C16        8.0990   24.1450    6.4060 C.ar  923  IXH923      0.2070
     17  C17        7.7150   24.0200    4.9530 C.ar  923  IXH923      0.1132
     18  C18        6.9250   25.0020    4.4450 C.ar  923  IXH923      0.0902
     19  C19        5.6200   27.0930    4.4410 C.ar  923  IXH923      0.0660
     20  C20        4.2130   27.2460    4.6980 C.ar  923  IXH923      0.0173
     21  C21        3.4350   28.2240    3.9970 C.ar  923  IXH923     -0.0031
     22  C22        4.0690   29.0400    3.0390 C.ar  923  IXH923     -0.0260
     23  C23        3.4660   30.1210    2.1920 C.3   923  IXH923      0.0264
     24  C24        4.5360   30.2890    1.0980 C.3   923  IXH923      0.0093
     25  C25        5.8870   29.8780    1.7150 C.3   923  IXH923      0.0264
     26  C26        5.4500   28.9040    2.7670 C.ar  923  IXH923     -0.0247
     27  C27        6.2340   27.9480    3.4500 C.ar  923  IXH923      0.0130
     28  C28        6.7710   26.2820    6.5430 C.ar  923  IXH923      0.2164
     29  C29        8.1400   22.9190    4.0410 C.2   923  IXH923      0.2888
     30  N1         2.3280   32.7860    8.0300 N.pl3 923  IXH923     -0.3046
     31  N2         7.4100   26.6090    9.2130 N.2   923  IXH923     -0.1681
     32  N3         6.4280   26.1280    5.1340 N.ar  923  IXH923     -0.2796
     33  N4         6.3090   27.3510    7.2530 N.2   923  IXH923     -0.3176
     34  N5         6.0860   28.6030    9.1810 N.pl3 923  IXH923     -0.1357
     35  N6         0.9400   35.1250    6.9740 N.3   923  IXH923     -0.2174
     36  N7         8.9490   21.9600    4.5810 N.am  923  IXH923     -0.0836
     37  O1         8.8120   23.3170    6.9720 O.2   923  IXH923     -0.2862
     38  O2         7.8000   22.8600    2.8600 O.2   923  IXH923     -0.2665
@<TRIPOS>BOND
     1    24    25    1
     2    24    23    1
     3    25    26    1
     4    23    22    1
     5    26    22   ar
     6    26    27   ar
     7    38    29    2
     8    22    21   ar
     9    27    19   ar
    10    21    20   ar
    11    29    36   am
    12    29    17    1
    13    19    20   ar
    14    19    32    1
    15    18    17   ar
    16    18    32   ar
    17    17    16   ar
    18    32    28   ar
    19     1     2    1
    20    16    37    2
    21    16    15   ar
    22    28    15   ar
    23    28    33    2
    24     3     2    1
    25     3    30    1
    26     2    35    1
    27    35     5    1
    28    15    14    2
    29     8     9   ar
    30     8     7   ar
    31    33    13    2
    32     9    10   ar
    33    30     4    1
    34    30     7    1
    35     4     5    1
    36     5     6    1
    37     7    12   ar
    38    14    31    1
    39    13    34    1
    40    13    31    2
    41    10    34    1
    42    10    11   ar
    43    12    11   ar
