@<TRIPOS>MOLECULE
3beb_HJ3_A_1.pdb
 18 18 0 0 0
SMALL
GASTEIGER

@<TRIPOS>ATOM
      1  O11       41.7410    8.8300   30.4590 O.2   1000  HJ31000    -0.2733
      2  C10       41.4550    7.6480   30.6520 C.2   1000  HJ31000     0.2418
      3  CA1       40.5960    7.2770   31.8490 C.3   1000  HJ31000     0.0868
      4  CB1       41.2440    6.2000   32.6930 C.3   1000  HJ31000     0.0101
      5  N9        41.8720    6.6580   29.8470 N.am  1000  HJ31000    -0.1968
      6  C6        42.6930    6.9470   28.6600 C.3   1000  HJ31000     0.1855
      7  C7        42.0840    6.3760   27.4060 C.2   1000  HJ31000     0.2311
      8  O8        41.2850    5.4350   27.4400 O.2   1000  HJ31000    -0.2863
      9  C5        44.1510    6.4610   28.7840 C.3   1000  HJ31000     0.1479
     10  S1        44.7040    6.3610   30.4580 S.3   1000  HJ31000    -0.1212
     11  N4        44.3540    5.1450   28.2110 N.3   1000  HJ31000    -0.1957
     12  C3        44.3530    4.0490   29.1700 C.3   1000  HJ31000     0.1857
     13  C12       44.8970    2.7330   28.6350 C.2   1000  HJ31000     0.3811
     14  O14       44.1820    1.7240   28.7370 O.co2 1000  HJ31000    -0.2441
     15  O13       46.0100    2.6660   28.0720 O.co2 1000  HJ31000    -0.2441
     16  C2        44.9480    4.5970   30.4820 C.3   1000  HJ31000     0.0658
     17  C16       44.1780    3.9910   31.6580 C.3   1000  HJ31000     0.0129
     18  C15       46.4380    4.3040   30.6670 C.3   1000  HJ31000     0.0129
@<TRIPOS>BOND
     1     7     8    2
     2     7     6    1
     3    15    13   ar
     4    11     9    1
     5    11    12    1
     6    13    14   ar
     7    13    12    1
     8     6     9    1
     9     6     5    1
    10     9    10    1
    11    12    16    1
    12     5     2   am
    13    10    16    1
    14     1     2    2
    15    16    18    1
    16    16    17    1
    17     2     3    1
    18     3     4    1
