@<TRIPOS>MOLECULE
3bec_HJ2_A_1.pdb
 13 13 0 0 0
SMALL
GASTEIGER

@<TRIPOS>ATOM
      1  C7        43.1100    7.1830   28.2100 C.3   500  HJ2500      0.1076
      2  C6        44.2100    6.2430   28.6930 C.3   500  HJ2500      0.1581
      3  S1        44.8480    6.6620   30.2370 S.3   500  HJ2500     -0.1162
      4  C2        44.5130    5.3910   31.3040 C.3   500  HJ2500      0.0655
      5  N5        43.6570    4.8970   28.7890 N.2   500  HJ2500     -0.2586
      6  C4        44.5350    3.9390   29.4440 C.2   500  HJ2500      0.1344
      7  C13       44.9070    2.7130   28.6620 C.2   500  HJ2500      0.4007
      8  O14       44.2990    1.6410   28.8790 O.co2 500  HJ2500     -0.2392
      9  O15       45.8130    2.8120   27.8080 O.co2 500  HJ2500     -0.2392
     10  C3        44.9310    4.1380   30.5950 C.3   500  HJ2500      0.0574
     11  C81       45.8530    3.1800   31.3210 C.3   500  HJ2500      0.0074
     12  C8        42.0790    6.4590   27.5290 C.2   500  HJ2500      0.2103
     13  O9        41.2270    5.6150   27.8060 O.2   500  HJ2500     -0.2882
@<TRIPOS>BOND
     1    12    13    2
     2    12     1    1
     3     9     7   ar
     4     1     2    1
     5     7     8   ar
     6     7     6    1
     7     2     5    1
     8     2     3    1
     9     5     6    2
    10     6    10    1
    11     3     4    1
    12    10     4    1
    13    10    11    1
