@<TRIPOS>MOLECULE
3bej_MUF_A_1.pdb
 31 35 0 0 0
SMALL
GASTEIGER

@<TRIPOS>ATOM
      1  C1        22.2900   -9.4740    6.1950 C.3   473  MUF473      0.0089
      2  C2        21.8420   -9.9470    4.7820 C.3   473  MUF473      0.0334
      3  C3        21.1850  -11.3190    4.8900 C.2   473  MUF473      0.0572
      4  C4        20.6410  -11.7950    6.0460 C.2   473  MUF473     -0.0023
      5  C5        20.6320  -11.0300    7.2930 C.2   473  MUF473     -0.0272
      6  C6        20.2290  -11.6210    8.4540 C.2   473  MUF473     -0.0304
      7  C7        20.1590  -10.8810    9.7720 C.3   473  MUF473      0.0257
      8  C8        20.5120   -9.3430    9.7630 C.3   473  MUF473      0.0046
      9  C9        21.6100   -9.0680    8.6850 C.3   473  MUF473      0.0041
     10  C10       21.0990   -9.5420    7.2460 C.3   473  MUF473      0.0189
     11  C11       22.0070   -7.5610    8.6590 C.3   473  MUF473      0.0003
     12  C12       22.4590   -7.0870   10.0610 C.3   473  MUF473      0.0004
     13  C13       21.3560   -7.3440   11.1680 C.3   473  MUF473      0.0069
     14  C14       21.0110   -8.8670   11.1360 C.3   473  MUF473      0.0008
     15  C15       20.0080   -8.9940   12.3020 C.3   473  MUF473      0.0005
     16  C16       20.5310   -7.9400   13.3230 C.3   473  MUF473      0.0077
     17  C17       21.7760   -7.2720   12.6610 C.3   473  MUF473      0.0619
     18  C18       20.1310   -6.4030   10.8190 C.3   473  MUF473      0.0004
     19  C19       19.8870   -8.6300    6.7660 C.3   473  MUF473      0.0044
     20  C20       22.1100   -5.7930   12.9620 C.2   473  MUF473      0.1726
     21  O52       21.2020   -4.9670   13.0830 O.2   473  MUF473     -0.2914
     22  C28       21.1160  -12.2400    3.7600 C.2   473  MUF473      0.3838
     23  O76       21.3200  -11.6060    2.5960 O.co2 473  MUF473     -0.2409
     24  O82       20.9290  -13.4410    3.8530 O.co2 473  MUF473     -0.2409
     25  C52       23.5130   -5.2940   13.0660 C.ar  473  MUF473      0.0349
     26  C53       24.6070   -6.1380   13.4260 C.ar  473  MUF473      0.0061
     27  C54       25.9110   -5.5880   13.5060 C.ar  473  MUF473      0.0421
     28  C55       26.1230   -4.2250   13.2390 C.ar  473  MUF473      0.1957
     29  C56       25.0510   -3.3700   12.8910 C.ar  473  MUF473      0.0421
     30  C57       23.7430   -3.9140   12.8010 C.ar  473  MUF473      0.0061
     31  O57       27.3970   -3.7510   13.3440 O.3   473  MUF473     -0.2866
@<TRIPOS>BOND
     1    23    22   ar
     2    22    24   ar
     3    22     3    1
     4     2     3    1
     5     2     1    1
     6     3     4    2
     7     4     5    1
     8     1    10    1
     9    19    10    1
    10    10     5    1
    11    10     9    1
    12     5     6    2
    13     6     7    1
    14    11     9    1
    15    11    12    1
    16     9     8    1
    17     8     7    1
    18     8    14    1
    19    12    13    1
    20    18    13    1
    21    14    13    1
    22    14    15    1
    23    13    17    1
    24    15    16    1
    25    17    20    1
    26    17    16    1
    27    30    29   ar
    28    30    25   ar
    29    29    28   ar
    30    20    25    1
    31    20    21    2
    32    25    26   ar
    33    28    31    1
    34    28    27   ar
    35    26    27   ar
