@<TRIPOS>MOLECULE
3bel_POX_A_1.pdb
 32 35 0 0 0
SMALL
GASTEIGER

@<TRIPOS>ATOM
      1  C1        16.2990   37.4260   96.8340 C.ar    1  POX1        0.0043
      2  C2        14.9610   37.3430   96.2990 C.ar    1  POX1        0.0273
      3  C3        14.1390   38.4860   96.2120 C.ar    1  POX1        0.1399
      4  N6        13.6390   32.6540   86.7070 N.pl3   1  POX1        0.2114
      5  C7        17.1620   36.1640   96.9160 C.3     1  POX1        0.1538
      6  C8        15.4530   33.3690   95.6360 C.ar    1  POX1        0.1217
      7  C9        16.4760   34.1520   92.0150 C.ar    1  POX1        0.1832
      8  C10       17.2310   35.3030   92.3670 C.ar    1  POX1        0.0459
      9  C11       17.3560   35.7340   93.7050 C.ar    1  POX1        0.0224
     10  C12       16.6890   34.9690   94.7050 C.ar    1  POX1        0.0800
     11  C13       15.9390   33.8240   94.3990 C.ar    1  POX1        0.0417
     12  C14       15.8280   33.4070   93.0430 C.ar    1  POX1        0.0475
     13  C15       12.8970   34.1310   89.8140 C.3     1  POX1        0.5249
     14  C16       15.1670   33.6350   89.9000 C.2     1  POX1        0.3546
     15  C19       16.3330   32.5230   87.9850 C.3     1  POX1        0.1463
     16  C20       18.3720   31.9620   85.1860 C.3     1  POX1        0.2002
     17  C21       19.9100   31.8560   85.2010 C.3     1  POX1        0.1765
     18  C22       21.8320   31.8250   83.8940 C.3     1  POX1        0.1742
     19  C4        14.6110   39.7530   96.6510 C.ar    1  POX1        0.0296
     20  C5        15.9310   39.8620   97.1820 C.ar    1  POX1        0.0020
     21  C6        16.7710   38.7010   97.2720 C.ar    1  POX1       -0.0022
     22  F1        12.9030   38.3620   95.7080 F       1  POX1       -0.2042
     23  N1        16.5820   35.1030   96.0790 N.ar    1  POX1       -0.2464
     24  N2        15.8300   34.1290   96.6580 N.ar    1  POX1       -0.1674
     25  N3        16.3180   33.7180   90.6900 N.pl3   1  POX1       -0.0094
     26  N4        12.7520   33.6300   88.5560 N.2     1  POX1       -0.0030
     27  N5        14.0450   34.1580   90.5010 N.2     1  POX1       -0.0072
     28  C17       15.1190   33.0870   88.6170 C.3     1  POX1        0.2425
     29  C18       13.8530   33.1220   87.9740 C.2     1  POX1        0.4039
     30  N7        16.6570   32.6170   86.7330 N.4     1  POX1       -0.0823
     31  O1        17.8930   31.9180   86.5560 O.3     1  POX1       -0.2635
     32  O2        20.4030   31.9070   83.8520 O.3     1  POX1       -0.3484
@<TRIPOS>BOND
     1    32    18    1
     2    32    17    1
     3    16    17    1
     4    16    31    1
     5    31    30    1
     6     4    29    1
     7    30    15    1
     8    29    26    2
     9    29    28    1
    10    15    28    1
    11    26    13    1
    12    28    14    1
    13    13    27    1
    14    14    27    2
    15    14    25    1
    16    25     7    1
    17     7     8   ar
    18     7    12   ar
    19     8     9   ar
    20    12    11   ar
    21     9    10   ar
    22    11    10   ar
    23    11     6   ar
    24    10    23   ar
    25     6    24   ar
    26    22     3    1
    27    23    24   ar
    28    23     5    1
    29     3     2   ar
    30     3    19   ar
    31     2     1   ar
    32    19    20   ar
    33     1     5    1
    34     1    21   ar
    35    20    21   ar
