@<TRIPOS>MOLECULE
3bem_FMN_A_1.pdb
 31 33 0 0 0
SMALL
GASTEIGER

@<TRIPOS>ATOM
      1  N1        11.0670   12.6200   59.6490 N.2   300  FMN300     -0.2887
      2  C2        11.5610   13.8560   60.0150 C.1   300  FMN300      0.3669
      3  O2        12.4560   13.9200   60.8690 O.2   300  FMN300     -0.1744
      4  N3        11.0540   15.0150   59.4460 N.2   300  FMN300     -0.2300
      5  C4        10.0340   14.9750   58.5040 C.1   300  FMN300      0.2513
      6  O4         9.7680   16.0370   57.9020 O.2   300  FMN300     -0.2057
      7  C4A        9.5220   13.6970   58.1420 C.2   300  FMN300      0.2703
      8  N5         8.4910   13.5780   57.2120 N.2   300  FMN300     -0.3885
      9  C5A        8.0770   12.3120   56.8050 C.2   300  FMN300      0.1233
     10  C6         7.1000   12.1790   55.8040 C.3   300  FMN300      0.0606
     11  C7         6.6090   10.9180   55.3830 C.3   300  FMN300      0.0111
     12  C7M        6.0770   10.7850   53.9690 C.3   300  FMN300      0.0008
     13  C8         7.1540    9.7810   55.9680 C.3   300  FMN300      0.0238
     14  C8M        7.1790    8.5150   55.1720 C.3   300  FMN300      0.0047
     15  C9         8.1340    9.9020   56.9670 C.2   300  FMN300     -0.0093
     16  C9A        8.6170   11.1470   57.4090 C.2   300  FMN300      0.0750
     17  N10        9.6020   11.2590   58.3840 N.pl3 300  FMN300     -0.2548
     18  C10       10.0680   12.5250   58.7150 C.2   300  FMN300      0.2449
     19  C1'       10.0610   10.0360   59.1710 C.3   300  FMN300      0.1336
     20  C2'        8.9430    9.3770   60.0300 C.3   300  FMN300      0.2048
     21  O2'        8.7470   10.0780   61.2540 O.3   300  FMN300     -0.2185
     22  C3'        9.3370    7.9100   60.3080 C.3   300  FMN300      0.2165
     23  O3'        9.2940    7.2140   59.0460 O.3   300  FMN300     -0.2175
     24  C4'        8.5190    7.2120   61.4190 C.3   300  FMN300      0.2147
     25  O4'        8.6210    7.8770   62.6720 O.3   300  FMN300     -0.2176
     26  C5'        8.9780    5.7710   61.7320 C.3   300  FMN300      0.1892
     27  O5'       10.3920    5.6110   61.9260 O.3   300  FMN300     -0.2674
     28  P         11.0850    4.3760   61.1620 P.3   300  FMN300      0.5327
     29  O1P       12.5140    4.3490   61.4090 O.3   300  FMN300     -0.1145
     30  O2P       10.5920    3.1400   61.7240 O.3   300  FMN300     -0.1145
     31  O3P       10.7780    4.6570   59.7530 O.2   300  FMN300     -0.2224
@<TRIPOS>BOND
     1    12    11    1
     2    14    13    1
     3    11    10    1
     4    11    13    1
     5    10     9    1
     6    13    15    1
     7     9     8    2
     8     9    16    1
     9    15    16    2
    10     8     7    2
    11    16    17    1
    12     6     5    2
    13     7     5    1
    14     7    18    1
    15    17    18    1
    16    17    19    1
    17     5     4    2
    18    18     1    2
    19    23    22    1
    20    19    20    1
    21     4     2    2
    22     1     2    2
    23    31    28    2
    24     2     3    2
    25    20    22    1
    26    20    21    1
    27    22    24    1
    28    28    29    1
    29    28    30    1
    30    28    27    1
    31    24    26    1
    32    24    25    1
    33    26    27    1
