@<TRIPOS>MOLECULE
3ben_HEM_A_1.pdb
 43 50 0 0 0
SMALL
GASTEIGER

@<TRIPOS>ATOM
      1  CHA       23.0740    2.9780   12.6450 C.2   470  HEM470      0.0000
      2  CHB       18.2080    2.8670   12.4070 C.2   470  HEM470      0.0000
      3  CHC       18.4480   -1.6600   10.6670 C.2   470  HEM470      0.0000
      4  CHD       23.2390   -1.6690   11.1620 C.2   470  HEM470      0.0000
      5  C1A       21.7440    3.3340   12.7490 C.2   470  HEM470      0.0000
      6  C2A       21.2520    4.5820   13.2800 C.2   470  HEM470      0.0000
      7  C3A       19.9250    4.5600   13.2060 C.2   470  HEM470      0.0000
      8  C4A       19.5090    3.2970   12.6350 C.2   470  HEM470      0.0000
      9  CMA       19.0110    5.6980   13.6980 C.3   470  HEM470      0.0000
     10  CAA       22.0900    5.7530   13.8310 C.3   470  HEM470      0.0000
     11  CBA       22.5060    5.3480   15.2540 C.3   470  HEM470      0.0000
     12  CGA       23.0420    6.4620   16.1080 C.2   470  HEM470      0.0000
     13  O1A       23.2620    6.1760   17.3470 O.co2 470  HEM470      0.0000
     14  O2A       23.2440    7.6140   15.6170 O.co2 470  HEM470      0.0000
     15  C1B       17.8370    1.6470   11.8620 C.ar  470  HEM470      0.0000
     16  C2B       16.5170    1.2380   11.4130 C.ar  470  HEM470      0.0000
     17  C3B       16.6080   -0.0180   10.9280 C.ar  470  HEM470      0.0000
     18  C4B       17.9740   -0.4340   11.0470 C.ar  470  HEM470      0.0000
     19  CMB       15.2840    2.1460   11.4890 C.3   470  HEM470      0.0000
     20  CAB       15.5320   -0.9390   10.3130 C.2   470  HEM470      0.0000
     21  CBB       14.3280   -0.4980    9.9250 C.2   470  HEM470      0.0000
     22  C1C       19.7750   -2.0450   10.6310 C.2   470  HEM470      0.0000
     23  C2C       20.2670   -3.3000   10.1100 C.2   470  HEM470      0.0000
     24  C3C       21.6030   -3.3110   10.2240 C.2   470  HEM470      0.0000
     25  C4C       21.9690   -2.0460   10.8300 C.2   470  HEM470      0.0000
     26  CMC       19.3720   -4.4010    9.4980 C.3   470  HEM470      0.0000
     27  CAC       22.6470   -4.4020    9.8270 C.2   470  HEM470      0.0000
     28  CBC       22.4060   -5.4860    9.0620 C.2   470  HEM470      0.0000
     29  C1D       23.6090   -0.4430   11.6390 C.ar  470  HEM470      0.0000
     30  C2D       24.9750   -0.1000   11.9650 C.ar  470  HEM470      0.0000
     31  C3D       24.9340    1.3480   12.3980 C.ar  470  HEM470      0.0000
     32  C4D       23.5510    1.7320   12.3190 C.ar  470  HEM470      0.0000
     33  CMD       26.2080   -1.0230   11.9030 C.3   470  HEM470      0.0000
     34  CAD       26.1520    2.1910   12.8160 C.3   470  HEM470      0.0000
     35  CBD       26.8850    2.6080   11.5100 C.3   470  HEM470      0.0000
     36  CGD       28.0570    3.5130   11.8110 C.2   470  HEM470      0.0000
     37  O1D       27.9630    4.3930   12.7270 O.co2 470  HEM470      0.0000
     38  O2D       29.0810    3.3630   11.1080 O.co2 470  HEM470      0.0000
     39  NA        20.6570    2.5620   12.3880 N.2   470  HEM470      0.0000
     40  NB        18.6980    0.5930   11.6350 N.ar  470  HEM470      0.0000
     41  NC        20.8470   -1.2840   11.0640 N.2   470  HEM470      0.0000
     42  ND        22.7870    0.6580   11.8620 N.ar  470  HEM470      0.0000
     43 FE         20.7430    0.6780   11.5490 Fe    470  HEM470      0.0000
@<TRIPOS>BOND
     1    28    27    2
     2    26    23    1
     3    27    24    1
     4    21    20    2
     5    23    24    2
     6    23    22    1
     7    24    25    1
     8    20    17    1
     9    22     3    2
    10    22    41    1
    11     3    18    1
    12    25    41    2
    13    25     4    1
    14    17    18   ar
    15    17    16   ar
    16    18    40   ar
    17    41    43    1
    18    38    36   ar
    19     4    29    2
    20    16    19    1
    21    16    15   ar
    22    35    36    1
    23    35    34    1
    24    43    40    1
    25    43    42    1
    26    43    39    1
    27    40    15   ar
    28    29    42   ar
    29    29    30   ar
    30    36    37   ar
    31    15     2    1
    32    42    32   ar
    33    33    30    1
    34    30    31   ar
    35    32    31   ar
    36    32     1    2
    37    39     8    1
    38    39     5    2
    39    31    34    1
    40     2     8    2
    41     8     7    1
    42     1     5    1
    43     5     6    1
    44     7     6    2
    45     7     9    1
    46     6    10    1
    47    10    11    1
    48    11    12    1
    49    14    12   ar
    50    12    13   ar
