@<TRIPOS>MOLECULE
3ben_LEH_A_1.pdb
 27 27 0 0 0
SMALL
GASTEIGER

@<TRIPOS>ATOM
      1  O3        16.7020    3.4960   26.9220 O.2   500  LEH500     -0.2733
      2  C7        17.2500    3.6860   25.8480 C.2   500  LEH500      0.2418
      3  N1        16.6420    4.1650   24.7740 N.am  500  LEH500     -0.1956
      4  C6        15.2340    4.5180   24.7440 C.3   500  LEH500      0.1977
      5  C5        15.2020    5.9920   24.2940 C.3   500  LEH500      0.0333
      6  C4        15.8050    7.0050   25.2830 C.3   500  LEH500      0.0023
      7  C3        15.9040    8.3970   24.6680 C.3   500  LEH500      0.0001
      8  C2        15.0440    7.0930   26.5970 C.3   500  LEH500      0.0001
      9  C1        14.5190    3.5780   23.7880 C.2   500  LEH500      0.3842
     10  O2        15.0850    3.2870   22.7060 O.co2 500  LEH500     -0.2437
     11  O1        13.3950    3.0970   24.0960 O.co2 500  LEH500     -0.2437
     12  C8        18.7040    3.3650   25.6380 C.3   500  LEH500      0.0868
     13  C9        18.7870    2.0820   24.8050 C.3   500  LEH500      0.0096
     14  C10       19.5910    2.2090   23.5090 C.3   500  LEH500      0.0005
     15  C11       20.7560    1.2250   23.5040 C.3   500  LEH500      0.0000
     16  C12       20.7340    0.2670   22.3140 C.3   500  LEH500      0.0000
     17  C13       22.1200   -0.3300   22.1310 C.3   500  LEH500      0.0000
     18  C14       22.1790   -1.4020   21.0510 C.3   500  LEH500      0.0000
     19  C15       23.3140   -1.1120   20.0670 C.3   500  LEH500      0.0001
     20  C16       23.1160   -1.8600   18.7490 C.3   500  LEH500      0.0020
     21  C17       22.1120   -1.1390   17.8450 C.3   500  LEH500      0.0245
     22  C18       22.1160   -1.8150   16.4870 C.3   500  LEH500      0.1076
     23  N2        21.3390   -0.9940   15.5170 N.ar  500  LEH500     -0.3078
     24  C20       20.2000   -0.4950   15.6180 C.ar  500  LEH500      0.0980
     25  C21       19.9260    0.0820   14.5690 C.ar  500  LEH500      0.1193
     26  N3        20.8160   -0.1470   13.7260 N.ar  500  LEH500     -0.2223
     27  C19       21.7860   -0.7230   14.3580 C.ar  500  LEH500      0.1786
@<TRIPOS>BOND
     1    26    27   ar
     2    26    25   ar
     3    27    23   ar
     4    25    24   ar
     5    23    24   ar
     6    23    22    1
     7    22    21    1
     8    21    20    1
     9    20    19    1
    10    19    18    1
    11    18    17    1
    12    17    16    1
    13    16    15    1
    14    10     9   ar
    15    15    14    1
    16    14    13    1
    17     9    11   ar
    18     9     4    1
    19     5     4    1
    20     5     6    1
    21     7     6    1
    22     4     3    1
    23     3     2   am
    24    13    12    1
    25     6     8    1
    26    12     2    1
    27     2     1    2
