@<TRIPOS>MOLECULE
3beo_UD1_A_1.pdb
 39 41 0 0 0
SMALL
GASTEIGER

@<TRIPOS>ATOM
      1  C1'       12.8640   55.4640   39.3990 C.3   372  UD1372      0.2633
      2  C2'       11.6450   54.5520   39.1080 C.3   372  UD1372      0.1845
      3  C3'       10.3270   55.3240   39.1490 C.3   372  UD1372      0.2094
      4  C4'       10.2490   56.1740   40.4170 C.3   372  UD1372      0.2136
      5  C5'       11.5040   56.9740   40.6800 C.3   372  UD1372      0.1834
      6  C6'       11.4530   57.6520   42.0630 C.3   372  UD1372      0.2142
      7  C7'       11.7760   52.5670   37.6510 C.2   372  UD1372      0.2420
      8  C8'       11.5610   52.0370   36.2600 C.3   372  UD1372      0.0964
      9  N2'       11.7540   53.9100   37.8290 N.am  372  UD1372     -0.1992
     10  O1'       13.0450   56.3190   38.3140 O.3   372  UD1372     -0.2864
     11  O3'        9.1960   54.4400   39.1300 O.3   372  UD1372     -0.2183
     12  O4'        9.1370   57.0680   40.3740 O.3   372  UD1372     -0.2176
     13  O5'       12.6490   56.1190   40.6000 O.3   372  UD1372     -0.3260
     14  O6'       12.3550   58.7810   42.1350 O.3   372  UD1372     -0.2176
     15  O7'       11.8950   51.7910   38.5330 O.2   372  UD1372     -0.2733
     16  N1        20.3020   58.6980   40.6320 N.am  372  UD1372     -0.1766
     17  C2        21.2730   59.0830   41.5510 C.1   372  UD1372      0.2845
     18  N3        21.0350   58.9210   42.8760 N.2   372  UD1372     -0.2452
     19  C4        19.8920   58.3820   43.3240 C.1   372  UD1372      0.2182
     20  C5        18.9020   58.0820   42.4310 C.2   372  UD1372      0.1242
     21  C6        19.1200   58.2200   41.0860 C.2   372  UD1372      0.0929
     22  O2        22.3810   59.5300   41.1430 O.2   372  UD1372     -0.1918
     23  O4        19.6700   58.2050   44.5470 O.2   372  UD1372     -0.2085
     24  C1B       20.5570   58.8960   39.1780 C.3   372  UD1372      0.2401
     25  C2B       21.5780   57.8500   38.6620 C.3   372  UD1372      0.2319
     26  O2'       22.3420   58.3490   37.5800 O.3   372  UD1372     -0.2157
     27  C3B       20.7020   56.6770   38.2120 C.3   372  UD1372      0.2158
     28  C4B       19.3600   57.3720   38.1150 C.3   372  UD1372      0.1799
     29  O4B       19.3710   58.7640   38.4340 O.3   372  UD1372     -0.3320
     30  O3B       21.1370   55.8380   37.1190 O.3   372  UD1372     -0.2175
     31  C5B       18.2350   56.9550   37.1960 C.3   372  UD1372      0.1813
     32  O5B       17.6890   56.2730   38.3510 O.3   372  UD1372     -0.3112
     33  PA        16.5560   55.2000   38.0670 P.3   372  UD1372      0.2189
     34  O1A       17.1650   54.3550   37.0100 O.2   372  UD1372     -0.5170
     35  O2A       16.1830   54.7040   39.4360 O.3   372  UD1372     -0.4371
     36  O3A       15.3420   56.0220   37.4530 O.3   372  UD1372     -0.2703
     37  PB        14.4060   57.1140   38.1540 P.3   372  UD1372      0.2208
     38  O1B       14.0750   58.0930   37.0150 O.2   372  UD1372     -0.5170
     39  O2B       14.9660   57.5160   39.4700 O.3   372  UD1372     -0.4371
@<TRIPOS>BOND
     1     8     7    1
     2    34    33    2
     3    38    37    2
     4    30    27    1
     5    31    28    1
     6    31    32    1
     7    36    33    1
     8    36    37    1
     9    26    25    1
    10     7     9   am
    11     7    15    2
    12     9     2    1
    13    33    32    1
    14    33    35    1
    15    28    27    1
    16    28    29    1
    17    37    10    1
    18    37    39    1
    19    27    25    1
    20    10     1    1
    21    29    24    1
    22    25    24    1
    23     2     3    1
    24     2     1    1
    25    11     3    1
    26     3     4    1
    27    24    16    1
    28     1    13    1
    29    12     4    1
    30     4     5    1
    31    13     5    1
    32    16    21    1
    33    16    17   am
    34     5     6    1
    35    21    20    2
    36    22    17    2
    37    17    18    2
    38     6    14    1
    39    20    19    1
    40    18    19    2
    41    19    23    2
