@<TRIPOS>MOLECULE
3beo_UDP_A_1.pdb
 25 26 0 0 0
SMALL
GASTEIGER

@<TRIPOS>ATOM
      1  N1         9.6190   63.3350   48.3260 N.am  1081  UDP1081    -0.1766
      2  C2        10.5700   63.6980   49.2520 C.1   1081  UDP1081     0.2845
      3  N3        11.5180   64.6690   48.9340 N.2   1081  UDP1081    -0.2452
      4  C4        11.5090   65.2470   47.6800 C.1   1081  UDP1081     0.2182
      5  C5        10.5510   64.8770   46.7440 C.2   1081  UDP1081     0.1242
      6  C6         9.5900   63.9200   47.0870 C.2   1081  UDP1081     0.0929
      7  O2        10.5970   63.1600   50.3850 O.2   1081  UDP1081    -0.1918
      8  O4        12.3450   66.1060   47.4430 O.2   1081  UDP1081    -0.2085
      9  C1'        8.6580   62.2570   48.6590 C.3   1081  UDP1081     0.2401
     10  C2'        7.1710   62.4780   48.4300 C.3   1081  UDP1081     0.2319
     11  O2'        6.5130   63.0240   49.5730 O.3   1081  UDP1081    -0.2157
     12  C3'        6.6960   61.0530   48.1920 C.3   1081  UDP1081     0.2158
     13  C4'        7.8900   60.3710   47.5340 C.3   1081  UDP1081     0.1799
     14  O4'        9.0580   61.1100   47.8890 O.3   1081  UDP1081    -0.3320
     15  O3'        6.3500   60.3440   49.3750 O.3   1081  UDP1081    -0.2175
     16  C5'        7.6190   60.3240   46.0610 C.3   1081  UDP1081     0.1813
     17  O5'        8.7630   59.9050   45.4360 O.3   1081  UDP1081    -0.3111
     18  PA         9.0080   60.2290   43.8740 P.3   1081  UDP1081     0.2231
     19  O1A       10.4860   60.2610   43.7420 O.3   1081  UDP1081    -0.4370
     20  O2A        8.2070   61.4470   43.4720 O.2   1081  UDP1081    -0.5169
     21  O3A        8.5790   58.9160   43.0430 O.3   1081  UDP1081    -0.2261
     22  PB         7.1630   58.4270   42.5970 P.3   1081  UDP1081     0.5373
     23  O1B        6.7350   59.2650   41.4350 O.2   1081  UDP1081    -0.2221
     24  O2B        7.3530   56.9460   42.3540 O.3   1081  UDP1081    -0.1143
     25  O3B        6.1540   58.5830   43.6870 O.3   1081  UDP1081    -0.1143
@<TRIPOS>BOND
     1    23    22    2
     2    24    22    1
     3    22    21    1
     4    22    25    1
     5    21    18    1
     6    20    18    2
     7    19    18    1
     8    18    17    1
     9    17    16    1
    10    16    13    1
    11     5     6    2
    12     5     4    1
    13     6     1    1
    14     8     4    2
    15    13    14    1
    16    13    12    1
    17     4     3    2
    18    14     9    1
    19    12    10    1
    20    12    15    1
    21     1     9    1
    22     1     2   am
    23    10     9    1
    24    10    11    1
    25     3     2    2
    26     2     7    2
