@<TRIPOS>MOLECULE
3bep_5CY_C_1.pdb
 18 18 0 0 0
SMALL
GASTEIGER

@<TRIPOS>ATOM
      1  N1        10.7550   15.5850    6.2920 N.pl3 111  5CY111     -0.3052
      2  O1        11.4990   13.7470   10.1230 O.3   111  5CY111     -0.2204
      3  C10       10.0650   16.5330    5.6370 C.3   111  5CY111      0.0987
      4  C11       10.5250   15.0150    7.6770 C.3   111  5CY111      0.0937
      5  C12       11.4340   15.6980    8.7110 C.3   111  5CY111      0.0569
      6  C13       11.2190   15.1420   10.1150 C.3   111  5CY111      0.1839
      7  C14       11.8880   15.0870    5.4440 C.ar  111  5CY111      0.0440
      8  C15       12.8740   14.0900    5.7260 C.ar  111  5CY111      0.0142
      9  C16       13.8540   13.8100    4.7280 C.ar  111  5CY111      0.0012
     10  C17       13.8470   14.5060    3.4820 C.ar  111  5CY111     -0.0002
     11  C18       12.8600   15.4960    3.2070 C.ar  111  5CY111     -0.0030
     12  C19       11.8790   15.7760    4.2100 C.ar  111  5CY111     -0.0076
     13  O2         1.1350   18.9140    6.4170 O.3   111  5CY111      0.0000
     14  C20       10.7250   16.7140    4.2580 C.3   111  5CY111      0.0406
     15  C21       10.4060   17.8010    3.1990 C.3   111  5CY111      0.0064
     16  C22       11.6780   17.8440    4.8010 C.3   111  5CY111      0.0064
     17  C8         8.7730   18.5120    6.6690 C.2   111  5CY111     -0.0032
     18  C9         8.8370   17.2550    6.1910 C.2   111  5CY111     -0.0065
@<TRIPOS>BOND
     1    15    14    1
     2    11    10   ar
     3    11    12   ar
     4    10     9   ar
     5    12    14    1
     6    12     7   ar
     7    14    16    1
     8    14     3    1
     9     9     8   ar
    10     7     8   ar
    11     7     1    1
    12     3    18    1
    13     3     1    1
    14    18    17    2
    15     1     4    1
    16     4     5    1
    17     5     6    1
    18     6     2    1
