@<TRIPOS>MOLECULE
3ber_AMP_A_1.pdb
 23 25 0 0 0
SMALL
GASTEIGER

@<TRIPOS>ATOM
      1  P         20.9870   11.3090    4.6080 P.3   300  AMP300      0.5327
      2  O1P       21.4360    9.8790    5.0310 O.3   300  AMP300     -0.1145
      3  O2P       21.1700   12.5350    5.5010 O.3   300  AMP300     -0.1145
      4  O3P       19.5170   11.2820    4.1680 O.2   300  AMP300     -0.2224
      5  O5'       21.9430   11.5660    3.3240 O.3   300  AMP300     -0.2675
      6  C5'       21.8070   12.7740    2.5670 C.3   300  AMP300      0.1860
      7  C4'       22.8230   12.7630    1.4340 C.3   300  AMP300      0.1823
      8  O4'       24.0970   12.9180    2.0470 O.3   300  AMP300     -0.3135
      9  C3'       22.9020   11.5200    0.5590 C.3   300  AMP300      0.2184
     10  O3'       22.8830   12.0060   -0.7930 O.3   300  AMP300     -0.2174
     11  C2'       24.2510   10.9220    0.8380 C.3   300  AMP300      0.2570
     12  O2'       24.8350   10.2940   -0.2940 O.3   300  AMP300     -0.2130
     13  C1'       25.0280   12.1450    1.3180 C.3   300  AMP300      0.3186
     14  N9        26.0990   11.8610    2.2750 N.pl3 300  AMP300     -0.1439
     15  C8        25.9880   11.0810    3.3850 C.3   300  AMP300      0.3377
     16  N7        27.1350   11.0360    4.0450 N.2   300  AMP300     -0.2095
     17  C5        28.0220   11.8160    3.3850 C.2   300  AMP300      0.2526
     18  C6        29.4100   12.1900    3.6150 C.2   300  AMP300      0.4393
     19  N6        30.1130   11.7280    4.6650 N.pl3 300  AMP300      0.2180
     20  N1        29.9530   13.0000    2.6680 N.2   300  AMP300      0.0021
     21  C2        29.2580   13.4710    1.6150 C.3   300  AMP300      0.5254
     22  N3        27.9700   13.1800    1.3790 N.2   300  AMP300     -0.0055
     23  C4        27.3250   12.3560    2.2310 C.2   300  AMP300      0.3518
@<TRIPOS>BOND
     1    10     9    1
     2    12    11    1
     3     9    11    1
     4     9     7    1
     5    11    13    1
     6    13     8    1
     7    13    14    1
     8    22    21    1
     9    22    23    2
    10     7     8    1
    11     7     6    1
    12    21    20    1
    13    23    14    1
    14    23    17    1
    15    14    15    1
    16     6     5    1
    17    20    18    2
    18     5     1    1
    19    15    16    1
    20    17    18    1
    21    17    16    2
    22    18    19    1
    23     4     1    2
    24     1     2    1
    25     1     3    1
