@<TRIPOS>MOLECULE
3bet_CTF_A_1.pdb
 28 31 0 0 0
SMALL
GASTEIGER

@<TRIPOS>ATOM
      1  C1        -4.4080    2.6770   14.5810 C.ar  264  CTF264      0.2061
      2  O1        -6.8790    1.2400   16.3670 O.3   264  CTF264     -0.0428
      3  O2        -4.5970    1.6080   17.2620 O.3   264  CTF264     -0.0428
      4  C2        -5.1710    3.8760   14.6790 C.ar  264  CTF264      0.1749
      5  C3        -4.5390    5.0890   14.3360 C.ar  264  CTF264      0.0356
      6  C4        -3.1680    5.1750   13.8930 C.ar  264  CTF264     -0.0232
      7  S1        -5.4840    0.9790   16.3420 S.3   264  CTF264      0.1233
      8  N1        -5.2610   -0.5800   16.3840 N.3   264  CTF264      0.0501
      9  O3        -5.0280    1.4330   14.8830 O.3   264  CTF264     -0.3437
     10  C5        -2.4330    3.9510   13.8200 C.ar  264  CTF264     -0.0228
     11  C6        -3.0490    2.7230   14.1560 C.ar  264  CTF264      0.0384
     12  O4        -6.4900    3.9680   15.0750 O.3   264  CTF264     -0.4683
     13  C7        -6.8080    4.3590   16.4060 C.3   264  CTF264      0.2526
     14  C8        -2.5450    6.5110   13.4940 C.3   264  CTF264      0.0221
     15  C9        -0.9610    6.4820   13.5260 C.3   264  CTF264      0.0044
     16  C10       -0.4680    5.2600   12.7240 C.3   264  CTF264      0.0050
     17  C11       -0.9740    3.9310   13.3540 C.3   264  CTF264      0.0261
     18  C12       -3.1340    7.6950   14.3210 C.3   264  CTF264      0.0043
     19  C13       -2.5530    9.0820   13.9080 C.3   264  CTF264      0.0004
     20  C14       -1.0300    9.1110   13.8770 C.3   264  CTF264      0.0010
     21  C15       -0.5160    7.8900   13.0240 C.3   264  CTF264      0.0004
     22  C16       -0.5070    9.1600   15.3370 C.3   264  CTF264      0.0000
     23  C17       -0.3620   10.1910   12.9460 C.3   264  CTF264      0.0151
     24  C18        1.0720    9.7350   12.8200 C.3   264  CTF264      0.0011
     25  C19        0.9990    8.2010   12.8830 C.3   264  CTF264      0.0000
     26  C20       -0.3800   11.5900   13.5030 C.3   264  CTF264      0.1054
     27  C21       -1.6340   12.3280   13.1810 C.1   264  CTF264      0.0731
     28  N2        -2.6060   12.8820   12.9830 N.1   264  CTF264     -0.1959
@<TRIPOS>BOND
     1    16    17    1
     2    16    15    1
     3    24    25    1
     4    24    23    1
     5    25    21    1
     6    23    26    1
     7    23    20    1
     8    28    27    3
     9    21    15    1
    10    21    20    1
    11    27    26    1
    12    17    10    1
    13    14    15    1
    14    14     6    1
    15    14    18    1
    16    10     6   ar
    17    10    11   ar
    18    20    19    1
    19    20    22    1
    20     6     5   ar
    21    19    18    1
    22    11     1   ar
    23     5     4   ar
    24     1     4   ar
    25     1     9    1
    26     4    12    1
    27     9     7    1
    28    12    13    1
    29     7     2    1
    30     7     8    1
    31     7     3    1
