@<TRIPOS>MOLECULE
3bex_PAU_A_1.pdb
 15 14 0 0 0
SMALL
GASTEIGER

@<TRIPOS>ATOM
      1  O2         3.7490   13.6700   18.2660 O.3   248  PAU248     -0.2203
      2  C1         4.5470   12.5230   16.2990 C.3   248  PAU248      0.0674
      3  C2         4.3430   13.8310   17.0230 C.3   248  PAU248      0.1849
      4  C3         5.3890   11.6250   17.1540 C.3   248  PAU248      0.0057
      5  C4         5.2270   12.7970   14.9760 C.3   248  PAU248      0.0057
      6  C5         3.1870   11.9050   16.0200 C.3   248  PAU248      0.2313
      7  O5'        2.4120   12.7940   15.2560 O.3   248  PAU248     -0.2131
      8  C6         3.1500   10.5570   15.3360 C.2   248  PAU248      0.2719
      9  O6'        3.3850    9.5210   16.0300 O.2   248  PAU248     -0.2706
     10  N          2.8950   10.4820   14.1180 N.am  248  PAU248     -0.2027
     11  C8         2.7530    9.2730   13.3530 C.3   248  PAU248      0.1270
     12  C9         3.4880    9.4070   12.0210 C.3   248  PAU248      0.1374
     13  C          3.0250   10.5080   11.1050 C.2   248  PAU248      0.3667
     14  OXT        2.3810   11.4360   11.5100 O.co2 248  PAU248     -0.2456
     15  O          3.3820   10.4150    9.9400 O.co2 248  PAU248     -0.2456
@<TRIPOS>BOND
     1    15    13   ar
     2    13    14   ar
     3    13    12    1
     4    12    11    1
     5    11    10    1
     6    10     8   am
     7     5     2    1
     8     7     6    1
     9     8     6    1
    10     8     9    2
    11     6     2    1
    12     2     3    1
    13     2     4    1
    14     3     1    1
