@<TRIPOS>MOLECULE
3bf1_PAU_A_1.pdb
 15 14 0 0 0
SMALL
GASTEIGER

@<TRIPOS>ATOM
      1  O2         3.7560   13.5870   18.5470 O.3   248  PAU248     -0.2203
      2  C1         4.5360   12.5270   16.5560 C.3   248  PAU248      0.0674
      3  C2         4.3040   13.8020   17.2970 C.3   248  PAU248      0.1849
      4  C3         5.3530   11.5560   17.4040 C.3   248  PAU248      0.0057
      5  C4         5.2880   12.8230   15.2830 C.3   248  PAU248      0.0057
      6  C5         3.1550   11.9940   16.2540 C.3   248  PAU248      0.2313
      7  O5'        2.4750   12.8920   15.4510 O.3   248  PAU248     -0.2131
      8  C6         3.0220   10.6270   15.6570 C.2   248  PAU248      0.2719
      9  O6'        3.0810    9.6310   16.4090 O.2   248  PAU248     -0.2706
     10  N          2.8210   10.4430   14.4590 N.am  248  PAU248     -0.2027
     11  C8         2.6090    9.2990   13.6440 C.3   248  PAU248      0.1270
     12  C9         3.3710    9.5750   12.3730 C.3   248  PAU248      0.1374
     13  C          2.8390   10.6440   11.4530 C.2   248  PAU248      0.3667
     14  OXT        3.0110   10.4920   10.2850 O.co2 248  PAU248     -0.2456
     15  O          2.3030   11.6200   11.8830 O.co2 248  PAU248     -0.2456
@<TRIPOS>BOND
     1    14    13   ar
     2    13    15   ar
     3    13    12    1
     4    12    11    1
     5    11    10    1
     6    10     8   am
     7     5     2    1
     8     7     6    1
     9     8     6    1
    10     8     9    2
    11     6     2    1
    12     2     3    1
    13     2     4    1
    14     3     1    1
