@<TRIPOS>MOLECULE
3bf1_ADP_A_1.pdb
 27 29 0 0 0
SMALL
GASTEIGER

@<TRIPOS>ATOM
      1  PB         4.0940   15.7490   24.2380 P.3   247  ADP247      0.5373
      2  O1B        4.2600   15.2290   22.8310 O.2   247  ADP247     -0.2221
      3  O2B        2.8110   16.5190   24.4500 O.3   247  ADP247     -0.1143
      4  O3B        4.4090   14.7240   25.3090 O.3   247  ADP247     -0.1143
      5  PA         5.6210   17.6790   25.7150 P.3   247  ADP247      0.2231
      6  O1A        4.4830   17.5230   26.6930 O.3   247  ADP247     -0.4370
      7  O2A        6.0960   19.0640   25.3410 O.2   247  ADP247     -0.5169
      8  O3A        5.2430   16.8900   24.3510 O.3   247  ADP247     -0.2261
      9  O5'        6.8820   16.8350   26.2610 O.3   247  ADP247     -0.3111
     10  C5'        8.2060   17.3630   26.2400 C.3   247  ADP247      0.1813
     11  C4'        8.4760   18.0270   27.5840 C.3   247  ADP247      0.1821
     12  O4'        8.8030   17.0340   28.5570 O.3   247  ADP247     -0.3135
     13  C3'        9.6460   18.9900   27.5270 C.3   247  ADP247      0.2184
     14  O3'        9.2220   20.2150   28.1400 O.3   247  ADP247     -0.2174
     15  C2'       10.7670   18.3080   28.3050 C.3   247  ADP247      0.2570
     16  O2'       11.5430   19.2400   29.0740 O.3   247  ADP247     -0.2130
     17  C1'       10.0590   17.2880   29.1880 C.3   247  ADP247      0.3186
     18  N9        10.7970   16.0040   29.2820 N.pl3 247  ADP247     -0.1439
     19  C8        10.6940   14.9900   28.3980 C.3   247  ADP247      0.3377
     20  N7        11.4820   13.9430   28.7460 N.2   247  ADP247     -0.2095
     21  C5        12.1060   14.2780   29.8880 C.2   247  ADP247      0.2526
     22  C6        13.0870   13.6220   30.7890 C.2   247  ADP247      0.4393
     23  N6        13.5560   12.3750   30.5200 N.pl3 247  ADP247      0.2180
     24  N1        13.4970   14.3180   31.8740 N.2   247  ADP247      0.0021
     25  C2        13.0430   15.5600   32.1390 C.3   247  ADP247      0.5254
     26  N3        12.1540   16.2160   31.3650 N.2   247  ADP247     -0.0055
     27  C4        11.6540   15.6390   30.2410 C.2   247  ADP247      0.3518
@<TRIPOS>BOND
     1     2     1    2
     2     1     8    1
     3     1     3    1
     4     1     4    1
     5     8     5    1
     6     7     5    2
     7     5     9    1
     8     5     6    1
     9    10     9    1
    10    10    11    1
    11    13    11    1
    12    13    14    1
    13    13    15    1
    14    11    12    1
    15    15    16    1
    16    15    17    1
    17    19    20    1
    18    19    18    1
    19    12    17    1
    20    20    21    2
    21    17    18    1
    22    18    27    1
    23    21    27    1
    24    21    22    1
    25    27    26    2
    26    23    22    1
    27    22    24    2
    28    26    25    1
    29    24    25    1
