@<TRIPOS>MOLECULE
3bf3_PAZ_A_1.pdb
 19 18 0 0 0
SMALL
GASTEIGER

@<TRIPOS>ATOM
      1  O8       -42.3730   10.8090   19.8070 O.2   248  PAZ248     -0.2224
      2  P1       -42.6080   12.1350   20.5410 P.3   248  PAZ248      0.5326
      3  O6       -43.9550   12.0890   21.2390 O.3   248  PAZ248     -0.1145
      4  O7       -41.4580   12.5380   21.4750 O.3   248  PAZ248     -0.1145
      5  O2       -42.8660   13.3740   19.5080 O.3   248  PAZ248     -0.2702
      6  C2       -42.4070   14.7320   19.5710 C.3   248  PAZ248      0.1565
      7  C1       -42.2210   15.2820   18.1310 C.3   248  PAZ248      0.0647
      8  C4       -41.2820   14.3010   17.4290 C.3   248  PAZ248      0.0056
      9  C3       -41.5570   16.6600   18.0980 C.3   248  PAZ248      0.0056
     10  C5       -43.6140   15.3980   17.4860 C.3   248  PAZ248      0.2312
     11  O5'      -44.4020   16.3860   18.1730 O.3   248  PAZ248     -0.2131
     12  C6       -43.6370   15.7490   16.0140 C.2   248  PAZ248      0.2719
     13  O6'      -43.4090   14.7680   15.1520 O.2   248  PAZ248     -0.2706
     14  N        -43.8910   16.9510   15.6500 N.am  248  PAZ248     -0.2027
     15  C8       -43.9950   17.4400   14.2530 C.3   248  PAZ248      0.1270
     16  C9       -43.1950   18.7330   14.1140 C.3   248  PAZ248      0.1374
     17  C        -43.6710   19.9040   14.9400 C.2   248  PAZ248      0.3667
     18  O        -44.3930   19.7480   15.9440 O.co2 248  PAZ248     -0.2456
     19  OXT      -43.2730   21.0310   14.5680 O.co2 248  PAZ248     -0.2456
@<TRIPOS>BOND
     1    16    15    1
     2    16    17    1
     3    15    14    1
     4    19    17   ar
     5    17    18   ar
     6    13    12    2
     7    14    12   am
     8    12    10    1
     9     8     7    1
    10    10     7    1
    11    10    11    1
    12     9     7    1
    13     7     6    1
    14     5     6    1
    15     5     2    1
    16     1     2    2
    17     2     3    1
    18     2     4    1
