@<TRIPOS>MOLECULE
3bf6_III_I_1.pdb
 29 30 0 0 0
SMALL
GASTEIGER

@<TRIPOS>ATOM
      1  N          0.1200    5.7670   31.6590 N.3     1  PHE1       -0.1228
      2  CA         1.1480    5.6700   30.5810 C.3     1  PHE1        0.1721
      3  C          0.7400    6.4890   29.3330 C.2     1  PHE1        0.2437
      4  O          1.2100    7.6160   29.1800 O.2     1  PHE1       -0.2733
      5  CB         1.4990    4.1940   30.2950 C.3     1  PHE1        0.0547
      6  CG         2.4530    3.9800   29.1380 C.ar    1  PHE1       -0.0202
      7  CD1        3.5510    4.8140   28.9380 C.ar    1  PHE1       -0.0042
      8  CD2        2.2620    2.9070   28.2700 C.ar    1  PHE1       -0.0042
      9  CE1        4.4220    4.5990   27.8750 C.ar    1  PHE1       -0.0003
     10  CE2        3.1300    2.6830   27.2070 C.ar    1  PHE1       -0.0003
     11  CZ         4.2130    3.5310   27.0110 C.ar    1  PHE1       -0.0000
     12  N         -0.1490    5.9560   28.4620 N.am    2  PRO2       -0.2718
     13  CA        -0.5010    6.7380   27.2720 C.3     2  PRO2        0.1535
     14  C         -1.5010    7.8460   27.5920 C.2     2  PRO2        0.2598
     15  O         -2.4420    7.6300   28.3570 O.2     2  PRO2       -0.2715
     16  CB        -1.1460    5.7030   26.3360 C.3     2  PRO2        0.0310
     17  CG        -1.0330    4.3740   27.0380 C.3     2  PRO2        0.0237
     18  CD        -0.8770    4.6780   28.4860 C.3     2  PRO2        0.0939
     19  N         -1.2970    9.0230   27.0070 N.am    3  ARG3       -0.1978
     20  CA        -2.1690   10.1660   27.2680 C.3     3  ARG3        0.1597
     21  C         -3.1720   10.3800   26.1360 C.2     3  ARG3        0.2287
     22  O         -4.1380   11.1330   26.2690 O.2     3  ARG3       -0.2864
     23  CB        -1.3390   11.4280   27.5210 C.3     3  ARG3        0.0334
     24  CG        -0.6030   11.4040   28.8510 C.3     3  ARG3        0.0492
     25  CD         0.3180   12.5940   29.0200 C.3     3  ARG3        0.2205
     26  NE         0.9080   12.6190   30.3570 N.pl3   3  ARG3       -0.0865
     27  CZ         1.8510   13.4670   30.7560 C.cat   3  ARG3        0.5346
     28  NH1        2.3350   14.3820   29.9250 N.pl3   3  ARG3        0.1354
     29  NH2        2.3150   13.3990   31.9970 N.pl3   3  ARG3        0.1354
@<TRIPOS>BOND
     1    21    22    2
     2    21    20    1
     3    16    17    1
     4    16    13    1
     5    19    20    1
     6    19    14   am
     7    11    10   ar
     8    11     9   ar
     9    17    18    1
    10    10     8   ar
    11    20    23    1
    12    13    14    1
    13    13    12    1
    14    23    24    1
    15    14    15    2
    16     9     7   ar
    17     8     6   ar
    18    12    18    1
    19    12     3   am
    20    24    25    1
    21     7     6   ar
    22    25    26    1
    23     6     5    1
    24     4     3    2
    25     3     2    1
    26    28    27    1
    27     5     2    1
    28    26    27    2
    29     2     1    1
    30    27    29    1
