@<TRIPOS>MOLECULE
3bfa_9OD_A_1.pdb
 13 12 0 0 0
SMALL
GASTEIGER

@<TRIPOS>ATOM
      1  O9        13.4370   14.1280   -3.6190 O.2   120  9OD120     -0.2960
      2  C9        13.2860   13.6530   -2.4990 C.2   120  9OD120      0.1511
      3  C10       11.9290   13.5640   -1.8630 C.3   120  9OD120      0.0722
      4  C8        14.4880   13.1390   -1.7300 C.3   120  9OD120      0.0645
      5  C7        15.4140   12.3510   -2.6570 C.3   120  9OD120      0.0078
      6  C6        16.5320   11.6440   -1.9050 C.3   120  9OD120      0.0008
      7  C5        17.5020   10.9540   -2.8630 C.3   120  9OD120      0.0047
      8  C4        18.9710   11.1610   -2.4680 C.3   120  9OD120      0.0263
      9  C3        19.8180   10.1520   -3.2120 C.2   120  9OD120     -0.0194
     10  C2        21.1550   10.0670   -3.1980 C.2   120  9OD120      0.0816
     11  C1        22.0830   10.9420   -2.4510 C.2   120  9OD120      0.3876
     12  OE1       23.3060   10.7090   -2.5680 O.co2 120  9OD120     -0.2406
     13  OE2       21.6660   11.8790   -1.7360 O.co2 120  9OD120     -0.2406
@<TRIPOS>BOND
     1     1     2    2
     2     9    10    2
     3     9     8    1
     4    10    11    1
     5     7     8    1
     6     7     6    1
     7     5     6    1
     8     5     4    1
     9    12    11   ar
    10     2     3    1
    11     2     4    1
    12    11    13   ar
