@<TRIPOS>MOLECULE
3bfb_9OD_A_1.pdb
 13 12 0 0 0
SMALL
GASTEIGER

@<TRIPOS>ATOM
      1  O9        14.6480   15.0550   -2.3540 O.2   121  9OD121     -0.2960
      2  C9        14.2070   13.9080   -2.3830 C.2   121  9OD121      0.1511
      3  C10       12.9930   13.5500   -3.2000 C.3   121  9OD121      0.0722
      4  C8        14.8960   12.8250   -1.5730 C.3   121  9OD121      0.0645
      5  C7        15.8250   11.9960   -2.4580 C.3   121  9OD121      0.0078
      6  C6        17.1900   11.7750   -1.8070 C.3   121  9OD121      0.0008
      7  C5        18.1160   11.0050   -2.7400 C.3   121  9OD121      0.0047
      8  C4        19.5840   11.1820   -2.3430 C.3   121  9OD121      0.0263
      9  C3        20.3490    9.9870   -2.8780 C.2   121  9OD121     -0.0194
     10  C2        21.6830    9.8330   -2.9290 C.2   121  9OD121      0.0816
     11  C1        22.7020   10.8150   -2.4900 C.2   121  9OD121      0.3876
     12  OE1       23.9040   10.5010   -2.6950 O.co2 121  9OD121     -0.2406
     13  OE2       22.3780   11.9050   -1.9530 O.co2 121  9OD121     -0.2406
@<TRIPOS>BOND
     1     3     2    1
     2    10     9    2
     3    10    11    1
     4     9     8    1
     5     7     8    1
     6     7     6    1
     7    12    11   ar
     8    11    13   ar
     9     5     6    1
    10     5     4    1
    11     2     1    2
    12     2     4    1
