@<TRIPOS>MOLECULE
3bfc_IM2_A_1.pdb
 20 20 0 0 0
SMALL
GASTEIGER

@<TRIPOS>ATOM
      1  C7        -1.1670    2.7680   15.6340 C.2   301  IM2301      0.2118
      2  C2         0.8610    6.5990   14.6080 C.2   301  IM2301      0.0466
      3  C6        -0.8780    3.4170   14.2690 C.3   301  IM2301      0.1217
      4  C5         0.4040    4.2680   14.4260 C.3   301  IM2301      0.1358
      5  C3         0.9510    6.0550   15.8610 C.2   301  IM2301      0.1614
      6  O7        -2.2840    2.8430   16.1210 O.2   301  IM2301     -0.2881
      7  C61       -0.7710    2.3380   13.1300 C.3   301  IM2301      0.1616
      8  O62        0.3320    1.4490   13.4190 O.3   301  IM2301     -0.2226
      9  C62       -0.4980    2.8340   11.6830 C.3   301  IM2301      0.0360
     10  N4         0.6360    4.7030   15.8210 N.2   301  IM2301     -0.2605
     11  C31        1.3330    6.7240   17.1400 C.2   301  IM2301      0.4052
     12  O31        2.0620    6.1230   18.0810 O.co2 301  IM2301     -0.2388
     13  O32        0.9570    7.8650   17.3730 O.co2 301  IM2301     -0.2388
     14  S21        1.1950    8.3130   14.1170 S.3   301  IM2301     -0.1104
     15  C22       -0.3850    9.0390   14.6950 C.3   301  IM2301      0.0856
     16  C23       -0.3290   10.5820   14.9910 C.3   301  IM2301      0.1259
     17  N24        0.9940   11.2070   14.7610 N.pl3 301  IM2301     -0.2155
     18  C25        1.0590   12.4350   14.0940 C.2   301  IM2301      0.2043
     19  N26        0.0690   13.1470   13.6190 N.2   301  IM2301     -0.1271
     20  C1         0.4350    5.5850   13.5990 C.2   301  IM2301      0.0060
@<TRIPOS>BOND
     1     9     7    1
     2     7     8    1
     3     7     3    1
     4    20     4    1
     5    20     2    2
     6    19    18    2
     7    18    17    1
     8    14     2    1
     9    14    15    1
    10     3     4    1
    11     3     1    1
    12     4    10    1
    13     2     5    1
    14    15    16    1
    15    17    16    1
    16     1     6    2
    17    10     5    2
    18     5    11    1
    19    11    13   ar
    20    11    12   ar
