@<TRIPOS>MOLECULE
3bff_FPM_C_1.pdb
 19 21 0 0 0
SMALL
GASTEIGER

@<TRIPOS>ATOM
      1  C2        27.3520   20.8570   19.6220 C.2     1  FPM1        0.0516
      2  C6        28.1550   19.1770   22.7330 C.3     1  FPM1        0.1364
      3  C5        27.3680   20.4840   22.2980 C.3     1  FPM1        0.1427
      4  C7        27.2800   18.4650   21.8140 C.2     1  FPM1        0.2347
      5  N4        26.5400   19.5830   21.4690 N.am    1  FPM1       -0.2442
      6  C3        26.5530   19.8450   20.0130 C.2     1  FPM1        0.1390
      7  S1        28.1070   21.5790   21.0530 S.3     1  FPM1       -0.0939
      8  C31       25.6630   19.0060   19.0680 C.2     1  FPM1        0.4015
      9  O7        27.2600   17.2660   21.5290 O.2     1  FPM1       -0.2743
     10  C61       27.9210   18.5200   24.1730 C.3     1  FPM1        0.1632
     11  O62       28.5240   17.2200   24.4800 O.3     1  FPM1       -0.2225
     12  C62       26.4680   18.6140   24.5410 C.3     1  FPM1        0.0361
     13  C14       27.7220   21.4750   18.2460 C.3     1  FPM1        0.1445
     14  C15       27.0960   22.8340   18.0120 C.3     1  FPM1        0.0373
     15  C16       28.0480   23.5280   17.0260 C.3     1  FPM1        0.0350
     16  C17       29.4100   22.9070   17.3460 C.3     1  FPM1        0.1426
     17  O18       29.1760   21.6740   18.0710 O.3     1  FPM1       -0.3513
     18  O32       24.9570   18.1440   19.5920 O.co2   1  FPM1       -0.2391
     19  O31       25.5650   19.2870   17.8360 O.co2   1  FPM1       -0.2391
@<TRIPOS>BOND
     1    15    16    1
     2    15    14    1
     3    16    17    1
     4    19     8   ar
     5    14    13    1
     6    17    13    1
     7    13     1    1
     8     8    18   ar
     9     8     6    1
    10     1     6    2
    11     1     7    1
    12     6     5    1
    13     7     3    1
    14     5     4   am
    15     5     3    1
    16     9     4    2
    17     4     2    1
    18     3     2    1
    19     2    10    1
    20    10    11    1
    21    10    12    1
