@<TRIPOS>MOLECULE
3bff_SFR_A_1.pdb
 19 20 0 0 0
SMALL
GASTEIGER

@<TRIPOS>ATOM
      1  C7        -0.7510    2.8040   15.7700 C.2   301  SFR301      0.2124
      2  C6        -0.3750    3.5090   14.3900 C.3   301  SFR301      0.1278
      3  N4         0.7700    4.8200   15.6830 N.2   301  SFR301     -0.2577
      4  C5         0.9540    4.3820   14.3210 C.3   301  SFR301      0.1605
      5  C3         1.0450    6.2170   15.9140 C.2   301  SFR301      0.1461
      6  C2         1.1500    6.9520   14.7500 C.3   301  SFR301      0.1226
      7  S1         0.9570    5.8800   13.3430 S.3   301  SFR301     -0.1086
      8  C31        1.1700    6.7360   17.3240 C.2   301  SFR301      0.4016
      9  O71       -1.9210    2.8840   16.0980 O.2   301  SFR301     -0.2881
     10  C61       -0.4260    2.6550   13.0460 C.3   301  SFR301      0.1621
     11  O62        0.2510    1.4220   12.9990 O.3   301  SFR301     -0.2226
     12  C62       -0.0690    3.4960   11.7390 C.3   301  SFR301      0.0361
     13  C14        1.3710    8.4320   14.5080 C.3   301  SFR301      0.1310
     14  C15        2.8360    8.7240   14.1160 C.3   301  SFR301      0.0334
     15  C16        2.7030    9.7080   12.9360 C.3   301  SFR301      0.0346
     16  C17        1.3610    9.3300   12.3380 C.3   301  SFR301      0.1422
     17  O18        0.5330    8.9710   13.4540 O.3   301  SFR301     -0.3550
     18  O32        1.3730    7.9500   17.5040 O.co2 301  SFR301     -0.2392
     19  O31        1.1230    5.9210   18.2660 O.co2 301  SFR301     -0.2392
@<TRIPOS>BOND
     1    12    10    1
     2    16    15    1
     3    16    17    1
     4    15    14    1
     5    11    10    1
     6    10     2    1
     7     7     4    1
     8     7     6    1
     9    17    13    1
    10    14    13    1
    11     4     2    1
    12     4     3    1
    13     2     1    1
    14    13     6    1
    15     6     5    1
    16     3     5    2
    17     1     9    2
    18     5     8    1
    19     8    18   ar
    20     8    19   ar
