@<TRIPOS>MOLECULE
3bfg_MER_A_1.pdb
 26 27 0 0 0
SMALL
GASTEIGER

@<TRIPOS>ATOM
      1  C1        -0.5670    2.8580   15.6360 C.2   301  MER301      0.2115
      2  C2         1.1980    6.6850   15.1670 C.3   301  MER301      0.0957
      3  C3        -0.3390    3.4240   14.1320 C.3   301  MER301      0.1175
      4  C4         0.8560    4.3810   14.5190 C.3   301  MER301      0.1141
      5  C5         1.1650    5.8630   16.2550 C.2   301  MER301      0.1428
      6  O6        -1.5880    2.9710   16.3370 O.2   301  MER301     -0.2882
      7  C7         0.0330    2.2430   13.1340 C.3   301  MER301      0.1613
      8  O8         0.0160    2.6580   11.8550 O.3   301  MER301     -0.2226
      9  C9        -0.8220    1.0370   13.4340 C.3   301  MER301      0.0360
     10  N10        1.0520    4.5920   15.9070 N.2   301  MER301     -0.2688
     11  C11        1.3070    6.2520   17.6200 C.2   301  MER301      0.4014
     12  O12        1.2930    5.3730   18.5090 O.co2 301  MER301     -0.2392
     13  O13        1.4320    7.5780   18.0080 O.co2 301  MER301     -0.2392
     14  S14        0.3520    8.3210   15.1380 S.3   301  MER301     -0.1341
     15  C15        1.5660    9.6680   14.7950 C.3   301  MER301      0.0669
     16  C16        2.0590    9.7480   13.3270 C.3   301  MER301      0.0337
     17  C17        1.0580   10.8190   12.7140 C.3   301  MER301      0.1197
     18  C18        0.8900    5.7820   13.9500 C.3   301  MER301      0.0387
     19  N19        0.1660   11.0940   13.8440 N.3   301  MER301     -0.2145
     20  C20       -0.5210    6.3180   13.5060 C.3   301  MER301      0.0033
     21  C21        1.0340   11.0430   15.0810 C.3   301  MER301      0.0996
     22  C22        1.8280   12.1050   12.1910 C.3   301  MER301      0.2287
     23  N23        3.2820   12.0140   12.0570 N.3   301  MER301     -0.2444
     24  O24        1.5120   13.1020   12.8930 O.3   301  MER301     -0.2034
     25  C25        4.1050   12.7870   12.9600 C.3   301  MER301      0.0918
     26  C26        3.6860   12.1660   10.6850 C.3   301  MER301      0.0918
@<TRIPOS>BOND
     1    26    23    1
     2     8     7    1
     3    23    22    1
     4    23    25    1
     5    22    17    1
     6    22    24    1
     7    17    16    1
     8    17    19    1
     9     7     9    1
    10     7     3    1
    11    16    15    1
    12    20    18    1
    13    19    21    1
    14    18     4    1
    15    18     2    1
    16     3     4    1
    17     3     1    1
    18     4    10    1
    19    15    21    1
    20    15    14    1
    21    14     2    1
    22     2     5    1
    23     1     6    2
    24    10     5    2
    25     5    11    1
    26    11    13   ar
    27    11    12   ar
