@<TRIPOS>MOLECULE
3bfh_PLM_A_1.pdb
 18 17 0 0 0
SMALL
GASTEIGER

@<TRIPOS>ATOM
      1  C1        22.6850    9.8920   -2.9570 C.2   121  PLM121      0.3649
      2  O1        23.6710   10.6710   -2.7810 O.co2 121  PLM121     -0.2457
      3  O2        22.7030    8.9330   -3.7600 O.co2 121  PLM121     -0.2457
      4  C2        21.3990   10.0920   -2.1850 C.3   121  PLM121      0.1141
      5  C3        20.3120   10.5350   -3.1520 C.3   121  PLM121      0.0118
      6  C4        18.9190   10.3860   -2.5620 C.3   121  PLM121      0.0006
      7  C5        18.1470   11.6970   -2.5640 C.3   121  PLM121      0.0000
      8  C6        16.6420   11.4670   -2.5580 C.3   121  PLM121      0.0000
      9  C7        15.8960   12.7250   -2.1160 C.3   121  PLM121      0.0000
     10  C8        14.4040   12.4270   -1.9470 C.3   121  PLM121      0.0000
     11  C9        13.4830   13.6330   -2.1780 C.3   121  PLM121      0.0000
     12  CA        12.0570   13.3280   -1.6910 C.3   121  PLM121      0.0000
     13  CB        11.4700   14.4420   -0.8290 C.3   121  PLM121      0.0000
     14  CC        11.7340   14.3070    0.6740 C.3   121  PLM121      0.0000
     15  CD        10.4490   14.2520    1.5180 C.3   121  PLM121      0.0000
     16  CE        10.6160   14.9050    2.8810 C.3   121  PLM121      0.0000
     17  CF        11.6660   14.2480    3.7750 C.3   121  PLM121      0.0000
     18  CG        12.8700   15.1300    3.9740 C.3   121  PLM121      0.0000
@<TRIPOS>BOND
     1     3     1   ar
     2     5     6    1
     3     5     4    1
     4     1     2   ar
     5     1     4    1
     6     7     6    1
     7     7     8    1
     8     8     9    1
     9    11    10    1
    10    11    12    1
    11     9    10    1
    12    12    13    1
    13    13    14    1
    14    14    15    1
    15    15    16    1
    16    16    17    1
    17    17    18    1
