@<TRIPOS>MOLECULE
3bfi_NDU_A_1.pdb
 23 24 0 0 0
SMALL
GASTEIGER

@<TRIPOS>ATOM
      1  P        -31.5890  -13.1200   24.4710 P.3   266  NDU266      0.5327
      2  OP1      -31.6060  -14.5560   24.8690 O.3   266  NDU266     -0.1145
      3  OP2      -30.5270  -12.3400   25.2220 O.3   266  NDU266     -0.1145
      4  OP3      -32.8830  -12.4290   24.4660 O.2   266  NDU266     -0.2224
      5  O5'      -31.1510  -13.1380   22.9150 O.3   266  NDU266     -0.2675
      6  C5'      -30.9280  -11.9330   22.1800 C.3   266  NDU266      0.1858
      7  C4'      -29.6420  -12.1220   21.3760 C.3   266  NDU266      0.1774
      8  C3'      -28.3260  -12.0330   22.1660 C.3   266  NDU266      0.1857
      9  O3'      -27.2740  -12.7280   21.4640 O.3   266  NDU266     -0.2203
     10  C2'      -28.0080  -10.5380   22.2050 C.3   266  NDU266      0.0871
     11  C1'      -28.4630  -10.1680   20.8240 C.3   266  NDU266      0.2049
     12  O4'      -29.5460  -11.0470   20.4630 O.3   266  NDU266     -0.3342
     13  N1       -28.8740   -8.7930   20.5150 N.am  266  NDU266     -0.1996
     14  C2       -27.9130   -7.7810   20.3960 C.1   266  NDU266      0.2803
     15  O2       -26.7190   -7.9900   20.6560 O.2   266  NDU266     -0.1922
     16  N3       -28.3140   -6.5820   20.0070 N.2   266  NDU266     -0.2476
     17  C4       -29.5740   -6.3010   19.6440 C.1   266  NDU266      0.2213
     18  O4       -29.8880   -5.1440   19.2610 O.2   266  NDU266     -0.2112
     19  C5       -30.5780   -7.3940   19.7420 C.3   266  NDU266      0.3033
     20  C6       -30.1930   -8.4490   20.6140 C.3   266  NDU266      0.1539
     21  N5       -31.9420   -7.1910   19.3860 N.pl3 266  NDU266      0.0514
     22  O51      -32.3720   -6.1450   18.9040 O.2   266  NDU266     -0.1299
     23  O52      -32.8330   -8.2240   19.6110 O.2   266  NDU266     -0.1299
@<TRIPOS>BOND
     1    22    21    2
     2    18    17    2
     3    21    23    2
     4    21    19    1
     5    17    19    1
     6    17    16    2
     7    19    20    1
     8    16    14    2
     9    14    13   am
    10    14    15    2
    11    12    11    1
    12    12     7    1
    13    13    20    1
    14    13    11    1
    15    11    10    1
    16     7     8    1
    17     7     6    1
    18     9     8    1
    19     8    10    1
    20     6     5    1
    21     5     1    1
    22     4     1    2
    23     1     2    1
    24     1     3    1
