@<TRIPOS>MOLECULE
3bfk_GDP_A_1.pdb
 28 30 0 0 0
SMALL
GASTEIGER

@<TRIPOS>ATOM
      1  PB        -1.3980   25.9520   23.7160 P.3   200  GDP200      0.5373
      2  O1B       -2.3030   26.9880   23.0660 O.3   200  GDP200     -0.1143
      3  O2B       -1.8140   25.6650   25.1320 O.3   200  GDP200     -0.1143
      4  O3B       -1.2880   24.7170   22.7910 O.2   200  GDP200     -0.2221
      5  O3A        0.0520   26.6530   23.8920 O.3   200  GDP200     -0.2261
      6  PA         1.3970   26.4350   22.9940 P.3   200  GDP200      0.2231
      7  O1A        1.9980   25.0370   23.0570 O.3   200  GDP200     -0.4370
      8  O2A        1.1460   26.8070   21.5450 O.2   200  GDP200     -0.5169
      9  O5'        2.3890   27.5160   23.6950 O.3   200  GDP200     -0.3111
     10  C5'        2.1240   28.9110   23.5750 C.3   200  GDP200      0.1813
     11  C4'        3.4000   29.7520   23.5430 C.3   200  GDP200      0.1799
     12  O4'        4.1150   29.6120   24.7800 O.3   200  GDP200     -0.3326
     13  C3'        4.3530   29.3490   22.4310 C.3   200  GDP200      0.2158
     14  O3'        5.0310   30.5090   21.9080 O.3   200  GDP200     -0.2175
     15  C2'        5.3410   28.4320   23.1070 C.3   200  GDP200      0.2310
     16  O2'        6.6010   28.4050   22.4200 O.3   200  GDP200     -0.2158
     17  C1'        5.3840   29.0050   24.5200 C.3   200  GDP200      0.2293
     18  N9         5.6830   27.9750   25.5600 N.pl3 200  GDP200     -0.2354
     19  C8         5.0970   26.7620   25.6880 C.3   200  GDP200      0.2246
     20  N7         5.6160   26.0880   26.7440 N.2   200  GDP200     -0.2322
     21  C5         6.5530   26.8640   27.3150 C.2   200  GDP200      0.2182
     22  C6         7.4840   26.7360   28.4530 C.1   200  GDP200      0.2372
     23  O6         7.4980   25.6980   29.1700 O.2   200  GDP200     -0.2069
     24  N1         8.2900   27.7670   28.7080 N.2   200  GDP200     -0.2485
     25  C2         8.3080   28.8990   27.9670 C.1   200  GDP200      0.2531
     26  N2         9.1540   29.8940   28.2880 N.pl3 200  GDP200     -0.0226
     27  N3         7.4870   29.0880   26.9000 N.2   200  GDP200     -0.3074
     28  C4         6.6120   28.1110   26.5250 C.2   200  GDP200      0.2300
@<TRIPOS>BOND
     1     8     6    2
     2    14    13    1
     3    16    15    1
     4    13    15    1
     5    13    11    1
     6     4     1    2
     7     6     7    1
     8     6     9    1
     9     6     5    1
    10     2     1    1
    11    15    17    1
    12    11    10    1
    13    11    12    1
    14    10     9    1
    15     1     5    1
    16     1     3    1
    17    17    12    1
    18    17    18    1
    19    18    19    1
    20    18    28    1
    21    19    20    1
    22    28    27    2
    23    28    21    1
    24    20    21    2
    25    27    25    2
    26    21    22    1
    27    25    26    1
    28    25    24    2
    29    22    24    2
    30    22    23    2
