@<TRIPOS>MOLECULE
3bfn_ADP_A_1.pdb
 27 29 0 0 0
SMALL
GASTEIGER

@<TRIPOS>ATOM
      1  PB        18.7300   33.9950   73.8420 P.3   802  ADP802      0.5373
      2  O1B       18.9330   35.3880   74.4290 O.3   802  ADP802     -0.1143
      3  O2B       18.9430   32.8900   74.8450 O.3   802  ADP802     -0.1143
      4  O3B       17.4940   33.7970   72.9900 O.2   802  ADP802     -0.2221
      5  PA        21.2590   34.7340   72.5870 P.3   802  ADP802      0.2231
      6  O1A       22.0940   34.6850   73.8410 O.3   802  ADP802     -0.4370
      7  O2A       20.9360   36.0320   71.9350 O.2   802  ADP802     -0.5169
      8  O3A       19.9170   33.8450   72.7560 O.3   802  ADP802     -0.2261
      9  O5'       22.0200   33.8780   71.4350 O.3   802  ADP802     -0.3111
     10  C5'       22.6690   32.6260   71.6630 C.3   802  ADP802      0.1813
     11  C4'       23.8700   32.5160   70.7250 C.3   802  ADP802      0.1821
     12  O4'       23.4110   32.6390   69.3600 O.3   802  ADP802     -0.3135
     13  C3'       24.8640   33.6520   70.9420 C.3   802  ADP802      0.2184
     14  O3'       26.2210   33.1870   70.8210 O.3   802  ADP802     -0.2174
     15  C2'       24.5410   34.6470   69.8410 C.3   802  ADP802      0.2570
     16  O2'       25.6830   35.3960   69.4510 O.3   802  ADP802     -0.2130
     17  C1'       24.0340   33.7540   68.7160 C.3   802  ADP802      0.3186
     18  N9        23.0550   34.4370   67.8460 N.pl3 802  ADP802     -0.1439
     19  C8        21.7750   34.7340   68.1840 C.3   802  ADP802      0.3377
     20  N7        21.1460   35.3510   67.1670 N.2   802  ADP802     -0.2095
     21  C5        22.0470   35.4430   66.1520 C.2   802  ADP802      0.2526
     22  C6        22.0520   35.9870   64.7800 C.2   802  ADP802      0.4393
     23  N6        20.9430   36.5670   64.2740 N.pl3 802  ADP802      0.2180
     24  N1        23.1780   35.9080   64.0400 N.2   802  ADP802      0.0021
     25  C2        24.2980   35.3450   64.5280 C.3   802  ADP802      0.5254
     26  N3        24.3560   34.8170   65.7780 N.2   802  ADP802     -0.0055
     27  C4        23.2850   34.8470   66.6100 C.2   802  ADP802      0.3518
@<TRIPOS>BOND
     1    24    25    1
     2    24    22    2
     3    23    22    1
     4    25    26    1
     5    22    21    1
     6    26    27    2
     7    21    27    1
     8    21    20    2
     9    27    18    1
    10    20    19    1
    11    18    19    1
    12    18    17    1
    13    17    12    1
    14    17    15    1
    15    12    11    1
    16    16    15    1
    17    15    13    1
    18    11    13    1
    19    11    10    1
    20    14    13    1
    21     9    10    1
    22     9     5    1
    23     7     5    2
    24     5     8    1
    25     5     6    1
    26     8     1    1
    27     4     1    2
    28     1     2    1
    29     1     3    1
