@<TRIPOS>MOLECULE
3bft_S2P_A_1.pdb
 12 12 0 0 0
SMALL
GASTEIGER

@<TRIPOS>ATOM
      1  CD2      -11.6930   27.1040   40.2530 C.1   1009  S2P1009     0.1769
      2  CG       -11.5500   25.9660   41.2070 C.2   1009  S2P1009     0.1531
      3  ND1      -11.2920   24.8240   40.5660 N.2   1009  S2P1009    -0.1836
      4  CB       -11.6940   26.1750   42.7000 C.3   1009  S2P1009     0.0892
      5  CA       -10.3180   26.4110   43.3730 C.3   1009  S2P1009     0.2010
      6  OD2      -11.9350   28.2150   40.7660 O.2   1009  S2P1009    -0.2201
      7  O        -11.2740   27.4990   45.3770 O.co2 1009  S2P1009    -0.2440
      8  C        -10.4690   26.6390   44.9170 C.2   1009  S2P1009     0.3823
      9  OXT       -9.6990   25.8490   45.5380 O.co2 1009  S2P1009    -0.2440
     10  NE2      -11.5470   26.7820   38.9290 N.2   1009  S2P1009    -0.1180
     11  N         -9.2920   25.2620   43.1590 N.3   1009  S2P1009    -0.1204
     12  SE1      -11.2190   25.0550   38.8120 S.3   1009  S2P1009     0.1277
@<TRIPOS>BOND
     1    12    10    1
     2    12     3    1
     3    10     1    2
     4     1     6    2
     5     1     2    1
     6     3     2    2
     7     2     4    1
     8     4     5    1
     9    11     5    1
    10     5     8    1
    11     8     7   ar
    12     8     9   ar
