@<TRIPOS>MOLECULE
3bfu_R2P_A_1.pdb
 12 12 0 0 0
SMALL
GASTEIGER

@<TRIPOS>ATOM
      1  ND1      -32.2300   -6.5760   43.1720 N.2   264  R2P264     -0.1836
      2  N        -31.3080   -4.1160   44.7160 N.3   264  R2P264     -0.1204
      3  CA       -31.2140   -3.8620   43.2200 C.3   264  R2P264      0.2010
      4  C        -30.4950   -2.5070   43.0600 C.2   264  R2P264      0.3823
      5  OD2      -29.7340   -7.3910   40.8890 O.2   264  R2P264     -0.2201
      6  CD2      -30.7230   -7.4440   41.6710 C.1   264  R2P264      0.1769
      7  NE2      -31.4560   -8.5460   41.8970 N.2   264  R2P264     -0.1180
      8  SE1      -32.6500   -8.2060   42.9730 S.3   264  R2P264      0.1277
      9  CG       -31.1780   -6.2870   42.4170 C.2   264  R2P264      0.1531
     10  CB       -30.4930   -4.9290   42.3070 C.3   264  R2P264      0.0892
     11  O        -30.4660   -1.8040   44.1040 O.co2 264  R2P264     -0.2440
     12  OXT      -30.0320   -2.2110   41.9160 O.co2 264  R2P264     -0.2440
@<TRIPOS>BOND
     1     5     6    2
     2     6     7    2
     3     6     9    1
     4     7     8    1
     5    12     4   ar
     6    10     9    1
     7    10     3    1
     8     9     1    2
     9     8     1    1
    10     4     3    1
    11     4    11   ar
    12     3     2    1
