@<TRIPOS>MOLECULE
3bfv_ADP_A_1.pdb
 27 29 0 0 0
SMALL
GASTEIGER

@<TRIPOS>ATOM
      1  PB         9.5420   13.9060   20.0800 P.3   301  ADP301      0.5373
      2  O1B        8.1570   14.4170   20.3730 O.3   301  ADP301     -0.1143
      3  O2B        9.5550   12.7330   19.1390 O.2   301  ADP301     -0.2221
      4  O3B       10.5580   14.9750   19.7320 O.3   301  ADP301     -0.1143
      5  PA        10.9690   13.8630   22.6440 P.3   301  ADP301      0.2231
      6  O1A       10.4820   15.2330   23.0430 O.3   301  ADP301     -0.4370
      7  O2A       12.4320   13.6490   22.3180 O.2   301  ADP301     -0.5169
      8  O3A       10.0450   13.2390   21.4660 O.3   301  ADP301     -0.2261
      9  O5'       10.6890   12.8120   23.8270 O.3   301  ADP301     -0.3111
     10  C5'        9.4540   12.8690   24.5460 C.3   301  ADP301      0.1813
     11  C4'        9.7310   12.6360   26.0250 C.3   301  ADP301      0.1821
     12  O4'       10.2180   11.3030   26.1880 O.3   301  ADP301     -0.3135
     13  C3'       10.8010   13.5780   26.5750 C.3   301  ADP301      0.2184
     14  O3'       10.4100   13.9880   27.8830 O.3   301  ADP301     -0.2174
     15  C2'       12.0590   12.7350   26.6500 C.3   301  ADP301      0.2570
     16  O2'       12.9150   13.0970   27.7390 O.3   301  ADP301     -0.2130
     17  C1'       11.4890   11.3370   26.8390 C.3   301  ADP301      0.3186
     18  N9        12.3430   10.2910   26.2420 N.pl3 301  ADP301     -0.1439
     19  C8        12.8270   10.2250   24.9830 C.3   301  ADP301      0.3377
     20  N7        13.5730    9.1010   24.8160 N.2   301  ADP301     -0.2095
     21  C5        13.5590    8.4390   25.9920 C.2   301  ADP301      0.2526
     22  C6        14.1280    7.1790   26.5240 C.2   301  ADP301      0.4393
     23  N6        14.8930    6.3870   25.7400 N.pl3 301  ADP301      0.2180
     24  N1        13.8620    6.8590   27.8170 N.2   301  ADP301      0.0021
     25  C2        13.1020    7.6370   28.6150 C.3   301  ADP301      0.5254
     26  N3        12.5520    8.7990   28.2000 N.2   301  ADP301     -0.0055
     27  C4        12.7430    9.2310   26.9240 C.2   301  ADP301      0.3518
@<TRIPOS>BOND
     1     3     1    2
     2     4     1    1
     3     1     2    1
     4     1     8    1
     5     8     5    1
     6     7     5    2
     7     5     6    1
     8     5     9    1
     9     9    10    1
    10    10    11    1
    11    20    19    1
    12    20    21    2
    13    19    18    1
    14    23    22    1
    15    21    22    1
    16    21    27    1
    17    11    12    1
    18    11    13    1
    19    12    17    1
    20    18    17    1
    21    18    27    1
    22    22    24    2
    23    13    15    1
    24    13    14    1
    25    15    17    1
    26    15    16    1
    27    27    26    2
    28    24    25    1
    29    26    25    1
