@<TRIPOS>MOLECULE
3bfx_A3P_A_1.pdb
 27 29 0 0 0
SMALL
GASTEIGER

@<TRIPOS>ATOM
      1  P1        17.4080   -5.2200   16.7480 P.3   4000  A3P4000     0.5327
      2  O1P       16.6690   -6.3730   16.0410 O.3   4000  A3P4000    -0.1145
      3  O2P       18.5330   -5.6400   17.6910 O.3   4000  A3P4000    -0.1145
      4  O3P       17.7830   -4.0570   15.8800 O.2   4000  A3P4000    -0.2224
      5  P2        10.5160   -5.1250   19.9400 P.3   4000  A3P4000     0.5327
      6  O4P       10.7110   -5.3050   21.4170 O.3   4000  A3P4000    -0.1145
      7  O5P        9.5550   -4.0240   19.5610 O.3   4000  A3P4000    -0.1145
      8  O6P       10.2740   -6.4420   19.2230 O.2   4000  A3P4000    -0.2224
      9  O5'       11.9490   -4.5490   19.4550 O.3   4000  A3P4000    -0.2675
     10  C5'       13.1020   -5.3820   19.4310 C.3   4000  A3P4000     0.1859
     11  C4'       14.2700   -4.4710   19.0020 C.3   4000  A3P4000     0.1796
     12  O4'       14.6320   -3.6550   20.1240 O.3   4000  A3P4000    -0.3136
     13  C3'       15.4990   -5.2960   18.6490 C.3   4000  A3P4000     0.1928
     14  O3'       16.3260   -4.5220   17.7420 O.3   4000  A3P4000    -0.2673
     15  C2'       16.1300   -5.4270   20.0200 C.3   4000  A3P4000     0.2543
     16  O2'       17.4650   -5.8910   19.9920 O.3   4000  A3P4000    -0.2131
     17  C1'       15.9830   -4.0040   20.5340 C.3   4000  A3P4000     0.3185
     18  N9        16.2180   -3.9280   22.0010 N.pl3 4000  A3P4000    -0.1439
     19  C8        15.7200   -4.7340   22.9820 C.3   4000  A3P4000     0.3377
     20  N7        16.1850   -4.3810   24.2000 N.2   4000  A3P4000    -0.2095
     21  C5        16.9660   -3.2740   24.0030 C.2   4000  A3P4000     0.2526
     22  C6        17.8020   -2.3780   24.8470 C.2   4000  A3P4000     0.4393
     23  N6        17.8730   -2.5400   26.2180 N.pl3 4000  A3P4000     0.2180
     24  N1        18.4780   -1.3880   24.2110 N.2   4000  A3P4000     0.0021
     25  C2        18.4560   -1.1990   22.8670 C.3   4000  A3P4000     0.5254
     26  N3        17.7190   -1.9670   22.0550 N.2   4000  A3P4000    -0.0055
     27  C4        17.0030   -3.0120   22.5620 C.2   4000  A3P4000     0.3518
@<TRIPOS>BOND
     1     4     1    2
     2     2     1    1
     3     1     3    1
     4     1    14    1
     5    14    13    1
     6    13    11    1
     7    13    15    1
     8    11    10    1
     9    11    12    1
    10     8     5    2
    11    10     9    1
    12     9     5    1
    13     7     5    1
    14     5     6    1
    15    16    15    1
    16    15    17    1
    17    12    17    1
    18    17    18    1
    19    18    27    1
    20    18    19    1
    21    26    27    2
    22    26    25    1
    23    27    21    1
    24    25    24    1
    25    19    20    1
    26    21    20    2
    27    21    22    1
    28    24    22    2
    29    22    23    1
