@<TRIPOS>MOLECULE
3bg3_BTI_A_1.pdb
 15 16 0 0 0
SMALL
GASTEIGER

@<TRIPOS>ATOM
      1  C11       15.5150  -56.8970   13.4060 C.2   2100  BTI2100     0.2074
      2  O11       15.6550  -57.6960   12.4880 O.2   2100  BTI2100    -0.2883
      3  C10       16.7300  -56.4460   14.1980 C.3   2100  BTI2100     0.0722
      4  C9        16.4970  -55.1110   14.8970 C.3   2100  BTI2100     0.0082
      5  C8        17.0090  -53.9450   14.0610 C.3   2100  BTI2100     0.0014
      6  C7        16.6290  -52.6080   14.6980 C.3   2100  BTI2100     0.0129
      7  C2        17.7840  -52.0440   15.5270 C.3   2100  BTI2100     0.0729
      8  S1        17.8900  -52.8120   17.1150 S.3   2100  BTI2100    -0.1369
      9  C6        18.9260  -51.5370   17.7480 C.3   2100  BTI2100     0.0848
     10  C5        18.5270  -50.2370   17.0500 C.3   2100  BTI2100     0.1509
     11  N3        17.5460  -49.6300   17.9390 N.2   2100  BTI2100    -0.1859
     12  C3        16.3250  -49.7080   17.4470 C.1   2100  BTI2100     0.2386
     13  O3        15.2400  -49.2980   18.0930 O.2   2100  BTI2100    -0.2023
     14  N2        16.3320  -50.2530   16.2400 N.2   2100  BTI2100    -0.1860
     15  C4        17.6930  -50.5470   15.7950 C.3   2100  BTI2100     0.1500
@<TRIPOS>BOND
     1     2     1    2
     2     1     3    1
     3     5     6    1
     4     5     4    1
     5     3     4    1
     6     6     7    1
     7     7    15    1
     8     7     8    1
     9    15    14    1
    10    15    10    1
    11    14    12    2
    12    10     9    1
    13    10    11    1
    14     8     9    1
    15    12    11    2
    16    12    13    2
