@<TRIPOS>MOLECULE
3bg5_BTI_A_1.pdb
 15 16 0 0 0
SMALL
GASTEIGER

@<TRIPOS>ATOM
      1  C11       82.1580  109.1220   40.8420 C.2   2000  BTI2000     0.2074
      2  O11       83.3610  108.9050   40.8240 O.2   2000  BTI2000    -0.2883
      3  C10       81.5880  110.3000   41.5980 C.3   2000  BTI2000     0.0722
      4  C9        82.3630  110.5350   42.8930 C.3   2000  BTI2000     0.0082
      5  C8        81.8260  109.6640   44.0230 C.3   2000  BTI2000     0.0014
      6  C7        82.6280  109.8470   45.3090 C.3   2000  BTI2000     0.0129
      7  C2        81.9230  109.1490   46.4720 C.3   2000  BTI2000     0.0729
      8  S1        82.4770  109.7340   48.0460 S.3   2000  BTI2000    -0.1369
      9  C6        81.9980  108.2500   48.8570 C.3   2000  BTI2000     0.0848
     10  C5        82.2000  107.1030   47.8730 C.3   2000  BTI2000     0.1509
     11  N3        83.5910  106.6910   47.9810 N.2   2000  BTI2000    -0.1859
     12  C3        84.2540  106.9110   46.8580 C.1   2000  BTI2000     0.2386
     13  O3        85.5540  106.6840   46.6770 O.2   2000  BTI2000    -0.2023
     14  N2        83.4660  107.4050   45.9270 N.2   2000  BTI2000    -0.1860
     15  C4        82.1250  107.6370   46.4420 C.3   2000  BTI2000     0.1500
@<TRIPOS>BOND
     1     2     1    2
     2     1     3    1
     3     3     4    1
     4     4     5    1
     5     5     6    1
     6     6     7    1
     7    14    15    1
     8    14    12    2
     9    15     7    1
    10    15    10    1
    11     7     8    1
    12    13    12    2
    13    12    11    2
    14    10    11    1
    15    10     9    1
    16     8     9    1
