@<TRIPOS>MOLECULE
3bg5_ATP_A_1.pdb
 31 33 0 0 0
SMALL
GASTEIGER

@<TRIPOS>ATOM
      1  PG        84.6660   47.9960    1.0960 P.3   2100  ATP2100     0.5373
      2  O1G       84.8260   49.4340    1.5380 O.3   2100  ATP2100    -0.1143
      3  O2G       84.3760   47.0350    2.2290 O.3   2100  ATP2100    -0.1143
      4  O3G       83.7770   47.8210   -0.1170 O.2   2100  ATP2100    -0.2221
      5  PB        87.4860   47.5910    1.4280 P.3   2100  ATP2100     0.2277
      6  O1B       87.2980   46.7810    2.6910 O.3   2100  ATP2100    -0.4368
      7  O2B       87.9720   49.0200    1.5380 O.2   2100  ATP2100    -0.5168
      8  O3B       86.1270   47.5600    0.5490 O.3   2100  ATP2100    -0.2258
      9  PA        89.6960   47.3550   -0.3330 P.3   2100  ATP2100     0.2189
     10  O1A       90.9690   46.8230    0.2780 O.3   2100  ATP2100    -0.4371
     11  O2A       89.5030   48.8460   -0.4750 O.2   2100  ATP2100    -0.5170
     12  O3A       88.4580   46.7250    0.4780 O.3   2100  ATP2100    -0.2700
     13  O5'       89.5120   46.6850   -1.7850 O.3   2100  ATP2100    -0.3112
     14  C5'       88.6280   47.2490   -2.7550 C.3   2100  ATP2100     0.1813
     15  C4'       89.3620   48.2420   -3.6540 C.3   2100  ATP2100     0.1821
     16  O4'       90.7710   48.2580   -3.3890 O.3   2100  ATP2100    -0.3135
     17  C3'       89.1880   47.8630   -5.1120 C.3   2100  ATP2100     0.2184
     18  O3'       88.2140   48.7020   -5.7310 O.3   2100  ATP2100    -0.2174
     19  C2'       90.5540   48.0550   -5.7340 C.3   2100  ATP2100     0.2570
     20  O2'       90.6560   49.3390   -6.3550 O.3   2100  ATP2100    -0.2130
     21  C1'       91.5280   47.9660   -4.5710 C.3   2100  ATP2100     0.3186
     22  N9        92.1080   46.5890   -4.5250 N.pl3 2100  ATP2100    -0.1439
     23  C8        91.8740   45.6560   -3.5810 C.3   2100  ATP2100     0.3377
     24  N7        92.5500   44.5070   -3.8320 N.2   2100  ATP2100    -0.2095
     25  C5        93.2410   44.6910   -4.9680 C.2   2100  ATP2100     0.2526
     26  C6        94.1640   43.8850   -5.8020 C.2   2100  ATP2100     0.4393
     27  N6        94.4870   42.6180   -5.4580 N.pl3 2100  ATP2100     0.2180
     28  N1        94.6770   44.4500   -6.9160 N.2   2100  ATP2100     0.0021
     29  C2        94.3630   45.7060   -7.2760 C.3   2100  ATP2100     0.5254
     30  N3        93.5360   46.4950   -6.5650 N.2   2100  ATP2100    -0.0055
     31  C4        92.9500   46.0600   -5.4210 C.2   2100  ATP2100     0.3518
@<TRIPOS>BOND
     1    29    28    1
     2    29    30    1
     3    28    26    2
     4    30    31    2
     5    20    19    1
     6    26    27    1
     7    26    25    1
     8    19    17    1
     9    19    21    1
    10    18    17    1
    11    31    25    1
    12    31    22    1
    13    17    15    1
    14    25    24    2
    15    21    22    1
    16    21    16    1
    17    22    23    1
    18    24    23    1
    19    15    16    1
    20    15    14    1
    21    14    13    1
    22    13     9    1
    23    11     9    2
    24     9    10    1
    25     9    12    1
    26     4     1    2
    27    12     5    1
    28     8     1    1
    29     8     5    1
    30     1     2    1
    31     1     3    1
    32     5     7    2
    33     5     6    1
