@<TRIPOS>MOLECULE
3bg8_INH_A_1.pdb
 11 10 0 0 0
SMALL
GASTEIGER

@<TRIPOS>ATOM
      1  C16       50.5930   24.8570   11.6280 C.2   612  INH612      0.3201
      2  O17       50.6080   24.7300   10.4260 O.2   612  INH612     -0.2633
      3  N18       51.0020   23.8640   12.4520 N.am  612  INH612     -0.1978
      4  C19       51.4800   22.6030   11.8750 C.3   612  INH612      0.1157
      5  C20       50.3110   21.7560   11.3590 C.3   612  INH612      0.0271
      6  C21       49.3640   21.4900   12.5340 C.3   612  INH612      0.0487
      7  C22       48.1690   20.6280   12.1230 C.3   612  INH612      0.2205
      8  N23       48.5680   19.2220   12.0290 N.pl3 612  INH612     -0.0865
      9  C24       47.6950   18.2860   11.5050 C.cat 612  INH612      0.5346
     10  N25       46.3850   18.6010   11.2230 N.pl3 612  INH612      0.1354
     11  N26       48.1090   17.0770   11.2580 N.pl3 612  INH612      0.1354
@<TRIPOS>BOND
     1     2     1    2
     2    10     9    1
     3    11     9    1
     4     5     4    1
     5     5     6    1
     6     9     8    2
     7     1     3   am
     8     4     3    1
     9     8     7    1
    10     7     6    1
