@<TRIPOS>MOLECULE
3bgb_LJG_B_1.pdb
 35 36 0 0 0
SMALL
GASTEIGER

@<TRIPOS>ATOM
      1  N1        13.4870  -18.6170  -17.9370 N.3   2501  LJG2501    -0.2150
      2  C5        12.3890  -18.1910  -18.8500 C.3   2501  LJG2501     0.1079
      3  C6        11.1410  -17.6480  -18.1310 C.3   2501  LJG2501     0.1146
      4  C8         9.1060  -19.1030  -18.8250 C.3   2501  LJG2501     0.0958
      5  C10        8.9960  -17.6440  -20.9120 C.3   2501  LJG2501     0.0015
      6  C13        9.4260  -17.7770  -15.3940 C.ar  2501  LJG2501     0.1223
      7  C15        7.6470  -16.2860  -14.7590 C.ar  2501  LJG2501     0.0194
      8  C17        9.9050  -15.9360  -13.9170 C.ar  2501  LJG2501     0.0194
      9  C22       14.3970  -22.2320  -15.7470 C.3   2501  LJG2501     0.0958
     10  C24       13.7870  -22.0200  -13.2770 C.3   2501  LJG2501     0.0015
     11  C28       14.9750  -24.5300  -18.7430 C.ar  2501  LJG2501     0.0213
     12  C2        14.3760  -19.6080  -18.6030 C.3   2501  LJG2501     0.1079
     13  C3        14.9670  -20.6810  -17.6800 C.3   2501  LJG2501     0.1146
     14  N4        14.1930  -21.7880  -17.1510 N.3   2501  LJG2501    -0.1541
     15  S26       13.1130  -22.5420  -18.1440 S.O2  2501  LJG2501     0.0633
     16  O35       12.4210  -23.4820  -17.2740 O.2   2501  LJG2501    -0.1528
     17  O34       12.3090  -21.6700  -18.9570 O.2   2501  LJG2501    -0.1528
     18  C27       14.2180  -23.4470  -19.2050 C.ar  2501  LJG2501     0.1223
     19  C32       14.2920  -23.0550  -20.5450 C.ar  2501  LJG2501     0.0213
     20  C31       15.1540  -23.7260  -21.4150 C.ar  2501  LJG2501     0.0194
     21  C30       15.9320  -24.7900  -20.9530 C.ar  2501  LJG2501     0.0892
     22  N33       16.8150  -25.4410  -21.8430 N.pl3 2501  LJG2501    -0.1281
     23  C29       15.8090  -25.2190  -19.6270 C.ar  2501  LJG2501     0.0194
     24  C23       14.1520  -21.2360  -14.5670 C.3   2501  LJG2501     0.0178
     25  C25       15.4300  -20.3810  -14.3150 C.3   2501  LJG2501     0.0015
     26  N7        10.0890  -18.6200  -17.8590 N.3   2501  LJG2501    -0.1541
     27  S12        9.9690  -19.2140  -16.3060 S.O2  2501  LJG2501     0.0633
     28  O21        8.8840  -20.1610  -16.3150 O.2   2501  LJG2501    -0.1528
     29  O20       11.2840  -19.5210  -15.8610 O.2   2501  LJG2501    -0.1528
     30  C18       10.3350  -17.0830  -14.5910 C.ar  2501  LJG2501     0.0213
     31  C16        8.5660  -15.5450  -14.0100 C.ar  2501  LJG2501     0.0892
     32  N19        8.1300  -14.3980  -13.3090 N.pl3 2501  LJG2501    -0.1281
     33  C14        8.0860  -17.4030  -15.4800 C.ar  2501  LJG2501     0.0213
     34  C9         9.4880  -19.0040  -20.3330 C.3   2501  LJG2501     0.0178
     35  C11        8.8550  -20.1690  -21.1360 C.3   2501  LJG2501     0.0015
@<TRIPOS>BOND
     1    22    21    1
     2    20    21   ar
     3    20    19   ar
     4    35    34    1
     5    21    23   ar
     6     5    34    1
     7    19    18   ar
     8    34     4    1
     9    23    11   ar
    10    18    11   ar
    11    18    15    1
    12    17    15    2
    13     2     3    1
    14     2     1    1
    15     4    26    1
    16    12     1    1
    17    12    13    1
    18    15    16    2
    19    15    14    1
    20     3    26    1
    21    26    27    1
    22    13    14    1
    23    14     9    1
    24    28    27    2
    25    27    29    2
    26    27     6    1
    27     9    24    1
    28    33     6   ar
    29    33     7   ar
    30     6    30   ar
    31     7    31   ar
    32    30     8   ar
    33    24    25    1
    34    24    10    1
    35    31     8   ar
    36    31    32    1
