@<TRIPOS>MOLECULE
3bgc_LJH_A_1.pdb
 41 44 0 0 0
SMALL
GASTEIGER

@<TRIPOS>ATOM
      1  N1       -13.3820   18.9010  -17.8500 N.3   2501  LJH2501    -0.2150
      2  C5       -14.2520   19.9470  -18.4590 C.3   2501  LJH2501     0.1079
      3  C6       -14.8450   20.9590  -17.4680 C.3   2501  LJH2501     0.1149
      4  C8        -8.7430   18.9390  -17.9890 C.3   2501  LJH2501     0.1221
      5  C10       -8.4930   18.5970  -20.4970 C.ar  2501  LJH2501    -0.0029
      6  C13       -9.8200   20.9900  -21.0350 C.ar  2501  LJH2501    -0.0003
      7  C17       -8.1500   17.2640  -15.0420 C.ar  2501  LJH2501     0.0213
      8  C28      -16.1350   20.4060  -13.2470 C.ar  2501  LJH2501    -0.0003
      9  C2       -12.1640   18.6730  -18.6780 C.3   2501  LJH2501     0.1079
     10  C3       -11.0850   17.8590  -17.9090 C.3   2501  LJH2501     0.1149
     11  N4        -9.9890   18.6150  -17.3040 N.3   2501  LJH2501    -0.1496
     12  C27      -15.7270   21.2150  -14.3070 C.ar  2501  LJH2501    -0.0029
     13  C31      -13.4870   21.2080  -13.4320 C.ar  2501  LJH2501    -0.0029
     14  C30      -13.9010   20.4540  -12.3350 C.ar  2501  LJH2501    -0.0003
     15  C29      -15.2500   20.1080  -12.2040 C.ar  2501  LJH2501    -0.0000
     16  C25      -13.8740   22.4580  -15.5850 C.3   2501  LJH2501     0.1221
     17  N7       -13.9590   21.9910  -16.9630 N.3   2501  LJH2501    -0.1496
     18  C18       -7.7200   16.0600  -14.4590 C.ar  2501  LJH2501     0.0194
     19  C16       -9.5100   17.5760  -14.9800 C.ar  2501  LJH2501     0.1223
     20  C14       -9.5870   20.5950  -19.7150 C.ar  2501  LJH2501    -0.0029
     21  C9        -8.9500   19.3840  -19.4380 C.ar  2501  LJH2501    -0.0045
     22  C11       -8.6900   19.0040  -21.8130 C.ar  2501  LJH2501    -0.0003
     23  S15      -10.1040   19.1010  -15.7120 S.O2  2501  LJH2501     0.0636
     24  O24       -9.1370   20.1340  -15.4550 O.2   2501  LJH2501    -0.1528
     25  O23      -11.4960   19.2250  -15.4010 O.2   2501  LJH2501    -0.1528
     26  C21      -10.4610   16.7560  -14.3650 C.ar  2501  LJH2501     0.0213
     27  C20      -10.0180   15.5740  -13.7700 C.ar  2501  LJH2501     0.0194
     28  C19       -8.6730   15.2170  -13.8630 C.ar  2501  LJH2501     0.0892
     29  N22       -8.2860   13.9910  -13.2910 N.pl3 2501  LJH2501    -0.1281
     30  C12       -9.3170   20.2210  -22.0850 C.ar  2501  LJH2501    -0.0000
     31  S32      -12.9500   22.7540  -18.0350 S.O2  2501  LJH2501     0.0636
     32  O41      -12.1450   21.7670  -18.7190 O.2   2501  LJH2501    -0.1528
     33  O40      -12.3010   23.7860  -17.2520 O.2   2501  LJH2501    -0.1528
     34  C33      -14.0640   23.5050  -19.1970 C.ar  2501  LJH2501     0.1223
     35  C38      -14.8730   24.5730  -18.7900 C.ar  2501  LJH2501     0.0213
     36  C37      -15.7500   25.1620  -19.7010 C.ar  2501  LJH2501     0.0194
     37  C36      -15.8240   24.6960  -21.0150 C.ar  2501  LJH2501     0.0892
     38  N39      -16.7480   25.2980  -21.8970 N.pl3 2501  LJH2501    -0.1281
     39  C35      -15.0050   23.6430  -21.4250 C.ar  2501  LJH2501     0.0194
     40  C34      -14.1210   23.0480  -20.5140 C.ar  2501  LJH2501     0.0213
     41  C26      -14.3890   21.6180  -14.4270 C.ar  2501  LJH2501    -0.0045
@<TRIPOS>BOND
     1    30    22   ar
     2    30     6   ar
     3    38    37    1
     4    22     5   ar
     5    39    37   ar
     6    39    40   ar
     7     6    20   ar
     8    37    36   ar
     9    40    34   ar
    10     5    21   ar
    11    20    21   ar
    12    36    35   ar
    13    21     4    1
    14    34    35   ar
    15    34    31    1
    16    32    31    2
    17     9    10    1
    18     9     1    1
    19     2     1    1
    20     2     3    1
    21    31    33    2
    22    31    17    1
    23     4    11    1
    24    10    11    1
    25     3    17    1
    26    11    23    1
    27    17    16    1
    28    23    24    2
    29    23    25    2
    30    23    19    1
    31    16    41    1
    32     7    19   ar
    33     7    18   ar
    34    19    26   ar
    35    18    28   ar
    36    41    12   ar
    37    41    13   ar
    38    26    27   ar
    39    12     8   ar
    40    28    27   ar
    41    28    29    1
    42    13    14   ar
    43     8    15   ar
    44    14    15   ar
