@<TRIPOS>MOLECULE
3bgd_PM6_A_1.pdb
 10 11 0 0 0
SMALL
GASTEIGER

@<TRIPOS>ATOM
      1  N9        -8.5920   23.3280   44.4660 N.2   301  PM6301     -0.1911
      2  C4        -9.4440   23.8460   45.3470 C.1   301  PM6301      0.0571
      3  N3       -10.5150   23.3600   45.9950 N.2   301  PM6301     -0.1903
      4  C2       -11.1980   24.1170   46.8440 C.3   301  PM6301      0.2699
      5  N1       -10.8560   25.3730   47.0850 N.2   301  PM6301     -0.2002
      6  C6        -9.7960   25.9130   46.4680 C.1   301  PM6301      0.0136
      7  C5        -9.0550   25.1510   45.5750 C.2   301  PM6301      0.1908
      8  N7        -7.9790   25.3890   44.8280 N.2   301  PM6301     -0.2251
      9  C8        -7.7010   24.2730   44.1480 C.3   301  PM6301      0.2622
     10  S6        -9.3480   27.5550   46.7930 S.2   301  PM6301      0.0131
@<TRIPOS>BOND
     1     9     1    1
     2     9     8    1
     3     1     2    2
     4     8     7    2
     5     2     7    1
     6     2     3    2
     7     7     6    1
     8     3     4    1
     9     6    10    2
    10     6     5    2
    11     4     5    1
