@<TRIPOS>MOLECULE
3bgd_SAH_A_1.pdb
 26 28 0 0 0
SMALL
GASTEIGER

@<TRIPOS>ATOM
      1  N         -4.3100   29.6210   49.5510 N.3   300  SAH300     -0.1208
      2  CA        -4.4210   28.3680   50.3550 C.3   300  SAH300      0.1952
      3  CB        -5.8850   28.0500   50.7710 C.3   300  SAH300      0.0422
      4  CG        -6.8260   27.8640   49.5880 C.3   300  SAH300      0.0597
      5  SD        -8.6070   27.8290   50.1070 S.3   300  SAH300     -0.1375
      6  C         -3.8480   27.1310   49.6670 C.2   300  SAH300      0.3819
      7  O         -3.3090   27.1800   48.5350 O.co2 300  SAH300     -0.2441
      8  OXT       -3.9380   26.0510   50.2780 O.co2 300  SAH300     -0.2441
      9  C5'       -9.0160   29.5840   50.4540 C.3   300  SAH300      0.0899
     10  C4'       -8.7450   30.0310   51.9180 C.3   300  SAH300      0.1630
     11  O4'       -9.1470   31.4070   52.0940 O.3   300  SAH300     -0.3153
     12  C3'       -9.5180   29.2290   52.9600 C.3   300  SAH300      0.2168
     13  O3'       -8.5590   28.9390   53.9530 O.3   300  SAH300     -0.2175
     14  C2'      -10.5400   30.2080   53.5790 C.3   300  SAH300      0.2569
     15  O2'      -10.6000   29.9580   54.9910 O.3   300  SAH300     -0.2130
     16  C1'       -9.9000   31.5620   53.3640 C.3   300  SAH300      0.3185
     17  N9       -10.7930   32.6650   52.9470 N.pl3 300  SAH300     -0.1439
     18  C8       -11.8510   32.5780   52.1280 C.3   300  SAH300      0.3377
     19  N7       -12.3480   33.7930   51.9800 N.2   300  SAH300     -0.2095
     20  C5       -11.5910   34.6660   52.6510 C.2   300  SAH300      0.2526
     21  C6       -11.6470   36.0380   52.8840 C.2   300  SAH300      0.4393
     22  N6       -12.5680   36.8990   52.3510 N.pl3 300  SAH300      0.2180
     23  N1       -10.6990   36.5330   53.6730 N.2   300  SAH300      0.0021
     24  C2        -9.7580   35.8050   54.2460 C.3   300  SAH300      0.5254
     25  N3        -9.7210   34.5080   54.0700 N.2   300  SAH300     -0.0055
     26  C4       -10.6230   33.9230   53.2850 C.2   300  SAH300      0.3518
@<TRIPOS>BOND
     1     7     6   ar
     2     1     2    1
     3     4     5    1
     4     4     3    1
     5     6     8   ar
     6     6     2    1
     7     5     9    1
     8     2     3    1
     9     9    10    1
    10    10    11    1
    11    10    12    1
    12    19    18    1
    13    19    20    2
    14    11    16    1
    15    18    17    1
    16    22    21    1
    17    20    21    1
    18    20    26    1
    19    21    23    2
    20    17    26    1
    21    17    16    1
    22    12    14    1
    23    12    13    1
    24    26    25    2
    25    16    14    1
    26    14    15    1
    27    23    24    1
    28    25    24    1
