@<TRIPOS>MOLECULE
3bgg_BMP_A_1.pdb
 22 23 0 0 0
SMALL
GASTEIGER

@<TRIPOS>ATOM
      1  P         12.2520  -13.5620  -11.0960 P.3   1000  BMP1000     0.5327
      2  OP1       13.3630  -12.7790  -11.7630 O.3   1000  BMP1000    -0.1145
      3  OP2       10.9500  -13.2710  -11.8190 O.2   1000  BMP1000    -0.2224
      4  OP3       12.5380  -15.0010  -10.7610 O.3   1000  BMP1000    -0.1145
      5  O5'       11.9740  -12.8320   -9.6930 O.3   1000  BMP1000    -0.2675
      6  C5'       12.9790  -12.5400   -8.7240 C.3   1000  BMP1000     0.1859
      7  C4'       12.2150  -12.0590   -7.4890 C.3   1000  BMP1000     0.1801
      8  O4'       13.1280  -11.8630   -6.4150 O.3   1000  BMP1000    -0.3319
      9  C3'       11.6030  -10.6870   -7.6960 C.3   1000  BMP1000     0.2158
     10  O3'       10.3980  -10.6460   -6.9230 O.3   1000  BMP1000    -0.2175
     11  C2'       12.6260   -9.7190   -7.1260 C.3   1000  BMP1000     0.2320
     12  O2'       11.9810   -8.5440   -6.5960 O.3   1000  BMP1000    -0.2157
     13  C1'       13.3150  -10.5130   -6.0280 C.3   1000  BMP1000     0.2425
     14  N1        14.7730  -10.2690   -5.8540 N.am  1000  BMP1000    -0.1473
     15  C2        15.6610  -10.4070   -6.8450 C.1   1000  BMP1000     0.2863
     16  O2        15.3020  -10.7230   -7.9890 O.2   1000  BMP1000    -0.1918
     17  N3        16.9870  -10.1720   -6.6580 N.2   1000  BMP1000    -0.2489
     18  C4        17.5120   -9.8190   -5.4700 C.1   1000  BMP1000     0.2018
     19  O4        18.7710   -9.6610   -5.3940 O.2   1000  BMP1000    -0.2129
     20  C5        16.6670   -9.6670   -4.3780 C.3   1000  BMP1000     0.2213
     21  C6        15.2890   -9.8960   -4.5950 C.2   1000  BMP1000     0.2591
     22  O1        14.4720   -9.7980   -3.6500 O.2   1000  BMP1000    -0.2725
@<TRIPOS>BOND
     1     3     1    2
     2     2     1    1
     3     1     4    1
     4     1     5    1
     5     5     6    1
     6     6     7    1
     7    16    15    2
     8     9     7    1
     9     9    11    1
    10     9    10    1
    11     7     8    1
    12    11    12    1
    13    11    13    1
    14    15    17    2
    15    15    14   am
    16    17    18    2
    17     8    13    1
    18    13    14    1
    19    14    21   am
    20    18    19    2
    21    18    20    1
    22    21    20    1
    23    21    22    2
