@<TRIPOS>MOLECULE
3bgi_SAH_A_1.pdb
 26 28 0 0 0
SMALL
GASTEIGER

@<TRIPOS>ATOM
      1  N         27.9140   61.8270   15.9200 N.3   300  SAH300     -0.1159
      2  CA        27.8290   62.9890   15.0040 C.3   300  SAH300      0.2168
      3  CB        26.3600   63.3740   14.6540 C.2   300  SAH300      0.0105
      4  CG        25.3060   63.2790   15.8060 C.2   300  SAH300      0.0284
      5  SD        23.5410   63.6550   15.3320 S.3   300  SAH300     -0.1108
      6  C         28.5270   64.2080   15.5950 C.2   300  SAH300      0.3860
      7  O         28.5010   64.4250   16.8130 O.co2 300  SAH300     -0.2437
      8  OXT       29.1080   65.0000   14.8340 O.co2 300  SAH300     -0.2437
      9  C5'       22.9950   62.0070   14.7890 C.3   300  SAH300      0.0945
     10  C4'       23.4890   61.6700   13.3740 C.3   300  SAH300      0.1634
     11  O4'       23.0100   60.3370   13.1810 O.3   300  SAH300     -0.3152
     12  C3'       22.8150   62.5310   12.2860 C.3   300  SAH300      0.2168
     13  O3'       23.7920   62.8490   11.2720 O.3   300  SAH300     -0.2175
     14  C2'       21.6960   61.6440   11.7350 C.3   300  SAH300      0.2569
     15  O2'       21.4640   61.8080   10.3200 O.3   300  SAH300     -0.2130
     16  C1'       22.2510   60.2250   11.9230 C.3   300  SAH300      0.3185
     17  N9        21.3320   59.0920   12.3000 N.pl3 300  SAH300     -0.1439
     18  C8        20.2960   59.1420   13.1490 C.3   300  SAH300      0.3377
     19  N7        19.7950   57.9150   13.2920 N.2   300  SAH300     -0.2095
     20  C5        20.5220   57.0560   12.5630 C.2   300  SAH300      0.2526
     21  C6        20.4850   55.6760   12.3240 C.2   300  SAH300      0.4393
     22  N6        19.5520   54.8820   12.9000 N.pl3 300  SAH300      0.2180
     23  N1        21.4100   55.1300   11.5210 N.2   300  SAH300      0.0021
     24  C2        22.3370   55.8790   10.9260 C.3   300  SAH300      0.5254
     25  N3        22.3870   57.1960   11.1390 N.2   300  SAH300     -0.0055
     26  C4        21.5020   57.8130   11.9420 C.2   300  SAH300      0.3518
@<TRIPOS>BOND
     1    15    14    1
     2    24    25    1
     3    24    23    1
     4    25    26    2
     5    13    12    1
     6    23    21    2
     7    14    16    1
     8    14    12    1
     9    16    17    1
    10    16    11    1
    11    26    17    1
    12    26    20    1
    13    12    10    1
    14    17    18    1
    15    21    20    1
    16    21    22    1
    17    20    19    2
    18    18    19    1
    19    11    10    1
    20    10     9    1
    21     3     2    1
    22     3     4    2
    23     9     5    1
    24     8     6   ar
    25     2     6    1
    26     2     1    1
    27     5     4    1
    28     6     7   ar
