@<TRIPOS>MOLECULE
3bgj_U5P_A_1.pdb
 21 22 0 0 0
SMALL
GASTEIGER

@<TRIPOS>ATOM
      1  N1        15.8660    8.0890    6.5710 N.am  3000  U5P3000    -0.1766
      2  C2        16.7760    8.9600    7.0220 C.1   3000  U5P3000     0.2845
      3  N3        17.4360    8.7940    8.1850 N.2   3000  U5P3000    -0.2452
      4  C4        17.2190    7.7060    8.9410 C.1   3000  U5P3000     0.2182
      5  C5        16.3020    6.7670    8.5220 C.2   3000  U5P3000     0.1242
      6  C6        15.6310    6.9900    7.3140 C.2   3000  U5P3000     0.0929
      7  O2        16.9930    9.9930    6.3790 O.2   3000  U5P3000    -0.1918
      8  O4        17.8280    7.5290    9.9900 O.2   3000  U5P3000    -0.2085
      9  C1'       15.2660    8.2740    5.2330 C.3   3000  U5P3000     0.2401
     10  C2'       14.2860    9.3680    4.8690 C.3   3000  U5P3000     0.2319
     11  O2'       12.9680    8.8500    4.9110 O.3   3000  U5P3000    -0.2157
     12  C3'       14.6690    9.7420    3.4290 C.3   3000  U5P3000     0.2158
     13  C4'       16.1630    9.4310    3.3130 C.3   3000  U5P3000     0.1801
     14  O3'       13.9350    8.9630    2.4830 O.3   3000  U5P3000    -0.2175
     15  O4'       16.4070    8.4440    4.3400 O.3   3000  U5P3000    -0.3320
     16  C5'       17.0000   10.7120    3.5310 C.3   3000  U5P3000     0.1859
     17  O5'       16.8660   11.6040    2.4210 O.3   3000  U5P3000    -0.2675
     18  P         17.5530   13.0680    2.2810 P.3   3000  U5P3000     0.5327
     19  O1P       16.6890   13.7000    1.2240 O.2   3000  U5P3000    -0.2224
     20  O2P       17.4960   13.7180    3.6180 O.3   3000  U5P3000    -0.1145
     21  O3P       18.9420   12.8290    1.7980 O.3   3000  U5P3000    -0.1145
@<TRIPOS>BOND
     1    19    18    2
     2    21    18    1
     3    18    17    1
     4    18    20    1
     5    17    16    1
     6    14    12    1
     7    13    12    1
     8    13    16    1
     9    13    15    1
    10    12    10    1
    11    15     9    1
    12    10    11    1
    13    10     9    1
    14     9     1    1
    15     7     2    2
    16     1     2   am
    17     1     6    1
    18     2     3    2
    19     6     5    2
    20     3     4    2
    21     5     4    1
    22     4     8    2
