@<TRIPOS>MOLECULE
3bgl_RID_A_1.pdb
 41 44 0 0 0
SMALL
GASTEIGER

@<TRIPOS>ATOM
      1  N1         3.5320    6.3320  -11.8520 N.ar    2  RID2       -0.3293
      2  N3         0.5930    6.7530  -15.5360 N.3     2  RID2       -0.1503
      3  C5         3.2870    5.1110  -12.3100 C.ar    2  RID2        0.0609
      4  C6         2.6960    8.6620  -11.9900 C.3     2  RID2        0.0397
      5  C7         4.6720    6.6130  -10.9710 C.3     2  RID2        0.1084
      6  C8         4.2520    6.6630   -9.5220 C.3     2  RID2        0.0574
      7  C10        5.0850    6.1690   -7.2390 C.3     2  RID2        0.0664
      8  C13        1.4040    9.1500  -11.3240 C.3     2  RID2        0.0063
      9  C15        5.5120    2.0760  -12.4930 C.ar    2  RID2        0.0297
     10  C17        1.7930    7.3120  -16.1590 C.3     2  RID2        0.1279
     11  C20        2.0200    6.6010  -17.4920 C.3     2  RID2        0.1613
     12  C21        3.4430    3.0970  -10.9510 C.ar    2  RID2        0.0037
     13  C22       -0.0260    2.1260  -13.9490 C.ar    2  RID2        0.0000
     14  C24        3.9920    1.8660  -10.6230 C.ar    2  RID2        0.0297
     15  C26       -0.6260    6.6820  -16.3520 C.3     2  RID2        0.1279
     16  C28        0.5390    1.7080  -15.1450 C.ar    2  RID2        0.0000
     17  O5        -0.7840    6.3690  -13.6010 O.2     2  RID2       -0.1527
     18  S1         0.4110    7.0330  -14.0530 S.O2    2  RID2        0.0645
     19  O2         0.2650    8.4510  -13.9000 O.2     2  RID2       -0.1527
     20  C23       -0.2590    6.0000  -17.6670 C.3     2  RID2        0.1613
     21  O1         0.8370    6.6730  -18.2880 O.3     2  RID2       -0.3507
     22  C2         1.7200    6.4860  -13.1760 C.ar    2  RID2        0.1351
     23  C1         2.0980    5.1660  -13.1560 C.ar    2  RID2        0.0355
     24  C31        1.5300    3.9720  -13.8440 C.ar    2  RID2        0.0027
     25  C25        0.4730    3.2530  -13.2980 C.ar    2  RID2        0.0001
     26  C19        1.6080    2.4170  -15.6900 C.ar    2  RID2        0.0000
     27  C16        2.1090    3.5430  -15.0340 C.ar    2  RID2        0.0001
     28  C12        2.6220    7.2140  -12.3540 C.ar    2  RID2        0.0553
     29  C14        3.1040    9.4910  -13.1890 C.3     2  RID2        0.0063
     30  C27        3.9250    3.8070  -12.0490 C.ar    2  RID2        0.0160
     31  C30        5.0240    1.3630  -11.4000 C.ar    2  RID2        0.1401
     32  F1         5.5450    0.1770  -11.0800 F       2  RID2       -0.2042
     33  C18        4.9660    3.3130  -12.8200 C.ar    2  RID2        0.0037
     34  C9         5.4850    6.6240   -8.6300 C.3     2  RID2        0.1565
     35  O4         6.0470    7.9190   -8.5640 O.3     2  RID2       -0.2230
     36  C11        4.9460    4.6550   -7.1820 C.3     2  RID2        0.1658
     37  O3         6.2040    4.0640   -7.4530 O.3     2  RID2       -0.2225
     38  C35        4.4590    4.2280   -5.8020 C.3     2  RID2        0.1469
     39  C36        3.9800    2.7930   -5.8530 C.2     2  RID2        0.3674
     40  O7         2.9190    2.5100   -6.3990 O.co2   2  RID2       -0.2456
     41  O6         4.7200    1.8340   -5.3020 O.co2   2  RID2       -0.2456
@<TRIPOS>BOND
     1    21    20    1
     2    21    11    1
     3    20    15    1
     4    11    10    1
     5    15     2    1
     6    10     2    1
     7    26    16   ar
     8    26    27   ar
     9     2    18    1
    10    16    13   ar
    11    27    24   ar
    12    18    19    2
    13    18    17    2
    14    18    22    1
    15    13    25   ar
    16    24    25   ar
    17    24    23    1
    18    29     4    1
    19    22    23   ar
    20    22    28   ar
    21    23     3   ar
    22    33     9   ar
    23    33    30   ar
    24     9    31   ar
    25    28     4    1
    26    28     1   ar
    27     3    30    1
    28     3     1   ar
    29    30    12   ar
    30     4     8    1
    31     1     5    1
    32    31    32    1
    33    31    14   ar
    34     5     6    1
    35    12    14   ar
    36     6    34    1
    37    34    35    1
    38    34     7    1
    39    37    36    1
    40     7    36    1
    41    36    38    1
    42    40    39   ar
    43    39    38    1
    44    39    41   ar
