@<TRIPOS>MOLECULE
3bgp_VX1_A_1.pdb
 23 26 0 0 0
SMALL
GASTEIGER

@<TRIPOS>ATOM
      1  N1        20.1800   30.8870   -1.0710 N.pl3 314  VX1314     -0.0345
      2  C2        20.7840   31.5580   -0.0210 C.1   314  VX1314      0.1864
      3  N3        20.9980   30.9140    1.1410 N.2   314  VX1314     -0.1673
      4  C4        21.5830   31.5320    2.1850 C.2   314  VX1314      0.1145
      5  C5        21.9800   32.8730    2.0710 C.2   314  VX1314      0.0545
      6  C6        21.7410   33.5360    0.8290 C.2   314  VX1314      0.1457
      7  N7        21.1440   32.8410   -0.1750 N.2   314  VX1314     -0.3352
      8  C8        22.1290   34.9740    0.6120 C.ar  314  VX1314      0.0308
      9  C9        22.3240   35.8590    1.7310 C.ar  314  VX1314      0.0042
     10  C10       22.6790   37.1840    1.5580 C.ar  314  VX1314      0.0226
     11  C11       22.8630   37.7150    0.2330 C.ar  314  VX1314      0.1229
     12  N12       23.1850   38.8750   -0.2820 N.ar  314  VX1314     -0.0770
     13  O13       23.2210   38.8600   -1.4880 O.2   314  VX1314     -0.3534
     14  C14       22.9240   37.6680   -2.0420 C.ar  314  VX1314      0.1767
     15  C15       22.8980   37.3920   -3.5140 C.ar  314  VX1314      0.0373
     16  C16       22.6760   36.0790   -4.0550 C.ar  314  VX1314      0.0040
     17  C17       22.6630   35.8870   -5.4520 C.ar  314  VX1314      0.0115
     18  C18       22.8700   36.9850   -6.3200 C.ar  314  VX1314      0.0577
     19 CL19       22.8530   36.7450   -8.0380 Cl    314  VX1314     -0.0822
     20  C20       23.0880   38.2740   -5.7990 C.ar  314  VX1314      0.0115
     21  C21       23.1040   38.4840   -4.4140 C.ar  314  VX1314      0.0040
     22  C22       22.6630   36.8070   -0.9450 C.ar  314  VX1314      0.0580
     23  C23       22.2970   35.4470   -0.7110 C.ar  314  VX1314      0.0073
@<TRIPOS>BOND
     1    19    18    1
     2    18    20   ar
     3    18    17   ar
     4    20    21   ar
     5    17    16   ar
     6    21    15   ar
     7    16    15   ar
     8    15    14    1
     9    14    13   ar
    10    14    22   ar
    11    13    12   ar
    12     1     2    1
    13    22    23   ar
    14    22    11   ar
    15    23     8   ar
    16    12    11   ar
    17     7     2    2
    18     7     6    2
    19     2     3    2
    20    11    10   ar
    21     8     6    1
    22     8     9   ar
    23     6     5    1
    24     3     4    1
    25    10     9   ar
    26     5     4    2
