@<TRIPOS>MOLECULE
3bgq_VX2_A_1.pdb
 26 29 0 0 0
SMALL
GASTEIGER

@<TRIPOS>ATOM
      1  C1       -21.5640   39.2750   -0.8230 C.3   314  VX2314      0.4186
      2  N2       -16.2310   34.6350    0.9100 N.ar  314  VX2314     -0.1269
      3  C3       -20.6710   39.3180    1.6790 C.ar  314  VX2314      0.0039
      4  C4       -19.7840   38.8080    2.7170 C.ar  314  VX2314      0.0000
      5  C5       -18.8380   37.7400    2.4120 C.ar  314  VX2314      0.0031
      6  C9       -16.3130   34.7450   -0.4160 C.ar  314  VX2314      0.1868
      7  C10      -15.6650   34.1930   -1.5590 C.ar  314  VX2314      0.0436
      8  C12      -17.1340   35.6220   -3.0730 C.ar  314  VX2314      0.1678
      9  C13      -18.7260   36.7960   -4.5320 C.3   314  VX2314      0.0941
     10  C2       -20.6350   38.7610    0.3000 C.ar  314  VX2314      0.0715
     11  C7       -19.6690   37.6890    0.0450 C.ar  314  VX2314      0.0070
     12  C11      -16.0860   34.6410   -2.8710 C.ar  314  VX2314      0.0407
     13  C15      -19.4950   39.1950   -4.7490 C.3   314  VX2314      0.0018
     14  N1       -17.0520   35.4020    1.6060 N.ar  314  VX2314     -0.1269
     15  F1       -22.8460   39.1240   -0.4020 F     314  VX2314     -0.1659
     16  F2       -21.4520   38.5530   -1.9700 F     314  VX2314     -0.1659
     17  F3       -21.2250   40.5650   -1.0910 F     314  VX2314     -0.1659
     18  C6       -18.7630   37.1610    1.0590 C.ar  314  VX2314      0.0376
     19  C8       -17.7620   36.1100    0.6880 C.ar  314  VX2314      0.1866
     20  N3       -17.5350   36.0030   -4.3410 N.pl3 314  VX2314     -0.2207
     21  C14      -18.3410   38.2660   -4.4010 C.3   314  VX2314      0.0216
     22  C16      -20.1000   38.8660   -6.1070 C.3   314  VX2314      0.0001
     23  C17      -20.5320   37.4090   -6.2070 C.3   314  VX2314      0.0018
     24  C18      -19.3900   36.4560   -5.8840 C.3   314  VX2314      0.0216
     25  N4       -17.7050   36.1100   -1.9040 N.ar  314  VX2314     -0.1458
     26  N5       -17.3310   35.7150   -0.5950 N.ar  314  VX2314     -0.1901
@<TRIPOS>BOND
     1    23    22    1
     2    23    24    1
     3    22    13    1
     4    24     9    1
     5    13    21    1
     6     9    21    1
     7     9    20    1
     8    20     8    1
     9     8    12   ar
    10     8    25   ar
    11    12     7   ar
    12    16     1    1
    13    25    26   ar
    14     7     6   ar
    15    17     1    1
    16     1    15    1
    17     1    10    1
    18    26     6   ar
    19    26    19   ar
    20     6     2   ar
    21    11    10   ar
    22    11    18   ar
    23    10     3   ar
    24    19    18    1
    25    19    14   ar
    26     2    14   ar
    27    18     5   ar
    28     3     4   ar
    29     5     4   ar
