@<TRIPOS>MOLECULE
3bgr_T27_A_1.pdb
 28 30 0 0 0
SMALL
GASTEIGER

@<TRIPOS>ATOM
      1  C1        49.5550  -25.5260   38.1810 C.ar  556  T27556     -0.0068
      2  N2        52.6180  -25.8690   33.2270 N.2   556  T27556     -0.1683
      3  C3        49.1180  -27.6230   39.4610 C.ar  556  T27556      0.0001
      4  C4        50.4610  -28.0110   39.2570 C.ar  556  T27556     -0.0030
      5  C5        51.3690  -27.1970   38.5330 C.ar  556  T27556     -0.0068
      6  C6        50.9100  -25.9210   37.9720 C.ar  556  T27556      0.0651
      7  C7        48.9920  -24.2290   37.6400 C.3   556  T27556      0.0324
      8  C2        48.6740  -26.3810   38.9200 C.ar  556  T27556     -0.0030
      9  C8        52.7830  -27.7210   38.3760 C.3   556  T27556      0.0324
     10  N1        51.7930  -25.1020   37.2310 N.pl3 556  T27556     -0.1834
     11  C9        53.1110  -24.7390   33.8310 C.2   556  T27556      0.1158
     12  C10       52.8780  -24.4080   35.1680 C.2   556  T27556      0.0720
     13  C11       52.0940  -25.3160   35.8700 C.2   556  T27556      0.2178
     14  N3        51.5970  -26.4370   35.2840 N.2   556  T27556     -0.3189
     15  C12       51.8590  -26.6990   33.9940 C.1   556  T27556      0.1709
     16  N4        51.3610  -27.8500   33.3740 N.pl3 556  T27556     -0.1357
     17  C13       49.3430  -31.2880   34.9450 C.ar  556  T27556      0.0685
     18  C14       49.9110  -31.3470   33.6440 C.ar  556  T27556      0.0116
     19  C15       50.5880  -30.2130   33.0970 C.ar  556  T27556      0.0180
     20  C16       50.7100  -29.0050   33.8440 C.ar  556  T27556      0.0826
     21  C17       50.1260  -28.9850   35.1550 C.ar  556  T27556      0.0180
     22  C18       49.4540  -30.1080   35.6970 C.ar  556  T27556      0.0116
     23  N5        48.0910  -33.3300   35.9420 N.1   556  T27556     -0.1908
     24  C19       48.6570  -32.4200   35.4970 C.1   556  T27556      0.1004
     25  C20       47.3640  -28.0660   41.1840 C.2   556  T27556      0.0780
     26  C21       48.1690  -28.4820   40.2010 C.2   556  T27556      0.0109
     27  N6        45.7170  -29.6550   42.3540 N.1   556  T27556     -0.1908
     28  C22       46.4640  -28.9470   41.8310 C.1   556  T27556      0.1011
@<TRIPOS>BOND
     1    19    18   ar
     2    19    20   ar
     3     2    11    1
     4     2    15    2
     5    16    20    1
     6    16    15    1
     7    18    17   ar
     8    11    12    2
     9    20    21   ar
    10    15    14    2
    11    17    24    1
    12    17    22   ar
    13    21    22   ar
    14    12    13    1
    15    14    13    2
    16    24    23    3
    17    13    10    1
    18    10     6    1
    19     7     1    1
    20     6     1   ar
    21     6     5   ar
    22     1     8   ar
    23     9     5    1
    24     5     4   ar
    25     8     3   ar
    26     4     3   ar
    27     3    26    1
    28    26    25    2
    29    25    28    1
    30    28    27    3
