@<TRIPOS>MOLECULE
3bgs_DIH_A_1.pdb
 19 21 0 0 0
SMALL
GASTEIGER

@<TRIPOS>ATOM
      1  O5'       17.4940   12.1340   59.8980 O.3   301  DIH301     -0.2203
      2  C5'       16.7320   10.9600   60.1650 C.3   301  DIH301      0.1860
      3  C4'       15.3500   11.3370   60.7030 C.3   301  DIH301      0.0807
      4  C6'       14.4050   11.3140   59.5270 C.3   301  DIH301      0.0776
      5  C3'       15.2100   12.7530   61.2600 C.3   301  DIH301      0.1717
      6  O3'       14.1980   12.6870   62.3130 O.3   301  DIH301     -0.2215
      7  C2'       14.7430   13.6140   60.0630 C.3   301  DIH301      0.1057
      8  N1'       14.6250   12.6590   58.9290 N.3   301  DIH301     -0.2665
      9  C10       13.6400   12.9170   57.8490 C.3   301  DIH301      0.1023
     10  C9        14.2510   12.1500   56.6800 C.2   301  DIH301      0.0325
     11  C8        15.3140   12.5680   55.8720 C.2   301  DIH301      0.0983
     12  N7        15.6060   11.6060   54.9580 N.2   301  DIH301     -0.2310
     13  C5        14.7670   10.5260   55.1120 C.2   301  DIH301      0.1804
     14  C6        14.5940    9.2850   54.4940 C.1   301  DIH301      0.1716
     15  O6        15.3310    8.9110   53.5410 O.2   301  DIH301     -0.2206
     16  N1        13.6190    8.4360   54.9600 N.2   301  DIH301     -0.1739
     17  C2        12.8200    8.7810   55.9870 C.3   301  DIH301      0.2626
     18  N3        12.9580    9.9320   56.6180 N.2   301  DIH301     -0.2415
     19  C4        13.9200   10.8040   56.1780 C.2   301  DIH301      0.1058
@<TRIPOS>BOND
     1    15    14    2
     2    14    16    2
     3    14    13    1
     4    12    13    2
     5    12    11    1
     6    16    17    1
     7    13    19    1
     8    11    10    2
     9    17    18    1
    10    19    18    2
    11    19    10    1
    12    10     9    1
    13     9     8    1
    14     8     4    1
    15     8     7    1
    16     4     3    1
    17     1     2    1
    18     7     5    1
    19     2     3    1
    20     3     5    1
    21     5     6    1
