@<TRIPOS>MOLECULE
3bgv_SAH_C_1.pdb
 26 28 0 0 0
SMALL
GASTEIGER

@<TRIPOS>ATOM
      1  N          4.4100   36.2110   66.8910 N.3   315  SAH315     -0.1208
      2  CA         5.2160   37.0780   67.8160 C.3   315  SAH315      0.1952
      3  CB         6.6100   37.4490   67.3080 C.3   315  SAH315      0.0422
      4  CG         6.6320   38.2280   66.0040 C.3   315  SAH315      0.0597
      5  SD         8.3170   38.7210   65.6190 S.3   315  SAH315     -0.1375
      6  C          4.4230   38.3160   68.1900 C.2   315  SAH315      0.3819
      7  O          3.3890   38.5890   67.6020 O.co2 315  SAH315     -0.2441
      8  OXT        4.7390   39.0540   69.1210 O.co2 315  SAH315     -0.2441
      9  C5'        8.6120   37.4090   64.3880 C.3   315  SAH315      0.0899
     10  C4'        9.1920   36.1200   64.9890 C.3   315  SAH315      0.1630
     11  O4'        9.3160   35.1040   64.0120 O.3   315  SAH315     -0.3153
     12  C3'       10.5720   36.3350   65.6020 C.3   315  SAH315      0.2168
     13  O3'       10.5850   35.8390   66.9390 O.3   315  SAH315     -0.2175
     14  C2'       11.5100   35.5520   64.6980 C.3   315  SAH315      0.2569
     15  O2'       12.6760   35.0800   65.3770 O.3   315  SAH315     -0.2130
     16  C1'       10.5510   34.4580   64.2410 C.3   315  SAH315      0.3185
     17  N9        10.9870   33.7260   63.0410 N.pl3 315  SAH315     -0.1439
     18  C8        11.6090   34.2220   61.8850 C.3   315  SAH315      0.3377
     19  N7        11.8230   33.1740   61.0510 N.2   315  SAH315     -0.2095
     20  C5        11.3670   32.0410   61.6630 C.2   315  SAH315      0.2526
     21  C6        11.3390   30.7200   61.2690 C.2   315  SAH315      0.4393
     22  N6        11.8580   30.4080   60.0770 N.pl3 315  SAH315      0.2180
     23  N1        10.7970   29.7480   62.1220 N.2   315  SAH315      0.0021
     24  C2        10.2830   30.0770   63.3580 C.3   315  SAH315      0.5254
     25  N3        10.2950   31.4090   63.7450 N.2   315  SAH315     -0.0055
     26  C4        10.8290   32.3620   62.9060 C.2   315  SAH315      0.3518
@<TRIPOS>BOND
     1    22    21    1
     2    19    20    2
     3    19    18    1
     4    21    20    1
     5    21    23    2
     6    20    26    1
     7    18    17    1
     8    23    24    1
     9    26    17    1
    10    26    25    2
    11    17    16    1
    12    24    25    1
    13    11    16    1
    14    11    10    1
    15    16    14    1
    16     9    10    1
    17     9     5    1
    18    14    15    1
    19    14    12    1
    20    10    12    1
    21    12    13    1
    22     5     4    1
    23     4     3    1
    24     1     2    1
    25     3     2    1
    26     7     6   ar
    27     2     6    1
    28     6     8   ar
