@<TRIPOS>MOLECULE
3bgx_MEF_A_1.pdb
 33 36 0 0 0
SMALL
GASTEIGER

@<TRIPOS>ATOM
      1  OE2       43.9540   27.6200   44.4850 O.co2 266  MEF266     -0.2457
      2  CD        44.6790   26.8840   45.1550 C.2   266  MEF266      0.3649
      3  OE1       44.2970   26.6700   46.4150 O.co2 266  MEF266     -0.2457
      4  CG        45.9430   26.2240   44.5970 C.3   266  MEF266      0.1164
      5  CB        46.1850   26.5480   43.1070 C.3   266  MEF266      0.0451
      6  CA        46.8580   25.4030   42.3170 C.3   266  MEF266      0.1986
      7  CT        48.2520   25.0520   42.7820 C.2   266  MEF266      0.3842
      8  O1        48.5820   23.8950   43.4040 O.co2 266  MEF266     -0.2437
      9  O2        49.1020   25.9010   42.5510 O.co2 266  MEF266     -0.2437
     10  N         46.0180   24.2260   42.3380 N.am  266  MEF266     -0.1918
     11  C         45.0600   24.0720   41.4220 C.2   266  MEF266      0.2652
     12  O         44.8050   24.9210   40.5780 O.2   266  MEF266     -0.2684
     13  N10       42.0490   19.1340   41.5180 N.pl3 266  MEF266     -0.2923
     14  CM        42.6900   18.2560   40.5090 C.3   266  MEF266      0.1706
     15  N5        41.9870   18.7130   39.2680 N.3   266  MEF266     -0.2275
     16  C9        40.5950   19.2230   41.1420 C.3   266  MEF266      0.1101
     17  C6        40.5540   18.8030   39.6860 C.3   266  MEF266      0.1058
     18  C7        39.8830   19.7690   38.7820 C.3   266  MEF266      0.1547
     19  N8        40.2590   19.3910   37.3870 N.2   266  MEF266     -0.2096
     20  C8A       41.5620   19.2950   37.0370 C.1   266  MEF266      0.1050
     21  C4A       42.4810   18.9360   38.0160 C.3   266  MEF266      0.2774
     22  N1        41.9490   19.5560   35.7660 N.2   266  MEF266     -0.2726
     23  C2        43.2500   19.4510   35.4400 C.1   266  MEF266      0.2603
     24  NA2       43.6120   19.6980   34.1800 N.pl3 266  MEF266     -0.0221
     25  N3        44.1820   19.1070   36.3540 N.2   266  MEF266     -0.2515
     26  C4        43.8370   18.8420   37.6290 C.1   266  MEF266      0.2219
     27  O4        44.7280   18.5190   38.4440 O.2   266  MEF266     -0.2109
     28  C11       44.2810   22.7900   41.4280 C.ar  266  MEF266      0.0551
     29  C12       44.8100   21.6320   42.0170 C.ar  266  MEF266      0.0058
     30  C13       44.0690   20.4690   42.0330 C.ar  266  MEF266      0.0147
     31  C16       43.0210   22.7720   40.8370 C.ar  266  MEF266      0.0058
     32  C15       42.2820   21.6040   40.8530 C.ar  266  MEF266      0.0147
     33  C14       42.7960   20.4490   41.4650 C.ar  266  MEF266      0.0488
@<TRIPOS>BOND
     1    24    23    1
     2    23    22    2
     3    23    25    2
     4    22    20    2
     5    25    26    2
     6    20    19    2
     7    20    21    1
     8    19    18    1
     9    26    21    1
    10    26    27    2
    11    21    15    1
    12    18    17    1
    13    15    17    1
    14    15    14    1
    15    17    16    1
    16    14    13    1
    17    12    11    2
    18    31    32   ar
    19    31    28   ar
    20    32    33   ar
    21    16    13    1
    22    11    28    1
    23    11    10   am
    24    28    29   ar
    25    33    13    1
    26    33    30   ar
    27    29    30   ar
    28     6    10    1
    29     6     7    1
    30     6     5    1
    31     9     7   ar
    32     7     8   ar
    33     5     4    1
    34     1     2   ar
    35     4     2    1
    36     2     3   ar
