@<TRIPOS>MOLECULE
3bgx_TMP_A_1.pdb
 21 22 0 0 0
SMALL
GASTEIGER

@<TRIPOS>ATOM
      1  P         40.6950   13.8790   31.2780 P.3   265  TMP265      0.5327
      2  O1P       41.8410   12.9730   31.5710 O.3   265  TMP265     -0.1145
      3  O2P       40.6130   14.2710   29.7950 O.2   265  TMP265     -0.2224
      4  O3P       39.3990   13.4830   31.9290 O.3   265  TMP265     -0.1145
      5  O5'       41.1490   15.2710   31.8390 O.3   265  TMP265     -0.2675
      6  C5'       41.1180   15.6420   33.2330 C.3   265  TMP265      0.1858
      7  C4'       42.4310   15.5230   33.9640 C.3   265  TMP265      0.1774
      8  O4'       42.6160   16.4320   35.0400 O.3   265  TMP265     -0.3339
      9  C3'       43.8630   15.2950   33.4210 C.3   265  TMP265      0.1857
     10  O3'       44.8310   16.2890   33.1300 O.3   265  TMP265     -0.2203
     11  C2'       44.3250   14.8060   34.8070 C.3   265  TMP265      0.0874
     12  C1'       43.5440   15.6920   35.7320 C.3   265  TMP265      0.2090
     13  N1        43.3080   15.4240   37.1070 N.am  265  TMP265     -0.1794
     14  C2        44.2860   15.0170   37.9850 C.1   265  TMP265      0.2844
     15  O2        45.4750   14.8570   37.6240 O.2   265  TMP265     -0.1918
     16  N3        43.9520   14.8160   39.2800 N.2   265  TMP265     -0.2455
     17  C4        42.7220   14.9740   39.7520 C.1   265  TMP265      0.2134
     18  O4        42.4290   14.8030   40.9810 O.2   265  TMP265     -0.2088
     19  C5        41.6610   15.3590   38.8230 C.2   265  TMP265      0.0891
     20  C5M       40.2740   15.5380   39.3560 C.3   265  TMP265      0.0462
     21  C6        42.0190   15.5670   37.5120 C.2   265  TMP265      0.0877
@<TRIPOS>BOND
     1     3     1    2
     2     1     2    1
     3     1     5    1
     4     1     4    1
     5     5     6    1
     6    10     9    1
     7     6     7    1
     8     9     7    1
     9     9    11    1
    10     7     8    1
    11    11    12    1
    12     8    12    1
    13    12    13    1
    14    13    21    1
    15    13    14   am
    16    21    19    2
    17    15    14    2
    18    14    16    2
    19    19    20    1
    20    19    17    1
    21    16    17    2
    22    17    18    2
