@<TRIPOS>MOLECULE
3bgz_VX3_A_1.pdb
 24 27 0 0 0
SMALL
GASTEIGER

@<TRIPOS>ATOM
      1  O2       -16.3530   34.6390    1.3060 O.co2 314  VX3314     -0.2405
      2  C16      -19.4690   37.5860   -1.0230 C.2   314  VX3314      0.0320
      3  C19      -22.3520   39.8790   -1.9770 C.ar  314  VX3314      0.0000
      4  C3       -16.6360   35.5370    2.2610 C.2   314  VX3314      0.3902
      5  O4       -15.9970   35.5420    3.3100 O.co2 314  VX3314     -0.2405
      6  C5       -17.6710   36.5480    1.9860 C.ar  314  VX3314      0.1092
      7  C6       -18.1840   36.6870    0.6720 C.ar  314  VX3314      0.1378
      8  N7       -17.9570   36.0140   -0.5040 N.2   314  VX3314     -0.4017
      9  C9       -18.7050   36.5490   -1.5230 C.2   314  VX3314      0.1314
     10  C10      -18.6940   36.0300   -2.9150 C.ar  314  VX3314      0.0296
     11  C11      -19.8780   36.0240   -3.6840 C.ar  314  VX3314      0.0025
     12  C12      -19.8540   35.5270   -4.9790 C.ar  314  VX3314      0.0001
     13  C13      -18.6690   35.0290   -5.5120 C.ar  314  VX3314      0.0000
     14  C14      -17.5040   35.0110   -4.7480 C.ar  314  VX3314      0.0001
     15  C15      -17.5090   35.5010   -3.4590 C.ar  314  VX3314      0.0025
     16  C17      -20.3690   38.5260   -1.7500 C.ar  314  VX3314      0.0025
     17  C18      -21.6090   38.9520   -1.2530 C.ar  314  VX3314      0.0001
     18  C20      -21.8720   40.4050   -3.1770 C.ar  314  VX3314      0.0000
     19  C21      -20.6330   40.0140   -3.6680 C.ar  314  VX3314      0.0000
     20  C22      -19.8850   39.0960   -2.9540 C.ar  314  VX3314      0.0001
     21  C23      -19.1250   37.6950    0.4060 C.ar  314  VX3314      0.0323
     22  C24      -19.5470   38.5420    1.4370 C.ar  314  VX3314      0.0026
     23  C25      -19.0540   38.4060    2.7160 C.ar  314  VX3314      0.0004
     24  C26      -18.1020   37.4260    2.9930 C.ar  314  VX3314      0.0092
@<TRIPOS>BOND
     1    13    12   ar
     2    13    14   ar
     3    12    11   ar
     4    14    15   ar
     5    11    10   ar
     6    19    18   ar
     7    19    20   ar
     8    15    10   ar
     9    18     3   ar
    10    20    16   ar
    11    10     9    1
    12     3    17   ar
    13    16    17   ar
    14    16     2    1
    15     9     2    1
    16     9     8    2
    17     2    21    2
    18     8     7    2
    19    21     7   ar
    20    21    22   ar
    21     7     6   ar
    22     1     4   ar
    23    22    23   ar
    24     6     4    1
    25     6    24   ar
    26     4     5   ar
    27    23    24   ar
