@<TRIPOS>MOLECULE
3bh6_GNP_A_1.pdb
 32 34 0 0 0
SMALL
GASTEIGER

@<TRIPOS>ATOM
      1  PG        -3.7900   11.4320  -27.8660 P.3     1  GNP1        0.4884
      2  O1G       -4.6620   10.5660  -28.7560 O.2     1  GNP1       -0.2331
      3  O2G       -2.8950   10.6420  -26.9530 O.3     1  GNP1       -0.1240
      4  O3G       -3.0530   12.4180  -28.7370 O.3     1  GNP1       -0.1240
      5  N3B       -4.7750   12.3020  -26.9740 N.3     1  GNP1       -0.0163
      6  PB        -4.3630   13.6090  -26.1890 P.3     1  GNP1        0.4669
      7  O1B       -3.8410   13.2790  -24.8520 O.3     1  GNP1       -0.1253
      8  O2B       -3.4580   14.3990  -27.0450 O.2     1  GNP1       -0.2351
      9  O3A       -5.6690   14.3440  -25.8990 O.3     1  GNP1       -0.2360
     10  PA        -6.3120   15.4410  -26.7520 P.3     1  GNP1        0.2220
     11  O1A       -6.4450   14.9620  -28.1420 O.2     1  GNP1       -0.5170
     12  O2A       -5.6060   16.7260  -26.5340 O.3     1  GNP1       -0.4370
     13  O5'       -7.7560   15.6740  -26.1840 O.3     1  GNP1       -0.3111
     14  C5'       -8.7230   14.6350  -26.1600 C.3     1  GNP1        0.1813
     15  C4'      -10.1440   15.1810  -26.0160 C.3     1  GNP1        0.1799
     16  O4'      -10.4020   15.7330  -24.6930 O.3     1  GNP1       -0.3326
     17  C3'      -10.5360   16.2920  -26.9780 C.3     1  GNP1        0.2158
     18  O3'      -11.9220   16.1390  -27.2480 O.3     1  GNP1       -0.2175
     19  C2'      -10.2570   17.5540  -26.1680 C.3     1  GNP1        0.2310
     20  O2'      -10.9890   18.6470  -26.6680 O.3     1  GNP1       -0.2158
     21  C1'      -10.7720   17.1010  -24.8050 C.3     1  GNP1        0.2293
     22  N9       -10.2180   17.7390  -23.6250 N.pl3   1  GNP1       -0.2354
     23  C8        -8.8930   17.8350  -23.2690 C.3     1  GNP1        0.2246
     24  N7        -8.6980   18.4420  -22.1260 N.2     1  GNP1       -0.2322
     25  C5        -9.9820   18.7590  -21.6880 C.2     1  GNP1        0.2182
     26  C6       -10.4150   19.4280  -20.5070 C.1     1  GNP1        0.2372
     27  O6        -9.7280   19.8820  -19.5740 O.2     1  GNP1       -0.2069
     28  N1       -11.8070   19.5370  -20.4550 N.2     1  GNP1       -0.2485
     29  C2       -12.6640   19.0670  -21.4210 C.1     1  GNP1        0.2531
     30  N2       -13.9600   19.2650  -21.1900 N.pl3   1  GNP1       -0.0226
     31  N3       -12.2770   18.4420  -22.5320 N.2     1  GNP1       -0.3074
     32  C4       -10.9270   18.3200  -22.6000 C.2     1  GNP1        0.2300
@<TRIPOS>BOND
     1     2     1    2
     2     4     1    1
     3    11    10    2
     4     1     5    1
     5     1     3    1
     6    18    17    1
     7     8     6    2
     8    17    19    1
     9    17    15    1
    10     5     6    1
    11    10    12    1
    12    10    13    1
    13    10     9    1
    14    20    19    1
    15     6     9    1
    16     6     7    1
    17    13    14    1
    18    19    21    1
    19    14    15    1
    20    15    16    1
    21    21    16    1
    22    21    22    1
    23    22    23    1
    24    22    32    1
    25    23    24    1
    26    32    31    2
    27    32    25    1
    28    31    29    2
    29    24    25    2
    30    25    26    1
    31    29    30    1
    32    29    28    2
    33    26    28    2
    34    26    27    2
