@<TRIPOS>MOLECULE
3bh7_GDP_A_1.pdb
 28 30 0 0 0
SMALL
GASTEIGER

@<TRIPOS>ATOM
      1  PB        -4.8150   13.3210  -25.8310 P.3     2  GDP2        0.5373
      2  O1B       -4.3070   12.9690  -24.4450 O.3     2  GDP2       -0.1143
      3  O2B       -3.8530   14.2020  -26.5550 O.3     2  GDP2       -0.1143
      4  O3B       -5.0160   12.0530  -26.6210 O.2     2  GDP2       -0.2221
      5  O3A       -6.2390   14.0320  -25.6040 O.3     2  GDP2       -0.2261
      6  PA        -6.8120   15.3160  -26.3950 P.3     2  GDP2        0.2231
      7  O1A       -6.0080   16.5660  -26.1250 O.3     2  GDP2       -0.4370
      8  O2A       -6.9190   15.0000  -27.8680 O.2     2  GDP2       -0.5169
      9  O5'       -8.2370   15.4920  -25.6820 O.3     2  GDP2       -0.3111
     10  C5'       -9.2400   14.4990  -25.7910 C.3     2  GDP2        0.1813
     11  C4'      -10.6100   15.1600  -25.6660 C.3     2  GDP2        0.1799
     12  O4'      -10.7930   15.6700  -24.3400 O.3     2  GDP2       -0.3326
     13  C3'      -10.7690   16.3350  -26.6110 C.3     2  GDP2        0.2158
     14  O3'      -12.0990   16.2700  -27.1270 O.3     2  GDP2       -0.2175
     15  C2'      -10.5800   17.5650  -25.7420 C.3     2  GDP2        0.2310
     16  O2'      -11.3540   18.6830  -26.1850 O.3     2  GDP2       -0.2158
     17  C1'      -11.0730   17.0700  -24.3950 C.3     2  GDP2        0.2293
     18  N9       -10.4260   17.7320  -23.2410 N.pl3   2  GDP2       -0.2354
     19  C8        -9.1080   17.8740  -22.9910 C.3     2  GDP2        0.2246
     20  N7        -8.9200   18.5310  -21.8170 N.2     2  GDP2       -0.2322
     21  C5       -10.1380   18.8080  -21.2960 C.2     2  GDP2        0.2182
     22  C6       -10.6920   19.4740  -20.0820 C.1     2  GDP2        0.2372
     23  O6        -9.9570   19.9640  -19.1950 O.2     2  GDP2       -0.2069
     24  N1       -12.0210   19.5320  -19.9480 N.2     2  GDP2       -0.2485
     25  C2       -12.8730   19.0250  -20.8540 C.1     2  GDP2        0.2531
     26  N2       -14.2040   19.1340  -20.6300 N.pl3   2  GDP2       -0.0226
     27  N3       -12.4460   18.4060  -21.9830 N.2     2  GDP2       -0.3074
     28  C4       -11.1210   18.2760  -22.2470 C.2     2  GDP2        0.2300
@<TRIPOS>BOND
     1     8     6    2
     2    14    13    1
     3     4     1    2
     4    13    15    1
     5    13    11    1
     6     3     1    1
     7     6     7    1
     8     6     9    1
     9     6     5    1
    10    16    15    1
    11     1     5    1
    12     1     2    1
    13    10     9    1
    14    10    11    1
    15    15    17    1
    16    11    12    1
    17    17    12    1
    18    17    18    1
    19    18    19    1
    20    18    28    1
    21    19    20    1
    22    28    27    2
    23    28    21    1
    24    27    25    2
    25    20    21    2
    26    21    22    1
    27    25    26    1
    28    25    24    2
    29    22    24    2
    30    22    23    2
