@<TRIPOS>MOLECULE
3bhe_BZN_B_1.pdb
 29 31 0 0 0
SMALL
GASTEIGER

@<TRIPOS>ATOM
      1  C2        20.5960    0.2390   15.1960 C.3   2501  BZN2501     0.0902
      2  C3        20.4820   -1.0310   16.0640 C.3   2501  BZN2501     0.0390
      3  C4        19.7710   -2.0570   15.1520 C.3   2501  BZN2501     0.0498
      4  C5        20.2110   -1.6400   13.7370 C.3   2501  BZN2501     0.0912
      5  C6        18.2520   -1.8540   15.2780 C.3   2501  BZN2501     0.1441
      6  N1        20.3890   -0.1710   13.8010 N.3   2501  BZN2501    -0.2179
      7  C15       21.9020   -1.5280   16.3740 C.3   2501  BZN2501     0.0973
      8  N16       21.8570   -2.7560   17.1470 N.3   2501  BZN2501    -0.1555
      9  C24       20.8220   -3.0510   18.1130 C.3   2501  BZN2501     0.0958
     10  C25       21.0290   -2.3040   19.4400 C.3   2501  BZN2501     0.0178
     11  C27       21.9500   -3.1050   20.3780 C.3   2501  BZN2501     0.0015
     12  C26       19.6670   -2.1150   20.1350 C.3   2501  BZN2501     0.0015
     13  S17       22.9590   -3.7640   16.8880 S.O2  2501  BZN2501     0.0633
     14  O29       22.8450   -4.8400   17.8330 O.2   2501  BZN2501    -0.1528
     15  O28       24.2140   -3.0540   16.7390 O.2   2501  BZN2501    -0.1528
     16  C18       22.4990   -4.3180   15.2670 C.ar  2501  BZN2501     0.1222
     17  C23       21.5790   -5.3520   15.1180 C.ar  2501  BZN2501     0.0199
     18  C22       21.2490   -5.7900   13.8330 C.ar  2501  BZN2501     0.0014
     19  C21       21.8180   -5.1620   12.7230 C.ar  2501  BZN2501     0.0001
     20  C20       22.7060   -4.0950   12.8790 C.ar  2501  BZN2501     0.0014
     21  C19       23.0650   -3.6780   14.1600 C.ar  2501  BZN2501     0.0199
     22  O7        17.4900   -2.9170   14.7270 O.3   2501  BZN2501    -0.3490
     23  C8        17.8410   -4.2020   15.2040 C.3   2501  BZN2501     0.1686
     24  C9        17.0800   -4.5990   16.4590 C.ar  2501  BZN2501     0.0073
     25  C14       17.1560   -5.9280   16.8970 C.ar  2501  BZN2501    -0.0019
     26  C13       16.4730   -6.3230   18.0480 C.ar  2501  BZN2501    -0.0002
     27  C12       15.7210   -5.4090   18.7880 C.ar  2501  BZN2501    -0.0000
     28  C11       15.6110   -4.0900   18.3330 C.ar  2501  BZN2501    -0.0002
     29  C10       16.3010   -3.6970   17.1830 C.ar  2501  BZN2501    -0.0019
@<TRIPOS>BOND
     1    19    20   ar
     2    19    18   ar
     3    20    21   ar
     4     4     6    1
     5     4     3    1
     6     6     1    1
     7    18    17   ar
     8    21    16   ar
     9    22    23    1
    10    22     5    1
    11    17    16   ar
    12     3     5    1
    13     3     2    1
    14     1     2    1
    15    23    24    1
    16    16    13    1
    17     2     7    1
    18     7     8    1
    19    24    25   ar
    20    24    29   ar
    21    15    13    2
    22    13     8    1
    23    13    14    2
    24    25    26   ar
    25     8     9    1
    26    29    28   ar
    27    26    27   ar
    28     9    10    1
    29    28    27   ar
    30    10    12    1
    31    10    11    1
