@<TRIPOS>MOLECULE
3bhh_5CP_A_1.pdb
 27 30 0 0 0
SMALL
GASTEIGER

@<TRIPOS>ATOM
      1  C4        20.1700   67.7260   31.4790 C.2   600  5CP600      0.3114
      2  C5        19.1010   68.4340   30.9780 C.3   600  5CP600      0.1841
      3  C6        17.9100   67.7990   30.7050 C.2   600  5CP600      0.2008
      4  N1        17.8080   66.4690   30.9130 N.2   600  5CP600     -0.3139
      5  N3        19.9780   66.4170   31.6880 N.2   600  5CP600     -0.2871
      6  C1U       24.2330   64.0200   32.7110 C.3   600  5CP600      0.0061
      7  C1W       24.7120   64.6700   34.0220 C.3   600  5CP600      0.0061
      8  C1T       25.0260   65.3160   32.6790 C.3   600  5CP600      0.0406
      9  C1R       24.2010   66.5180   32.2650 C.2   600  5CP600      0.0951
     10  C1S       22.8710   66.6000   32.3420 C.3   600  5CP600      0.1690
     11  N1Q       24.7150   67.6370   31.7320 N.2   600  5CP600     -0.0426
     12  N1P       23.7520   68.3910   31.4980 N.2   600  5CP600      0.0793
     13  C1H       22.5830   67.8060   31.8030 C.2   600  5CP600      0.3768
     14  N1G       21.3540   68.3860   31.7270 N.pl3 600  5CP600      0.0224
     15  N1X       16.8780   68.4980   30.2140 N.pl3 600  5CP600     -0.2103
     16  C1Y       16.8340   69.9860   30.2340 C.3   600  5CP600      0.1379
     17  C2        18.8350   65.7800   31.4020 C.1   600  5CP600      0.2285
     18  N1I       18.7210   64.4460   31.5870 N.pl3 600  5CP600     -0.1253
     19  C1J       19.5340   63.6530   32.3410 C.ar  600  5CP600      0.0835
     20  C1O       19.8650   63.9690   33.6740 C.ar  600  5CP600      0.0171
     21  C1N       20.6600   63.1370   34.4650 C.ar  600  5CP600     -0.0019
     22  C1K       20.0290   62.4630   31.7980 C.ar  600  5CP600      0.0171
     23  C1L       20.8420   61.6350   32.5800 C.ar  600  5CP600     -0.0019
     24  C1M       21.1420   61.9560   33.9090 C.ar  600  5CP600     -0.0070
     25  C1V       22.0130   61.0360   34.7380 C.3   600  5CP600      0.1316
     26  C1Z       23.4090   61.0700   34.2750 C.1   600  5CP600      0.0780
     27  N1A       24.5020   61.0720   33.9640 N.1   600  5CP600     -0.1955
@<TRIPOS>BOND
     1    15    16    1
     2    15     3    1
     3     3     4    2
     4     3     2    1
     5     4    17    2
     6     2     1    1
     7    17    18    1
     8    17     5    2
     9     1     5    2
    10     1    14    1
    11    12    11    1
    12    12    13    2
    13    18    19    1
    14    14    13    1
    15    11     9    2
    16    22    19   ar
    17    22    23   ar
    18    13    10    1
    19     9    10    1
    20     9     8    1
    21    19    20   ar
    22    23    24   ar
    23     8     6    1
    24     8     7    1
    25     6     7    1
    26    20    21   ar
    27    24    21   ar
    28    24    25    1
    29    27    26    3
    30    26    25    1
