@<TRIPOS>MOLECULE
3bhi_NAP_A_1.pdb
 48 52 0 0 0
SMALL
GASTEIGER

@<TRIPOS>ATOM
      1  PA         6.1070   38.3430   50.3220 P.3   309  NAP309      0.2189
      2  O1A        5.3050   39.2700   49.5440 O.2   309  NAP309     -0.5170
      3  O2A        7.3890   38.8670   50.8280 O.3   309  NAP309     -0.4371
      4  O5B        5.3500   37.8430   51.6140 O.3   309  NAP309     -0.3112
      5  C5B        6.0130   36.9680   52.5800 C.3   309  NAP309      0.1813
      6  C4B        5.1260   36.8690   53.8530 C.3   309  NAP309      0.1820
      7  O4B        5.8830   36.1660   54.8540 O.3   309  NAP309     -0.3136
      8  C3B        4.8280   38.2270   54.4210 C.3   309  NAP309      0.2157
      9  O3B        3.5060   38.3070   55.0120 O.3   309  NAP309     -0.2175
     10  C2B        5.8570   38.3640   55.5640 C.3   309  NAP309      0.2314
     11  O2B        5.3820   39.3680   56.5720 O.3   309  NAP309     -0.2630
     12  C1B        5.9290   36.9110   56.0420 C.3   309  NAP309      0.3158
     13  N9A        7.1490   36.7350   56.8910 N.pl3 309  NAP309     -0.1439
     14  C8A        8.4640   36.9190   56.6640 C.3   309  NAP309      0.3377
     15  N7A        9.1790   36.6140   57.7470 N.2   309  NAP309     -0.2095
     16  C5A        8.2810   36.3320   58.7120 C.2   309  NAP309      0.2526
     17  C6A        8.3590   36.0320   60.1140 C.2   309  NAP309      0.4393
     18  N6A        9.5570   35.9710   60.8070 N.pl3 309  NAP309      0.2180
     19  N1A        7.1760   35.7740   60.7170 N.2   309  NAP309      0.0021
     20  C2A        5.9960   35.8030   60.1270 C.3   309  NAP309      0.5254
     21  N3A        5.8920   36.1240   58.8550 N.2   309  NAP309     -0.0055
     22  C4A        7.0120   36.3610   58.1460 C.2   309  NAP309      0.3518
     23  O3         6.4900   37.0350   49.4670 O.3   309  NAP309     -0.2703
     24  PN         5.6430   35.7830   48.8770 P.3   309  NAP309      0.2189
     25  O1N        6.2260   35.5690   47.5620 O.2   309  NAP309     -0.5170
     26  O2N        4.1490   36.0170   49.0430 O.3   309  NAP309     -0.4371
     27  O5D        6.2150   34.6000   49.8360 O.3   309  NAP309     -0.3112
     28  C5D        5.4150   33.6290   50.5320 C.3   309  NAP309      0.1813
     29  C4D        5.9130   32.2270   50.2900 C.3   309  NAP309      0.1799
     30  O4D        5.9840   31.9850   48.8430 O.3   309  NAP309     -0.3327
     31  C3D        7.3410   32.2890   50.8060 C.3   309  NAP309      0.2158
     32  O3D        7.6200   31.0650   51.4450 O.3   309  NAP309     -0.2175
     33  C2D        8.1630   32.2590   49.5050 C.3   309  NAP309      0.2309
     34  O2D        9.4020   31.5900   49.7810 O.3   309  NAP309     -0.2158
     35  C1D        7.2530   31.3490   48.6140 C.3   309  NAP309      0.2263
     36  N1N        7.5750   31.4000   47.1700 N.pl3 309  NAP309     -0.2787
     37  C2N        7.4130   32.6070   46.4760 C.3   309  NAP309      0.1244
     38  C3N        7.7200   32.7210   45.1450 C.2   309  NAP309      0.0544
     39  C7N        7.5250   34.0190   44.3990 C.2   309  NAP309      0.2818
     40  O7N        6.9180   35.1090   44.8900 O.2   309  NAP309     -0.2670
     41  N7N        7.9980   34.0020   43.1800 N.am  309  NAP309     -0.0839
     42  C4N        8.1960   31.6200   44.4450 C.2   309  NAP309      0.0033
     43  C5N        8.3630   30.4360   45.1480 C.2   309  NAP309      0.0157
     44  C6N        8.1110   30.3130   46.5210 C.2   309  NAP309      0.0633
     45  P2B        5.9500   40.8600   56.4950 P.3   309  NAP309      0.5328
     46  O1X        7.3000   40.7810   55.8440 O.3   309  NAP309     -0.1145
     47  O2X        5.9980   41.4290   57.9360 O.3   309  NAP309     -0.1145
     48  O3X        4.8920   41.8430   55.6020 O.2   309  NAP309     -0.2224
@<TRIPOS>BOND
     1    41    39   am
     2    39    40    2
     3    39    38    1
     4    42    38    2
     5    42    43    1
     6    38    37    1
     7    43    44    2
     8    37    36    1
     9    44    36    1
    10    36    35    1
    11    25    24    2
    12    35    30    1
    13    35    33    1
    14    30    29    1
    15    24    26    1
    16    24    23    1
    17    24    27    1
    18    23     1    1
    19    33    34    1
    20    33    31    1
    21     2     1    2
    22    27    28    1
    23    29    28    1
    24    29    31    1
    25     1     3    1
    26     1     4    1
    27    31    32    1
    28     4     5    1
    29     5     6    1
    30     6     8    1
    31     6     7    1
    32     8     9    1
    33     8    10    1
    34     7    12    1
    35    10    12    1
    36    10    11    1
    37    48    45    2
    38    46    45    1
    39    12    13    1
    40    45    11    1
    41    45    47    1
    42    14    13    1
    43    14    15    1
    44    13    22    1
    45    15    16    2
    46    22    16    1
    47    22    21    2
    48    16    17    1
    49    21    20    1
    50    17    19    2
    51    17    18    1
    52    20    19    1
