@<TRIPOS>MOLECULE
3bhj_GSH_A_1.pdb
 20 19 0 0 0
SMALL
GASTEIGER

@<TRIPOS>ATOM
      1  N1        37.4860   17.9660    9.0760 N.3   315  GSH315     -0.1208
      2  CA1       36.0920   17.4870    9.2610 C.3   315  GSH315      0.1948
      3  C1        36.0980   16.0140    9.7250 C.2   315  GSH315      0.3819
      4  O11       35.0890   15.5940   10.3550 O.co2 315  GSH315     -0.2441
      5  O12       37.1140   15.3240    9.4470 O.co2 315  GSH315     -0.2441
      6  CB1       35.3240   17.6540    7.9420 C.3   315  GSH315      0.0402
      7  CG1       33.8400   17.4230    8.1640 C.3   315  GSH315      0.0889
      8  CD1       33.0070   17.7390    6.9250 C.2   315  GSH315      0.2418
      9  OE1       33.1770   17.1170    5.8740 O.2   315  GSH315     -0.2733
     10  N2        32.1000   18.7020    7.0940 N.am  315  GSH315     -0.1968
     11  CA2       31.1730   19.1010    6.0300 C.3   315  GSH315      0.1843
     12  C2        30.7850   20.5600    6.1530 C.2   315  GSH315      0.2627
     13  O2        30.7030   21.0920    7.2520 O.2   315  GSH315     -0.2714
     14  CB2       29.8550   18.3250    6.2080 C.3   315  GSH315      0.0997
     15  SG2       30.0540   16.5120    6.3950 S.3   315  GSH315     -0.0797
     16  N3        30.5300   21.1510    4.9910 N.am  315  GSH315     -0.1917
     17  CA3       30.0910   22.5580    4.8960 C.3   315  GSH315      0.2285
     18  C3        31.2290   23.5860    4.8880 C.2   315  GSH315      0.3865
     19  O31       32.3950   23.2140    5.1300 O.co2 315  GSH315     -0.2437
     20  O32       30.8740   24.7610    4.6530 O.co2 315  GSH315     -0.2437
@<TRIPOS>BOND
     1    20    18   ar
     2    18    17    1
     3    18    19   ar
     4    17    16    1
     5    16    12   am
     6     9     8    2
     7    11    12    1
     8    11    14    1
     9    11    10    1
    10    12    13    2
    11    14    15    1
    12     8    10   am
    13     8     7    1
    14     6     7    1
    15     6     2    1
    16     1     2    1
    17     2     3    1
    18     5     3   ar
    19     3     4   ar
