@<TRIPOS>MOLECULE
3bhj_AB3_A_1.pdb
 21 23 0 0 0
SMALL
GASTEIGER

@<TRIPOS>ATOM
      1  C20       29.9920   18.1390   -0.4310 C.3   307  AB3307      0.0491
      2  C14       29.2810   16.9990   -1.1730 C.3   307  AB3307      0.1509
      3  C19       30.3010   15.9470   -1.6320 C.3   307  AB3307      0.0491
      4  C21       28.4850   17.5610   -2.3710 C.3   307  AB3307      0.0491
      5  N11       28.2990   16.3330   -0.2160 N.pl3 307  AB3307     -0.0877
      6  N15       28.2590   16.6110    0.9980 N.2   307  AB3307     -0.0915
      7  C7        27.3980   15.3970   -0.5380 C.2   307  AB3307      0.3404
      8  N3        27.0560   14.7910   -1.7020 N.2   307  AB3307     -0.0088
      9  C6        26.0900   13.8720   -1.7350 C.3   307  AB3307      0.5248
     10  N5        25.4230   13.5310   -0.6420 N.2   307  AB3307     -0.0027
     11  C2        25.6930   14.1030    0.5500 C.2   307  AB3307      0.4081
     12  N1        24.9600   13.6940    1.5950 N.pl3 307  AB3307      0.2118
     13  C4        26.7150   15.0680    0.6370 C.3   307  AB3307      0.2639
     14  C13       27.3230   15.8810    1.6180 C.2   307  AB3307      0.1227
     15  C18       27.0370   15.9730    2.9970 C.ar  307  AB3307      0.0214
     16  C28       26.9030   14.8270    3.8040 C.ar  307  AB3307      0.0433
     17  C27       26.9450   17.2390    3.5980 C.ar  307  AB3307      0.0015
     18  C30       26.6730   17.3800    4.9690 C.ar  307  AB3307      0.0033
     19  C26       26.5240   16.2310    5.7640 C.ar  307  AB3307      0.0420
     20  C29       26.6400   14.9660    5.1750 C.ar  307  AB3307      0.1958
     21  O33       26.4850   13.8570    5.9500 O.3   307  AB3307     -0.2866
@<TRIPOS>BOND
     1     4     2    1
     2     9     8    1
     3     9    10    1
     4     8     7    2
     5     3     2    1
     6     2     1    1
     7     2     5    1
     8    10    11    2
     9     7     5    1
    10     7    13    1
    11     5     6    1
    12    11    13    1
    13    11    12    1
    14    13    14    1
    15     6    14    2
    16    14    15    1
    17    15    17   ar
    18    15    16   ar
    19    17    18   ar
    20    16    20   ar
    21    18    19   ar
    22    20    19   ar
    23    20    21    1
