@<TRIPOS>MOLECULE
3bhj_NAP_A_1.pdb
 48 52 0 0 0
SMALL
GASTEIGER

@<TRIPOS>ATOM
      1  PA        21.6180   21.1880   11.3550 P.3   309  NAP309      0.2189
      2  O1A       20.8270   22.1420   10.5320 O.2   309  NAP309     -0.5170
      3  O2A       22.8910   21.6520   11.9400 O.3   309  NAP309     -0.4371
      4  O5B       20.6610   20.6120   12.4770 O.3   309  NAP309     -0.3112
      5  C5B       21.1840   19.6880   13.4350 C.3   309  NAP309      0.1813
      6  C4B       20.1870   19.5050   14.5910 C.3   309  NAP309      0.1820
      7  O4B       20.8160   18.5960   15.5390 O.3   309  NAP309     -0.3136
      8  C3B       19.8970   20.8290   15.3240 C.3   309  NAP309      0.2157
      9  O3B       18.5460   20.7830   15.8500 O.3   309  NAP309     -0.2175
     10  C2B       20.9260   20.7570   16.4400 C.3   309  NAP309      0.2314
     11  O2B       20.5300   21.5910   17.5310 O.3   309  NAP309     -0.2630
     12  C1B       20.7880   19.2630   16.8050 C.3   309  NAP309      0.3158
     13  N9A       21.8740   18.8450   17.7260 N.pl3 309  NAP309     -0.1439
     14  C8A       23.2080   18.9450   17.5530 C.3   309  NAP309      0.3377
     15  N7A       23.8190   18.4830   18.6560 N.2   309  NAP309     -0.2095
     16  C5A       22.8580   18.0950   19.5210 C.2   309  NAP309      0.2526
     17  C6A       22.8470   17.5540   20.8110 C.2   309  NAP309      0.4393
     18  N6A       23.9950   17.3110   21.4630 N.pl3 309  NAP309      0.2180
     19  N1A       21.6640   17.2630   21.3950 N.2   309  NAP309      0.0021
     20  C2A       20.4940   17.5000   20.7820 C.3   309  NAP309      0.5254
     21  N3A       20.4710   18.0330   19.5630 N.2   309  NAP309     -0.0055
     22  C4A       21.6260   18.3410   18.9220 C.2   309  NAP309      0.3518
     23  O3        22.0090   19.9030   10.5000 O.3   309  NAP309     -0.2703
     24  PN        21.1400   18.9590    9.5210 P.3   309  NAP309      0.2189
     25  O1N       21.7720   19.0680    8.1780 O.2   309  NAP309     -0.5170
     26  O2N       19.6650   19.1990    9.6590 O.3   309  NAP309     -0.4371
     27  O5D       21.5240   17.5720   10.1420 O.3   309  NAP309     -0.3112
     28  C5D       20.5700   16.6060   10.6120 C.3   309  NAP309      0.1813
     29  C4D       21.1670   15.1670   10.4790 C.3   309  NAP309      0.1799
     30  O4D       21.3860   14.8280    9.0690 O.3   309  NAP309     -0.3327
     31  C3D       22.5460   15.0620   11.1590 C.3   309  NAP309      0.2158
     32  O3D       22.6320   13.8070   11.8880 O.3   309  NAP309     -0.2175
     33  C2D       23.5040   15.0940    9.9680 C.3   309  NAP309      0.2309
     34  O2D       24.7110   14.4060   10.2600 O.3   309  NAP309     -0.2158
     35  C1D       22.7110   14.3040    8.9340 C.3   309  NAP309      0.2263
     36  N1N       22.9990   14.5520    7.5100 N.pl3 309  NAP309     -0.2787
     37  C2N       22.8770   15.8420    6.9500 C.3   309  NAP309      0.1244
     38  C3N       23.1190   16.0150    5.5960 C.2   309  NAP309      0.0544
     39  C7N       22.9890   17.3870    4.9490 C.2   309  NAP309      0.2818
     40  O7N       22.5230   18.4930    5.5950 O.2   309  NAP309     -0.2670
     41  N7N       23.3240   17.4510    3.6700 N.am  309  NAP309     -0.0839
     42  C4N       23.4560   14.9080    4.7940 C.2   309  NAP309      0.0033
     43  C5N       23.5610   13.6300    5.3340 C.2   309  NAP309      0.0157
     44  C6N       23.3280   13.4470    6.6970 C.2   309  NAP309      0.0633
     45  P2B       21.1340   23.1070   17.6230 P.3   309  NAP309      0.5328
     46  O1X       22.5460   23.1720   17.1390 O.3   309  NAP309     -0.1145
     47  O2X       20.9690   23.4630   19.1500 O.3   309  NAP309     -0.1145
     48  O3X       20.1550   24.0110   16.8070 O.2   309  NAP309     -0.2224
@<TRIPOS>BOND
     1    41    39   am
     2    42    43    1
     3    42    38    2
     4    39    40    2
     5    39    38    1
     6    43    44    2
     7    38    37    1
     8    44    36    1
     9    37    36    1
    10    36    35    1
    11    25    24    2
    12    35    30    1
    13    35    33    1
    14    30    29    1
    15    24    26    1
    16    24    27    1
    17    24    23    1
    18    33    34    1
    19    33    31    1
    20    27    28    1
    21    29    28    1
    22    29    31    1
    23    23     1    1
    24     2     1    2
    25    31    32    1
    26     1     3    1
    27     1     4    1
    28     4     5    1
    29     5     6    1
    30     6     8    1
    31     6     7    1
    32     8     9    1
    33     8    10    1
    34     7    12    1
    35    10    12    1
    36    10    11    1
    37    12    13    1
    38    48    45    2
    39    46    45    1
    40    11    45    1
    41    14    13    1
    42    14    15    1
    43    45    47    1
    44    13    22    1
    45    15    16    2
    46    22    16    1
    47    22    21    2
    48    16    17    1
    49    21    20    1
    50    20    19    1
    51    17    19    2
    52    17    18    1
