@<TRIPOS>MOLECULE
3bhl_THG_A_1.pdb
 32 34 0 0 0
SMALL
GASTEIGER

@<TRIPOS>ATOM
      1  N3       101.8110    2.0550    3.5100 N.2   266  THG266     -0.2466
      2  C2       102.1390    1.3710    2.3950 C.1   266  THG266      0.2609
      3  N1       102.7490    2.0090    1.3370 N.2   266  THG266     -0.2672
      4  C8A      103.0570    3.3120    1.3840 C.1   266  THG266      0.1401
      5  C4A      102.7280    4.0980    2.5340 C.2   266  THG266      0.2988
      6  C4       102.0470    3.3670    3.6270 C.1   266  THG266      0.2569
      7  N8       103.7170    3.9250    0.3680 N.2   266  THG266     -0.1992
      8  C7       104.2040    5.2900    0.3990 C.3   266  THG266      0.1931
      9  C6       103.9530    6.0050    1.6790 C.2   266  THG266      0.1356
     10  N5       103.0010    5.4210    2.6170 N.2   266  THG266     -0.3839
     11  C9       104.4040    7.4790    1.9810 C.3   266  THG266      0.1683
     12  N10      104.4760    7.5640    3.4520 N.pl3 266  THG266     -0.2303
     13  C4'      105.1790    6.7440    4.3210 C.ar  266  THG266      0.0658
     14  C3'      106.0420    5.7120    3.9260 C.ar  266  THG266      0.0162
     15  C2'      106.7170    4.9550    4.8810 C.ar  266  THG266      0.0059
     16  C1'      106.5770    5.1620    6.2400 C.ar  266  THG266      0.0551
     17  C6'      105.7080    6.1990    6.6610 C.ar  266  THG266      0.0059
     18  C5'      105.0160    6.9600    5.6900 C.ar  266  THG266      0.0162
     19  C11      107.3730    4.3150    7.1960 C.2   266  THG266      0.2652
     20  N        107.5100    4.8500    8.3980 N.am  266  THG266     -0.1918
     21  CA       108.2620    4.2710    9.4170 C.3   266  THG266      0.1986
     22  C        107.6870    4.5250   10.7220 C.2   266  THG266      0.3842
     23  OX2      108.0940    3.7650   11.7110 O.co2 266  THG266     -0.2437
     24  OX1      106.9220    5.4790   10.9410 O.co2 266  THG266     -0.2437
     25  CB       109.7420    4.3760    9.2560 C.3   266  THG266      0.0451
     26  CG       110.0430    5.8860    9.1360 C.3   266  THG266      0.1164
     27  CD       111.5020    6.2720    8.9800 C.2   266  THG266      0.3649
     28  OE1      112.0700    6.2800    7.8990 O.co2 266  THG266     -0.2457
     29  OE2      112.1770    6.6870   10.0510 O.co2 266  THG266     -0.2457
     30  O11      107.9060    3.2430    6.8760 O.2   266  THG266     -0.2684
     31  O4       101.7090    4.0300    4.6520 O.2   266  THG266     -0.2052
     32  N2       101.9120    0.0610    2.3300 N.pl3 266  THG266     -0.0220
@<TRIPOS>BOND
     1     7     8    1
     2     7     4    2
     3     8     9    1
     4     3     4    2
     5     3     2    2
     6     4     5    1
     7     9    11    1
     8     9    10    2
     9    11    12    1
    10    32     2    1
    11     2     1    2
    12     5    10    2
    13     5     6    1
    14    12    13    1
    15     1     6    2
    16     6    31    2
    17    14    13   ar
    18    14    15   ar
    19    13    18   ar
    20    15    16   ar
    21    18    17   ar
    22    16    17   ar
    23    16    19    1
    24    30    19    2
    25    19    20   am
    26    28    27   ar
    27    20    21    1
    28    27    26    1
    29    27    29   ar
    30    26    25    1
    31    25    21    1
    32    21    22    1
    33    22    24   ar
    34    22    23   ar
