@<TRIPOS>MOLECULE
3bhl_NDU_A_1.pdb
 23 24 0 0 0
SMALL
GASTEIGER

@<TRIPOS>ATOM
      1  P         97.1280    1.0840   -2.5810 P.3   265  NDU265      0.5327
      2  OP1       97.0440   -0.3320   -3.0510 O.3   265  NDU265     -0.1145
      3  OP2       95.9370    1.4290   -1.7200 O.3   265  NDU265     -0.1145
      4  OP3       97.4050    2.0830   -3.6740 O.2   265  NDU265     -0.2224
      5  O5'       98.4240    1.0400   -1.6180 O.3   265  NDU265     -0.2675
      6  C5'       98.8580    2.2100   -0.9210 C.3   265  NDU265      0.1858
      7  C4'       99.1770    1.7970    0.5140 C.3   265  NDU265      0.1774
      8  C3'       97.9070    1.5290    1.2990 C.3   265  NDU265      0.1857
      9  O3'       98.2300    0.6380    2.3720 O.3   265  NDU265     -0.2203
     10  C2'       97.5360    2.9010    1.8410 C.3   265  NDU265      0.0871
     11  C1'       98.9080    3.4410    2.1510 C.3   265  NDU265      0.2049
     12  O4'       99.8010    2.8810    1.1900 O.3   265  NDU265     -0.3342
     13  N1        99.1460    4.8980    2.1610 N.am  265  NDU265     -0.1996
     14  C2        98.8460    5.6630    3.2520 C.1   265  NDU265      0.2803
     15  O2        98.2390    5.1370    4.1990 O.2   265  NDU265     -0.1922
     16  N3        99.1230    6.9830    3.2800 N.2   265  NDU265     -0.2476
     17  C4        99.8660    7.5540    2.3160 C.1   265  NDU265      0.2213
     18  O4       100.1900    8.7350    2.4260 O.2   265  NDU265     -0.2112
     19  C5       100.2260    6.7450    1.1440 C.3   265  NDU265      0.3033
     20  C6        99.5810    5.5040    1.0120 C.3   265  NDU265      0.1539
     21  N5       101.0020    7.2840    0.1420 N.pl3 265  NDU265      0.0514
     22  O51      101.4410    8.4230    0.0970 O.2   265  NDU265     -0.1299
     23  O52      101.3440    6.4140   -0.8060 O.2   265  NDU265     -0.1299
@<TRIPOS>BOND
     1     4     1    2
     2     2     1    1
     3     1     3    1
     4     1     5    1
     5     5     6    1
     6     6     7    1
     7    23    21    2
     8    22    21    2
     9    21    19    1
    10     7    12    1
    11     7     8    1
    12    20    19    1
    13    20    13    1
    14    19    17    1
    15    12    11    1
    16     8    10    1
    17     8     9    1
    18    10    11    1
    19    11    13    1
    20    13    14   am
    21    17    18    2
    22    17    16    2
    23    14    16    2
    24    14    15    2
