@<TRIPOS>MOLECULE
3bhm_AHE_A_1.pdb
 22 21 0 0 0
SMALL
GASTEIGER

@<TRIPOS>ATOM
      1  N1        37.4040   18.2770    9.2150 N.3   304  AHE304     -0.1208
      2  CA1       36.0400   17.7320    9.3870 C.3   304  AHE304      0.1948
      3  CB1       35.3060   17.8050    8.0620 C.3   304  AHE304      0.0402
      4  CG1       33.8150   17.6440    8.2890 C.3   304  AHE304      0.0889
      5  CD1       32.9950   17.9460    7.0400 C.2   304  AHE304      0.2418
      6  OE1       33.1490   17.2830    6.0090 O.2   304  AHE304     -0.2733
      7  N2        32.1240   18.9520    7.1850 N.am  304  AHE304     -0.1969
      8  CA2       31.2110   19.3590    6.1070 C.3   304  AHE304      0.1835
      9  CB2       29.8780   18.6720    6.4010 C.3   304  AHE304      0.0911
     10  SG2       30.0830   16.9900    7.0810 S.3   304  AHE304     -0.1031
     11  CD2       30.0360   16.0740    5.5030 C.3   304  AHE304      0.2401
     12  OE2       31.3150   16.1230    4.8990 O.3   304  AHE304     -0.2073
     13  C2        30.8910   20.8440    6.1110 C.2   304  AHE304      0.2626
     14  O2        30.7980   21.4570    7.1690 O.2   304  AHE304     -0.2714
     15  N3        30.6750   21.3490    4.8930 N.am  304  AHE304     -0.1917
     16  CA3       30.3010   22.7500    4.6040 C.3   304  AHE304      0.2285
     17  C3        31.4360   23.7500    4.8690 C.2   304  AHE304      0.3865
     18  O31       31.0890   24.9450    5.0060 O.co2 304  AHE304     -0.2437
     19  O32       32.6070   23.3100    4.9140 O.co2 304  AHE304     -0.2437
     20  C1        36.1320   16.2750    9.8600 C.2   304  AHE304      0.3819
     21  O11       37.1950   15.6780    9.5940 O.co2 304  AHE304     -0.2441
     22  O12       35.1370   15.8010   10.4640 O.co2 304  AHE304     -0.2441
@<TRIPOS>BOND
     1    16    17    1
     2    16    15    1
     3    17    19   ar
     4    17    18   ar
     5    15    13   am
     6    12    11    1
     7    11    10    1
     8     6     5    2
     9     8    13    1
    10     8     9    1
    11     8     7    1
    12    13    14    2
    13     9    10    1
    14     5     7   am
    15     5     4    1
    16     3     4    1
    17     3     2    1
    18     1     2    1
    19     2    20    1
    20    21    20   ar
    21    20    22   ar
