@<TRIPOS>MOLECULE
3bhm_AB3_A_1.pdb
 21 23 0 0 0
SMALL
GASTEIGER

@<TRIPOS>ATOM
      1  C20       30.2080   18.3040   -0.4750 C.3   307  AB3307      0.0491
      2  C14       29.4600   17.1390   -1.1260 C.3   307  AB3307      0.1509
      3  C19       30.4610   16.0610   -1.5560 C.3   307  AB3307      0.0491
      4  C21       28.7010   17.6510   -2.3560 C.3   307  AB3307      0.0491
      5  N11       28.4710   16.5190   -0.1370 N.pl3 307  AB3307     -0.0877
      6  N15       28.4240   16.8070    1.0800 N.2   307  AB3307     -0.0915
      7  C7        27.5560   15.5740   -0.4440 C.2   307  AB3307      0.3404
      8  N3        27.2260   14.9330   -1.5900 N.2   307  AB3307     -0.0088
      9  C6        26.2490   14.0370   -1.6200 C.3   307  AB3307      0.5248
     10  N5        25.5750   13.7120   -0.5200 N.2   307  AB3307     -0.0027
     11  C2        25.8390   14.3030    0.6660 C.2   307  AB3307      0.4081
     12  N1        25.1030   13.9170    1.7090 N.pl3 307  AB3307      0.2118
     13  C4        26.8660   15.2660    0.7350 C.3   307  AB3307      0.2639
     14  C13       27.4740   16.0880    1.7000 C.2   307  AB3307      0.1227
     15  C18       27.1550   16.1780    3.0690 C.ar  307  AB3307      0.0214
     16  C28       27.0460   15.0290    3.8640 C.ar  307  AB3307      0.0433
     17  C27       26.9780   17.4400    3.6570 C.ar  307  AB3307      0.0015
     18  C30       26.6710   17.5560    5.0210 C.ar  307  AB3307      0.0033
     19  C26       26.5640   16.4080    5.8070 C.ar  307  AB3307      0.0420
     20  C29       26.7560   15.1490    5.2290 C.ar  307  AB3307      0.1958
     21  O33       26.6230   14.0300    5.9770 O.3   307  AB3307     -0.2866
@<TRIPOS>BOND
     1     4     2    1
     2     9     8    1
     3     9    10    1
     4     8     7    2
     5     3     2    1
     6     2     1    1
     7     2     5    1
     8    10    11    2
     9     7     5    1
    10     7    13    1
    11     5     6    1
    12    11    13    1
    13    11    12    1
    14    13    14    1
    15     6    14    2
    16    14    15    1
    17    15    17   ar
    18    15    16   ar
    19    17    18   ar
    20    16    20   ar
    21    18    19   ar
    22    20    19   ar
    23    20    21    1
