@<TRIPOS>MOLECULE
3bhm_NAP_A_1.pdb
 48 52 0 0 0
SMALL
GASTEIGER

@<TRIPOS>ATOM
      1  PA        21.6970   21.3280   11.1690 P.3   309  NAP309      0.2189
      2  O1A       20.9110   22.2890   10.3490 O.2   309  NAP309     -0.5170
      3  O2A       22.9730   21.7930   11.7690 O.3   309  NAP309     -0.4371
      4  O5B       20.7440   20.7900   12.3130 O.3   309  NAP309     -0.3112
      5  C5B       21.2820   19.9100   13.3100 C.3   309  NAP309      0.1813
      6  C4B       20.2330   19.7510   14.4220 C.3   309  NAP309      0.1820
      7  O4B       20.8750   18.8740   15.4010 O.3   309  NAP309     -0.3136
      8  C3B       19.9740   21.1040   15.1260 C.3   309  NAP309      0.2157
      9  O3B       18.6200   21.1050   15.6620 O.3   309  NAP309     -0.2175
     10  C2B       20.9930   21.0430   16.2580 C.3   309  NAP309      0.2314
     11  O2B       20.6350   21.8960   17.3650 O.3   309  NAP309     -0.2630
     12  C1B       20.8250   19.5540   16.6490 C.3   309  NAP309      0.3158
     13  N9A       21.9160   19.1390   17.5650 N.pl3 309  NAP309     -0.1439
     14  C8A       23.2360   19.2300   17.3780 C.3   309  NAP309      0.3377
     15  N7A       23.8680   18.7850   18.4830 N.2   309  NAP309     -0.2095
     16  C5A       22.9160   18.4250   19.3760 C.2   309  NAP309      0.2526
     17  C6A       22.9140   17.9150   20.6710 C.2   309  NAP309      0.4393
     18  N6A       24.0790   17.6730   21.3140 N.pl3 309  NAP309      0.2180
     19  N1A       21.7120   17.6740   21.2770 N.2   309  NAP309      0.0021
     20  C2A       20.5590   17.9030   20.6760 C.3   309  NAP309      0.5254
     21  N3A       20.5230   18.4150   19.4410 N.2   309  NAP309     -0.0055
     22  C4A       21.6840   18.6650   18.7800 C.2   309  NAP309      0.3518
     23  O3        22.0870   20.0290   10.3620 O.3   309  NAP309     -0.2703
     24  PN        21.1820   19.0910    9.4070 P.3   309  NAP309      0.2189
     25  O1N       21.8190   19.2110    8.0670 O.2   309  NAP309     -0.5170
     26  O2N       19.7350   19.3620    9.5480 O.3   309  NAP309     -0.4371
     27  O5D       21.6010   17.6960   10.0520 O.3   309  NAP309     -0.3112
     28  C5D       20.6320   16.7500   10.5500 C.3   309  NAP309      0.1813
     29  C4D       21.2330   15.3030   10.4760 C.3   309  NAP309      0.1799
     30  O4D       21.4500   14.9240    9.0680 O.3   309  NAP309     -0.3327
     31  C3D       22.6060   15.2340   11.1390 C.3   309  NAP309      0.2158
     32  O3D       22.7220   13.9820   11.8810 O.3   309  NAP309     -0.2175
     33  C2D       23.5620   15.3090    9.9350 C.3   309  NAP309      0.2309
     34  O2D       24.7950   14.6710   10.2530 O.3   309  NAP309     -0.2158
     35  C1D       22.8050   14.4290    8.9570 C.3   309  NAP309      0.2263
     36  N1N       23.0780   14.6520    7.5150 N.pl3 309  NAP309     -0.2787
     37  C2N       22.9320   15.9460    6.9600 C.3   309  NAP309      0.1244
     38  C3N       23.1680   16.0970    5.5980 C.2   309  NAP309      0.0544
     39  C7N       23.0260   17.4590    4.9210 C.2   309  NAP309      0.2818
     40  O7N       22.4960   18.5570    5.5310 O.2   309  NAP309     -0.2670
     41  N7N       23.4250   17.4760    3.6620 N.am  309  NAP309     -0.0839
     42  C4N       23.5070   14.9890    4.8100 C.2   309  NAP309      0.0033
     43  C5N       23.6400   13.7120    5.3560 C.2   309  NAP309      0.0157
     44  C6N       23.4220   13.5410    6.7160 C.2   309  NAP309      0.0633
     45  P2B       21.2080   23.4350   17.4530 P.3   309  NAP309      0.5328
     46  O1X       22.5920   23.5260   16.9400 O.3   309  NAP309     -0.1145
     47  O2X       20.9390   23.9010   18.9500 O.3   309  NAP309     -0.1145
     48  O3X       20.2550   24.3000   16.5620 O.2   309  NAP309     -0.2224
@<TRIPOS>BOND
     1    41    39   am
     2    42    43    1
     3    42    38    2
     4    39    40    2
     5    39    38    1
     6    43    44    2
     7    38    37    1
     8    44    36    1
     9    37    36    1
    10    36    35    1
    11    25    24    2
    12    35    30    1
    13    35    33    1
    14    30    29    1
    15    24    26    1
    16    24    27    1
    17    24    23    1
    18    33    34    1
    19    33    31    1
    20    27    28    1
    21     2     1    2
    22    23     1    1
    23    29    28    1
    24    29    31    1
    25    31    32    1
    26     1     3    1
    27     1     4    1
    28     4     5    1
    29     5     6    1
    30     6     8    1
    31     6     7    1
    32     8     9    1
    33     8    10    1
    34     7    12    1
    35    10    12    1
    36    10    11    1
    37    48    45    2
    38    12    13    1
    39    46    45    1
    40    11    45    1
    41    14    13    1
    42    14    15    1
    43    45    47    1
    44    13    22    1
    45    15    16    2
    46    22    16    1
    47    22    21    2
    48    16    17    1
    49    21    20    1
    50    17    19    2
    51    17    18    1
    52    20    19    1
