@<TRIPOS>MOLECULE
3bho_B4P_A_1.pdb
 22 22 0 0 0
SMALL
GASTEIGER

@<TRIPOS>ATOM
      1  O3A        4.3150    7.2670   21.5560 O.3   800  B4P800     -0.1143
      2  PB         4.3000    8.2970   20.3580 P.3   800  B4P800      0.5373
      3  O1B        5.6600    8.3180   19.7620 O.3   800  B4P800     -0.1143
      4  O2B        3.1300    7.9770   19.5010 O.2   800  B4P800     -0.2221
      5  O3B        4.0350    9.7000   21.0360 O.3   800  B4P800     -0.2258
      6  PG         4.6110   11.1240   20.6590 P.3   800  B4P800      0.2291
      7  O1G        5.5400   10.9590   19.5120 O.2   800  B4P800     -0.5168
      8  O2G        5.0980   11.7590   21.9110 O.3   800  B4P800     -0.4368
      9  O3G        3.3630   11.9490   20.1520 O.3   800  B4P800     -0.2509
     10  PD         3.2090   13.5120   19.9710 P.3   800  B4P800      0.3991
     11  O1D        4.3760   14.0070   19.1980 O.3   800  B4P800     -0.1422
     12  O2D        1.8340   13.7830   19.4800 O.3   800  B4P800     -0.1422
     13  N9A       -0.2550   10.0930   19.5250 N.2   800  B4P800     -0.1914
     14  C8A        0.4590   10.4380   18.4030 C.3   800  B4P800      0.2618
     15  N7A       -0.2160   10.3100   17.2860 N.2   800  B4P800     -0.2267
     16  C5A       -1.4580    9.8500   17.6990 C.2   800  B4P800      0.2303
     17  C6A       -2.6310    9.5180   16.9930 C.2   800  B4P800      0.4393
     18  N6A       -2.7440    9.6020   15.6650 N.pl3 800  B4P800      0.2185
     19  N1A       -3.6980    9.0920   17.7080 N.2   800  B4P800     -0.0265
     20  C2A       -3.5860    9.0080   19.0420 C.3   800  B4P800      0.4008
     21  N3A       -2.5390    9.2910   19.8180 N.2   800  B4P800     -0.1640
     22  C4A       -1.4970    9.7110   19.0760 C.1   800  B4P800      0.0579
@<TRIPOS>BOND
     1    18    17    1
     2    17    16    1
     3    17    19    2
     4    15    16    2
     5    15    14    1
     6    16    22    1
     7    19    20    1
     8    14    13    1
     9    20    21    1
    10    22    13    2
    11    22    21    2
    12    11    10    1
    13    12    10    1
    14     4     2    2
    15     7     6    2
    16     3     2    1
    17    10     9    1
    18     9     6    1
    19     2     5    1
    20     2     1    1
    21     6     5    1
    22     6     8    1
