@<TRIPOS>MOLECULE
3bhr_NDU_A_1.pdb
 23 24 0 0 0
SMALL
GASTEIGER

@<TRIPOS>ATOM
      1  P         40.6750  -13.9470   45.7560 P.3   265  NDU265      0.5327
      2  OP1       41.7960  -13.0160   45.4260 O.3   265  NDU265     -0.1145
      3  OP2       40.6680  -14.3870   47.2180 O.3   265  NDU265     -0.1145
      4  OP3       39.3790  -13.4810   45.1630 O.2   265  NDU265     -0.2224
      5  O5'       41.0710  -15.3240   44.9950 O.3   265  NDU265     -0.2675
      6  C5'       41.2920  -15.4330   43.5710 C.3   265  NDU265      0.1858
      7  C4'       42.5890  -16.1860   43.3030 C.3   265  NDU265      0.1774
      8  C3'       43.8480  -15.4130   43.6690 C.3   265  NDU265      0.1857
      9  O3'       44.9130  -16.3360   43.9340 O.3   265  NDU265     -0.2203
     10  C2'       44.0640  -14.5450   42.4240 C.3   265  NDU265      0.0871
     11  C1'       43.7520  -15.5860   41.3710 C.3   265  NDU265      0.2049
     12  O4'       42.6860  -16.4530   41.8960 O.3   265  NDU265     -0.3342
     13  N1        43.3500  -15.1770   40.0340 N.am  265  NDU265     -0.1996
     14  C2        44.2640  -14.8500   39.0440 C.1   265  NDU265      0.2803
     15  O2        45.4790  -14.7320   39.3210 O.2   265  NDU265     -0.1922
     16  N3        43.8060  -14.5850   37.7980 N.2   265  NDU265     -0.2476
     17  C4        42.5520  -14.7470   37.4080 C.1   265  NDU265      0.2213
     18  O4        42.2140  -14.5960   36.1800 O.2   265  NDU265     -0.2112
     19  C5        41.6080  -15.1430   38.4670 C.3   265  NDU265      0.3033
     20  C6        42.0500  -14.8450   39.7840 C.3   265  NDU265      0.1539
     21  N5        40.2720  -15.3770   38.1680 N.pl3 265  NDU265      0.0514
     22  O51       39.4580  -15.7510   39.0020 O.2   265  NDU265     -0.1299
     23  O52       39.8380  -15.2080   36.8890 O.2   265  NDU265     -0.1299
@<TRIPOS>BOND
     1    18    17    2
     2    23    21    2
     3    17    16    2
     4    17    19    1
     5    16    14    2
     6    21    19    1
     7    21    22    2
     8    19    20    1
     9    14    15    2
    10    14    13   am
    11    20    13    1
    12    13    11    1
    13    11    12    1
    14    11    10    1
    15    12     7    1
    16    10     8    1
    17     7     6    1
    18     7     8    1
    19     6     5    1
    20     8     9    1
    21     5     1    1
    22     4     1    2
    23     2     1    1
    24     1     3    1
