@<TRIPOS>MOLECULE
3bhr_THG_A_1.pdb
 32 34 0 0 0
SMALL
GASTEIGER

@<TRIPOS>ATOM
      1  N3        42.0240  -19.4510   42.2020 N.2   266  THG266     -0.2466
      2  C2        43.3400  -19.5550   42.3210 C.1   266  THG266      0.2609
      3  N1        44.1800  -19.2960   41.3020 N.2   266  THG266     -0.2672
      4  C8A       43.6970  -18.9560   40.0880 C.1   266  THG266      0.1401
      5  C4A       42.2570  -18.8390   39.8940 C.2   266  THG266      0.2988
      6  C4        41.4430  -19.1160   41.0640 C.1   266  THG266      0.2569
      7  N8        44.5200  -18.7440   39.0730 N.2   266  THG266     -0.1992
      8  C7        44.0500  -18.5020   37.7560 C.3   266  THG266      0.1931
      9  C6        42.5520  -18.1500   37.6220 C.2   266  THG266      0.1356
     10  N5        41.6910  -18.5740   38.7000 N.2   266  THG266     -0.3839
     11  C9        41.7870  -18.1010   36.2290 C.3   266  THG266      0.1683
     12  N10       42.8040  -18.6760   35.4200 N.pl3 266  THG266     -0.2303
     13  C4'       43.2150  -19.9990   35.5380 C.ar  266  THG266      0.0658
     14  C3'       44.3300  -20.3210   34.7910 C.ar  266  THG266      0.0162
     15  C2'       44.8450  -21.5810   34.8110 C.ar  266  THG266      0.0059
     16  C1'       44.2660  -22.5930   35.5780 C.ar  266  THG266      0.0551
     17  C6'       43.1570  -22.2980   36.3500 C.ar  266  THG266      0.0059
     18  C5'       42.6320  -21.0120   36.3210 C.ar  266  THG266      0.0162
     19  C11       44.8950  -23.9570   35.5400 C.2   266  THG266      0.2652
     20  N         45.7760  -24.1270   34.5620 N.am  266  THG266     -0.1918
     21  CA        46.5780  -25.2250   34.2100 C.3   266  THG266      0.1986
     22  C         48.0260  -24.9280   34.1510 C.2   266  THG266      0.3842
     23  OX2       48.8870  -25.8630   34.5430 O.co2 266  THG266     -0.2437
     24  OX1       48.3760  -23.8260   33.6720 O.co2 266  THG266     -0.2437
     25  CB        45.9860  -26.4800   33.6090 C.3   266  THG266      0.0451
     26  CG        45.4260  -25.9740   32.2700 C.3   266  THG266      0.1164
     27  CD        44.4930  -26.9470   31.5830 C.2   266  THG266      0.3649
     28  OE1       44.9310  -27.6810   30.7060 O.co2 266  THG266     -0.2457
     29  OE2       43.2020  -27.0340   31.9180 O.co2 266  THG266     -0.2457
     30  O11       44.6410  -24.8060   36.3720 O.2   266  THG266     -0.2684
     31  O4        40.2140  -19.0250   40.9800 O.2   266  THG266     -0.2052
     32  N2        43.8310  -19.9010   43.5340 N.pl3 266  THG266     -0.0220
@<TRIPOS>BOND
     1    28    27   ar
     2    27    29   ar
     3    27    26    1
     4    26    25    1
     5    25    21    1
     6    24    22   ar
     7    22    21    1
     8    22    23   ar
     9    21    20    1
    10    20    19   am
    11    14    15   ar
    12    14    13   ar
    13    15    16   ar
    14    12    13    1
    15    12    11    1
    16    13    18   ar
    17    19    16    1
    18    19    30    2
    19    16    17   ar
    20    11     9    1
    21    18    17   ar
    22     9     8    1
    23     9    10    2
    24     8     7    1
    25    10     5    2
    26     7     4    2
    27     5     4    1
    28     5     6    1
    29     4     3    2
    30    31     6    2
    31     6     1    2
    32     3     2    2
    33     1     2    2
    34     2    32    1
