@<TRIPOS>MOLECULE
3bht_MFR_A_1.pdb
 18 20 0 0 0
SMALL
GASTEIGER

@<TRIPOS>ATOM
      1  C2        -7.0960   22.8860  -24.4990 C.2   299  MFR299      0.0590
      2  C3        -8.2420   23.3770  -25.1420 C.2   299  MFR299      0.1127
      3  C1        -7.1610   21.9510  -23.4510 C.2   299  MFR299      0.1497
      4  C11       -8.5140   19.8390  -20.9480 C.2   299  MFR299      0.1480
      5  N6        -9.9660   18.3170  -18.0300 N.pl3 299  MFR299     -0.0345
      6  C12       -9.0230   18.6690  -18.9480 C.1   299  MFR299      0.1864
      7  N7        -7.7150   18.3050  -18.8030 N.2   299  MFR299     -0.1673
      8  C13       -6.7920   18.6820  -19.7160 C.2   299  MFR299      0.1145
      9  C14       -7.1730   19.4220  -20.8440 C.2   299  MFR299      0.0546
     10  N5        -9.4050   19.3950  -20.0200 N.2   299  MFR299     -0.3351
     11  C9        -9.0630   20.5450  -22.1460 C.2   299  MFR299      0.0628
     12  C8       -10.5600   20.6980  -22.2880 C.2   299  MFR299      0.1129
     13  N2       -10.8140   21.5750  -23.3070 N.2   299  MFR299     -0.1920
     14  C10       -8.5320   21.5530  -23.0420 C.2   299  MFR299      0.1003
     15  O1        -6.0520   21.4540  -22.8110 O.2   299  MFR299     -0.4707
     16  C15       -4.7200   21.7990  -23.1980 C.3   299  MFR299      0.2525
     17  C4        -9.6560   22.1000  -23.8000 C.1   299  MFR299      0.0384
     18  N1        -9.4920   22.9930  -24.8130 N.2   299  MFR299     -0.1920
@<TRIPOS>BOND
     1     2    18    1
     2     2     1    2
     3    18    17    2
     4     1     3    1
     5    17    13    2
     6    17    14    1
     7     3    14    2
     8     3    15    1
     9    13    12    1
    10    16    15    1
    11    14    11    1
    12    12    11    2
    13    11     4    1
    14     4     9    1
    15     4    10    2
    16     9     8    2
    17    10     6    2
    18     8     7    1
    19     6     7    2
    20     6     5    1
