@<TRIPOS>MOLECULE
3bhu_MHR_A_1.pdb
 20 22 0 0 0
SMALL
GASTEIGER

@<TRIPOS>ATOM
      1  C2        -7.1740   23.0260  -24.1980 C.2   299  MHR299      0.0590
      2  C3        -8.2830   23.5990  -24.8210 C.2   299  MHR299      0.1127
      3  C1        -7.3000   22.0080  -23.2510 C.2   299  MHR299      0.1495
      4  C11       -8.7760   19.8440  -20.9080 C.2   299  MHR299      0.1480
      5  N6       -10.1860   18.3250  -17.9780 N.pl3 299  MHR299     -0.0345
      6  C12       -9.2670   18.7050  -18.9000 C.1   299  MHR299      0.1864
      7  N7        -7.9620   18.3700  -18.7550 N.2   299  MHR299     -0.1673
      8  C13       -7.0450   18.7510  -19.6700 C.2   299  MHR299      0.1145
      9  C14       -7.4380   19.4730  -20.7940 C.2   299  MHR299      0.0546
     10  N5        -9.6640   19.4120  -19.9790 N.2   299  MHR299     -0.3351
     11  C9        -9.2830   20.5400  -22.1290 C.2   299  MHR299      0.0628
     12  C8       -10.7730   20.7510  -22.2970 C.2   299  MHR299      0.1129
     13  N2       -10.9760   21.7190  -23.2490 N.2   299  MHR299     -0.1920
     14  C4        -9.7850   22.2500  -23.6600 C.1   299  MHR299      0.0384
     15  N1        -9.5520   23.2340  -24.5650 N.2   299  MHR299     -0.1920
     16  C10       -8.6930   21.6000  -22.9230 C.2   299  MHR299      0.1003
     17  O1        -6.1890   21.4550  -22.6620 O.2   299  MHR299     -0.4747
     18  C15       -5.0030   22.2270  -22.4400 C.3   299  MHR299      0.2054
     19  C16       -4.2990   21.7500  -21.1700 C.3   299  MHR299      0.0473
     20  C17       -4.9940   22.2950  -19.9360 C.3   299  MHR299      0.0040
@<TRIPOS>BOND
     1     2    15    1
     2     2     1    2
     3    15    14    2
     4     1     3    1
     5    14    13    2
     6    14    16    1
     7     3    16    2
     8     3    17    1
     9    13    12    1
    10    16    11    1
    11    17    18    1
    12    18    19    1
    13    12    11    2
    14    11     4    1
    15    19    20    1
    16     4     9    1
    17     4    10    2
    18     9     8    2
    19    10     6    2
    20     8     7    1
    21     6     7    2
    22     6     5    1
