@<TRIPOS>MOLECULE
3bhv_VAR_A_1.pdb
 22 25 0 0 0
SMALL
GASTEIGER

@<TRIPOS>ATOM
      1  O1        -6.1760   18.7820  -19.4880 O.3   299  VAR299     -0.2864
      2  C1        -7.3860   19.1870  -19.9730 C.ar  299  VAR299      0.2002
      3  C2        -8.5530   18.7360  -19.3780 C.ar  299  VAR299      0.0628
      4  C3        -9.7980   19.1600  -19.8680 C.ar  299  VAR299      0.1038
      5  N1        -9.9770   19.9910  -20.9180 N.ar  299  VAR299     -0.2261
      6  C4        -8.8960   20.4880  -21.5790 C.ar  299  VAR299      0.1529
      7  N2        -8.9140   21.3280  -22.6320 N.ar  299  VAR299     -0.2621
      8  C5        -9.9670   21.8660  -23.2800 C.ar  299  VAR299      0.2428
      9  N3       -11.2400   21.5960  -22.9090 N.pl3 299  VAR299     -0.0874
     10  N4        -9.7470   22.6980  -24.3290 N.ar  299  VAR299     -0.2106
     11  C6        -8.4970   22.9890  -24.7290 C.ar  299  VAR299      0.1034
     12  C7        -7.4060   22.4420  -24.0570 C.ar  299  VAR299      0.0385
     13  C8        -7.6390   21.5870  -22.9880 C.ar  299  VAR299      0.0721
     14  C9        -6.6810   20.8500  -22.0920 C.ar  299  VAR299      0.0529
     15  C10       -7.5380   20.1080  -21.1300 C.ar  299  VAR299      0.0774
     16  C11       -5.1920   20.8540  -22.1140 C.2   299  VAR299      0.1473
     17  C14       -4.4800   20.0740  -21.2110 C.2   299  VAR299      0.0546
     18  C13       -3.0900   20.0990  -21.2320 C.2   299  VAR299      0.1145
     19  N7        -2.4600   20.8760  -22.1260 N.2   299  VAR299     -0.1673
     20  C12       -3.1670   21.6300  -23.0070 C.1   299  VAR299      0.1864
     21  N5        -4.5240   21.6220  -22.9970 N.2   299  VAR299     -0.3351
     22  N6        -2.5100   22.4150  -23.9060 N.pl3 299  VAR299     -0.0345
@<TRIPOS>BOND
     1    11    10   ar
     2    11    12   ar
     3    10     8   ar
     4    12    13   ar
     5    22    20    1
     6     8     9    1
     7     8     7   ar
     8    20    21    2
     9    20    19    2
    10    21    16    2
    11    13     7   ar
    12    13    14   ar
    13     7     6   ar
    14    19    18    1
    15    16    14    1
    16    16    17    1
    17    14    15   ar
    18     6    15   ar
    19     6     5   ar
    20    18    17    2
    21    15     2   ar
    22     5     4   ar
    23     2     1    1
    24     2     3   ar
    25     4     3   ar
