@<TRIPOS>MOLECULE
3bhx_NAG_A_1.pdb
 14 14 0 0 0
SMALL
GASTEIGER

@<TRIPOS>ATOM
      1  C1        11.7260   26.0520   57.8720 C.3   1755  NAG1755     0.1665
      2  C2        11.5040   24.6130   57.4110 C.3   1755  NAG1755     0.1576
      3  C3        10.0530   24.1670   57.6160 C.3   1755  NAG1755     0.2069
      4  C4         9.4970   24.5200   58.9800 C.3   1755  NAG1755     0.2134
      5  C5         9.8850   25.9490   59.3360 C.3   1755  NAG1755     0.1809
      6  C6         9.4260   26.3460   60.7460 C.3   1755  NAG1755     0.2141
      7  C7        13.0620   23.8770   55.7310 C.2   1755  NAG1755     0.2420
      8  C8        13.3380   23.6650   54.2860 C.3   1755  NAG1755     0.0964
      9  N2        11.8950   24.4710   56.0230 N.am  1755  NAG1755    -0.2019
     10  O3         9.9910   22.7660   57.5540 O.3   1755  NAG1755    -0.2184
     11  O4         8.0880   24.3940   58.8440 O.3   1755  NAG1755    -0.2176
     12  O5        11.2860   26.1480   59.2170 O.3   1755  NAG1755    -0.3489
     13  O6        10.1840   25.6270   61.6920 O.3   1755  NAG1755    -0.2176
     14  O7        13.8900   23.5170   56.5790 O.2   1755  NAG1755    -0.2733
@<TRIPOS>BOND
     1     8     7    1
     2     7     9   am
     3     7    14    2
     4     9     2    1
     5     2     3    1
     6     2     1    1
     7    10     3    1
     8     3     4    1
     9     1    12    1
    10    11     4    1
    11     4     5    1
    12    12     5    1
    13     5     6    1
    14     6    13    1
