@<TRIPOS>MOLECULE
3bhx_BHX_A_1.pdb
 18 17 0 0 0
SMALL
GASTEIGER

@<TRIPOS>ATOM
      1  O3        19.6910   46.9650   46.2160 O.co2   1  BHX1       -0.2456
      2  C2        19.8820   46.9110   44.9880 C.2     1  BHX1        0.3654
      3  O2        20.4650   47.8730   44.4470 O.co2   1  BHX1       -0.2456
      4  C4        19.3970   45.7670   44.0590 C.3     1  BHX1        0.1243
      5  C5        18.6770   44.7510   44.8520 C.3     1  BHX1        0.1013
      6  P6        17.5140   43.8580   43.8400 P.3     1  BHX1        0.2552
      7  O61       18.2360   42.9430   42.8000 O.2     1  BHX1       -0.2869
      8  O6        16.7070   43.0670   44.7860 O.3     1  BHX1       -0.1678
      9  C1        16.3170   44.9200   42.9990 C.3     1  BHX1        0.1007
     10  CA        15.9010   44.4150   41.5800 C.3     1  BHX1        0.1137
     11  C         17.0720   44.5110   40.5970 C.2     1  BHX1        0.3649
     12  O         17.9830   45.3720   40.7240 O.co2   1  BHX1       -0.2457
     13  OC        17.0940   43.6960   39.5810 O.co2   1  BHX1       -0.2457
     14  CB        14.6720   45.1840   40.9650 C.3     1  BHX1        0.0236
     15  CG        14.9820   46.6890   41.0340 C.3     1  BHX1        0.1146
     16  CD        13.9080   47.5000   40.3570 C.2     1  BHX1        0.3649
     17  OE2       13.1300   46.9540   39.5330 O.co2   1  BHX1       -0.2457
     18  OE1       13.9030   48.7330   40.5890 O.co2   1  BHX1       -0.2457
@<TRIPOS>BOND
     1    17    16   ar
     2    13    11   ar
     3    16    18   ar
     4    16    15    1
     5    11    12   ar
     6    11    10    1
     7    14    15    1
     8    14    10    1
     9    10     9    1
    10     7     6    2
    11     9     6    1
    12     6     8    1
    13     6     5    1
    14     4     5    1
    15     4     2    1
    16     3     2   ar
    17     2     1   ar
