@<TRIPOS>MOLECULE
3bhy_7CP_A_1.pdb
 25 28 0 0 0
SMALL
GASTEIGER

@<TRIPOS>ATOM
      1  C1L       14.7410   19.5280   31.1480 C.3   600  7CP600      0.0420
      2  C1J       14.2070   18.2000   31.6700 C.3   600  7CP600      0.0741
      3  N1W       13.6640   18.3310   33.0280 N.3   600  7CP600     -0.2714
      4  C1A       14.7860   18.4880   33.9770 C.3   600  7CP600      0.0896
      5  C1K       12.6820   19.4280   33.1500 C.3   600  7CP600      0.0741
      6  C1M       13.2650   20.7660   32.6980 C.3   600  7CP600      0.0420
      7  C1Y       13.7230   20.6730   31.2500 C.3   600  7CP600      0.1150
      8  N1N       12.5600   20.3020   30.4190 N.2   600  7CP600     -0.2038
      9  C1O       12.4540   20.5720   29.0730 C.1   600  7CP600      0.1661
     10  O1D       11.4490   20.1760   28.4860 O.2   600  7CP600     -0.2208
     11  C1R       13.5160   21.2290   28.4510 C.ar  600  7CP600      0.1412
     12  N1X       13.8900   21.4110   27.1780 N.ar  600  7CP600     -0.3158
     13  C1B       13.1890   20.8480   26.0210 C.3   600  7CP600      0.1311
     14  C1U       15.0220   22.1130   27.1090 C.ar  600  7CP600      0.0717
     15  C1Q       15.8020   22.6010   26.0540 C.ar  600  7CP600      0.0839
     16 CL1F       15.4080   22.2130   24.4100 Cl    600  7CP600     -0.0799
     17  C1P       16.9550   23.3410   26.4340 C.ar  600  7CP600      0.0696
     18 CL1E       18.1510   23.9910   25.3680 Cl    600  7CP600     -0.0813
     19  C1H       17.2550   23.6190   27.7540 C.ar  600  7CP600      0.0123
     20  C1I       16.4490   23.1840   28.7570 C.ar  600  7CP600      0.0021
     21  C1T       15.3560   22.4440   28.4110 C.ar  600  7CP600      0.0159
     22  C1S       14.4320   21.8970   29.2500 C.ar  600  7CP600      0.0220
     23  C1V       14.3850   21.9320   30.7720 C.3   600  7CP600      0.1370
     24  C1G       13.5940   23.0760   31.2160 C.1   600  7CP600      0.0786
     25  N1C       12.9920   23.9620   31.6290 N.1   600  7CP600     -0.1955
@<TRIPOS>BOND
     1    16    15    1
     2    18    17    1
     3    13    12    1
     4    15    17   ar
     5    15    14   ar
     6    17    19   ar
     7    14    12   ar
     8    14    21   ar
     9    12    11   ar
    10    19    20   ar
    11    21    20   ar
    12    21    22   ar
    13    11     9    1
    14    11    22   ar
    15    10     9    2
    16     9     8    2
    17    22    23    1
    18     8     7    1
    19    23    24    1
    20    23     7    1
    21     1     7    1
    22     1     2    1
    23    24    25    3
    24     7     6    1
    25     2     3    1
    26     6     5    1
    27     3     5    1
    28     3     4    1
