@<TRIPOS>MOLECULE
3bi0_BIX_A_1.pdb
 20 19 0 0 0
SMALL
GASTEIGER

@<TRIPOS>ATOM
      1  C2        20.6530   46.6800   44.2620 C.3     1  BIX1        0.1949
      2  C5        18.8110   44.9500   44.6870 C.3     1  BIX1        0.0916
      3  C3        20.4040   47.0840   45.6850 C.2     1  BIX1        0.3819
      4  C4        19.5020   45.8290   43.6730 C.3     1  BIX1        0.0409
      5  C1        16.3820   45.1160   42.9370 C.3     1  BIX1        0.1007
      6  O1        20.9880   46.4780   46.5960 O.co2   1  BIX1       -0.2441
      7  OE2       13.0800   47.1290   39.5810 O.co2   1  BIX1       -0.2457
      8  CD        13.9210   47.6830   40.3260 C.2     1  BIX1        0.3649
      9  OE1       13.8880   48.9150   40.5370 O.co2   1  BIX1       -0.2457
     10  CG        15.0220   46.8980   41.0680 C.3     1  BIX1        0.1146
     11  CB        14.7730   45.3950   40.9220 C.3     1  BIX1        0.0236
     12  CA        15.9580   44.5710   41.5140 C.3     1  BIX1        0.1137
     13  C         17.0890   44.6320   40.4990 C.2     1  BIX1        0.3649
     14  OC        17.0920   43.8530   39.4850 O.co2   1  BIX1       -0.2457
     15  O         17.9720   45.4820   40.6520 O.co2   1  BIX1       -0.2457
     16  P6        17.5820   43.9970   43.7870 P.3     1  BIX1        0.2547
     17  O61       18.2850   43.1170   42.6950 O.2     1  BIX1       -0.2869
     18  O6        16.7770   43.2200   44.7730 O.3     1  BIX1       -0.1678
     19  N         21.8660   45.8660   44.3100 N.3     1  BIX1       -0.1208
     20  O3        19.6350   47.9720   45.9510 O.co2   1  BIX1       -0.2441
@<TRIPOS>BOND
     1    14    13   ar
     2     7     8   ar
     3     8     9   ar
     4     8    10    1
     5    13    15   ar
     6    13    12    1
     7    11    10    1
     8    11    12    1
     9    12     5    1
    10    17    16    2
    11     5    16    1
    12     4     1    1
    13     4     2    1
    14    16     2    1
    15    16    18    1
    16     1    19    1
    17     1     3    1
    18     3    20   ar
    19     3     6   ar
