@<TRIPOS>MOLECULE
3bi0_NAG_A_1.pdb
 14 14 0 0 0
SMALL
GASTEIGER

@<TRIPOS>ATOM
      1  C1        11.6610   26.3100   57.8560 C.3   1755  NAG1755     0.1665
      2  C2        11.4980   24.8500   57.4330 C.3   1755  NAG1755     0.1576
      3  C3        10.0700   24.3500   57.6680 C.3   1755  NAG1755     0.2069
      4  C4         9.4980   24.7220   59.0280 C.3   1755  NAG1755     0.2134
      5  C5         9.8460   26.1640   59.3760 C.3   1755  NAG1755     0.1809
      6  C6         9.4160   26.5340   60.8070 C.3   1755  NAG1755     0.2141
      7  C7        13.0440   24.0740   55.7500 C.2   1755  NAG1755     0.2420
      8  C8        13.3670   23.8670   54.3080 C.3   1755  NAG1755     0.0964
      9  N2        11.8550   24.6370   56.0420 N.am  1755  NAG1755    -0.2019
     10  O3        10.0890   22.9460   57.5860 O.3   1755  NAG1755    -0.2184
     11  O4         8.0910   24.5860   58.9220 O.3   1755  NAG1755    -0.2176
     12  O5        11.2460   26.3890   59.2110 O.3   1755  NAG1755    -0.3489
     13  O6        10.2430   25.8320   61.7150 O.3   1755  NAG1755    -0.2176
     14  O7        13.8760   23.7470   56.6020 O.2   1755  NAG1755    -0.2733
@<TRIPOS>BOND
     1     8     7    1
     2     7     9   am
     3     7    14    2
     4     9     2    1
     5     2     3    1
     6     2     1    1
     7    10     3    1
     8     3     4    1
     9     1    12    1
    10    11     4    1
    11     4     5    1
    12    12     5    1
    13     5     6    1
    14     6    13    1
