@<TRIPOS>MOLECULE
3bi1_3BI_A_1.pdb
 43 45 0 0 0
SMALL
GASTEIGER

@<TRIPOS>ATOM
      1  N1        34.2870   47.8420   41.9620 N.pl3   1  3BI1       -0.0226
      2  C2        30.8330   50.0980   42.0170 C.2     1  3BI1        0.2518
      3  N3        32.3270   52.0560   42.3300 N.pl3   1  3BI1       -0.0887
      4  C4        28.3790   48.8650   41.7450 C.3     1  3BI1        0.1930
      5  N5        29.4890   48.0690   41.7160 N.2     1  3BI1       -0.1998
      6  C6        27.3250   51.2900   41.9690 C.3     1  3BI1        0.1481
      7  C7        26.2570   50.4800   39.9740 C.3     1  3BI1        0.1125
      8  C9        24.0100   49.8790   44.2200 C.ar    1  3BI1        0.0058
      9  C11       25.1340   50.2800   42.1130 C.ar    1  3BI1        0.0482
     10  C12       24.4920   49.1620   41.5850 C.ar    1  3BI1        0.0147
     11  C13       23.6220   48.3990   42.3640 C.ar    1  3BI1        0.0058
     12  C14       22.5150   47.8310   44.4990 C.2     1  3BI1        0.2652
     13  C15       20.8340   46.1060   44.8200 C.3     1  3BI1        0.1986
     14  C16       20.3330   46.5440   46.1740 C.2     1  3BI1        0.3842
     15  C         33.1390   48.5660   41.9850 C.1     1  3BI1        0.2519
     16  O         22.8960   47.6840   45.7910 O.2     1  3BI1       -0.2684
     17  N         31.9080   47.9280   41.8470 N.2     1  3BI1       -0.2684
     18  O1        20.2930   45.8210   47.2240 O.co2   1  3BI1       -0.2437
     19  O2        19.8940   47.6670   46.1770 O.co2   1  3BI1       -0.2437
     20  O8        18.2180   42.9710   42.8430 O.2     1  3BI1       -0.2869
     21  P         17.5280   43.9150   43.8490 P.3     1  3BI1        0.2547
     22  O7        16.6730   42.9150   44.8820 O.3     1  3BI1       -0.1678
     23  C19       16.3960   44.9670   43.0390 C.3     1  3BI1        0.1007
     24  C20       15.9190   44.5150   41.6250 C.3     1  3BI1        0.1137
     25  C24       17.0740   44.5710   40.5990 C.2     1  3BI1        0.3649
     26  O6        17.9560   45.4590   40.6960 O.co2   1  3BI1       -0.2457
     27  O5        17.0570   43.7570   39.6210 O.co2   1  3BI1       -0.2457
     28  C21       14.6710   45.2830   41.1080 C.3     1  3BI1        0.0236
     29  C22       14.9460   46.7600   41.0570 C.3     1  3BI1        0.1146
     30  C23       13.8150   47.5440   40.3990 C.2     1  3BI1        0.3649
     31  O4        13.0670   46.9940   39.5250 O.co2   1  3BI1       -0.2457
     32  O3        13.7220   48.7800   40.6690 O.co2   1  3BI1       -0.2457
     33  C18       18.6980   44.8480   44.7160 C.3     1  3BI1        0.0918
     34  C17       19.6740   45.6400   43.8960 C.3     1  3BI1        0.0436
     35  N7        21.5870   47.0920   44.0150 N.am    1  3BI1       -0.1918
     36  C8        23.3700   48.7530   43.6730 C.ar    1  3BI1        0.0551
     37  C10       24.8670   50.6570   43.4350 C.ar    1  3BI1        0.0147
     38  N6        26.0160   51.0620   41.2970 N.pl3   1  3BI1       -0.2999
     39  C3        28.4810   50.2750   41.8950 C.2     1  3BI1        0.1330
     40  N4        29.7150   50.8320   42.0270 N.2     1  3BI1       -0.3917
     41  C5        30.7240   48.6210   41.8570 C.1     1  3BI1        0.1314
     42  C1        32.1900   50.7110   42.1700 C.2     1  3BI1        0.2728
     43  N2        33.2730   49.9070   42.1530 N.2     1  3BI1       -0.3033
@<TRIPOS>BOND
     1    31    30   ar
     2    27    25   ar
     3     7    38    1
     4    30    32   ar
     5    30    29    1
     6    25    26   ar
     7    25    24    1
     8    29    28    1
     9    28    24    1
    10    38     6    1
    11    38     9    1
    12    10     9   ar
    13    10    11   ar
    14    24    23    1
    15     5     4    1
    16     5    41    2
    17     4    39    1
    18    17    41    2
    19    17    15    2
    20    41     2    1
    21    39     6    1
    22    39    40    2
    23     1    15    1
    24    15    43    2
    25     2    40    2
    26     2    42    1
    27     9    37   ar
    28    43    42    2
    29    42     3    1
    30    11    36   ar
    31    20    21    2
    32    23    21    1
    33    37     8   ar
    34    36     8   ar
    35    36    12    1
    36    21    33    1
    37    21    22    1
    38    34    33    1
    39    34    13    1
    40    35    12   am
    41    35    13    1
    42    12    16    2
    43    13    14    1
    44    14    19   ar
    45    14    18   ar
