@<TRIPOS>MOLECULE
3bi1_NAG_A_1.pdb
 14 14 0 0 0
SMALL
GASTEIGER

@<TRIPOS>ATOM
      1  C1        11.6740   26.0730   57.8960 C.3   1755  NAG1755     0.1665
      2  C2        11.4990   24.6260   57.4630 C.3   1755  NAG1755     0.1576
      3  C3        10.0440   24.2090   57.6800 C.3   1755  NAG1755     0.2069
      4  C4         9.4890   24.5350   59.0630 C.3   1755  NAG1755     0.2134
      5  C5         9.8430   25.9810   59.3820 C.3   1755  NAG1755     0.1809
      6  C6         9.5080   26.3960   60.8140 C.3   1755  NAG1755     0.2141
      7  C7        12.9970   23.9790   55.6900 C.2   1755  NAG1755     0.2420
      8  C8        13.2390   23.9210   54.2210 C.3   1755  NAG1755     0.0964
      9  N2        11.8260   24.5100   56.0560 N.am  1755  NAG1755    -0.2019
     10  O3         9.9640   22.8160   57.5100 O.3   1755  NAG1755    -0.2184
     11  O4         8.0710   24.4060   58.9850 O.3   1755  NAG1755    -0.2176
     12  O5        11.2420   26.2060   59.2410 O.3   1755  NAG1755    -0.3489
     13  O6        10.2360   25.5410   61.6750 O.3   1755  NAG1755    -0.2176
     14  O7        13.8680   23.5910   56.5000 O.2   1755  NAG1755    -0.2733
@<TRIPOS>BOND
     1     8     7    1
     2     7     9   am
     3     7    14    2
     4     9     2    1
     5     2     3    1
     6     2     1    1
     7    10     3    1
     8     3     4    1
     9     1    12    1
    10    11     4    1
    11     4     5    1
    12    12     5    1
    13     5     6    1
    14     6    13    1
