@<TRIPOS>MOLECULE
3bi2_297_A_1.pdb
 14 13 0 0 0
SMALL
GASTEIGER

@<TRIPOS>ATOM
      1  N1        73.5150  -28.4380   56.8490 N.3   1001  2971001    -0.1314
      2  C2        72.3550  -27.9180   57.5880 C.3   1001  2971001     0.1093
      3  C3        72.3980  -26.3890   57.5890 C.3   1001  2971001     0.0205
      4  C4        72.3510  -25.8400   56.1610 C.3   1001  2971001     0.0015
      5  C5        71.0220  -26.1280   55.4590 C.3   1001  2971001     0.0000
      6  C6        69.8800  -25.2660   56.0040 C.3   1001  2971001     0.0000
      7  C7        69.4360  -25.6820   57.4080 C.3   1001  2971001     0.0000
      8  C8        68.5110  -24.6300   58.0260 C.3   1001  2971001     0.0000
      9  C9        67.2660  -24.3690   57.1740 C.3   1001  2971001     0.0000
     10  C10       66.4170  -23.2620   57.8040 C.3   1001  2971001     0.0000
     11  C11       65.1330  -22.9840   57.0190 C.3   1001  2971001     0.0015
     12  C12       65.4220  -22.4950   55.5980 C.3   1001  2971001     0.0205
     13  C13       64.1480  -21.9920   54.9140 C.3   1001  2971001     0.1093
     14  N14       63.1500  -23.0680   54.8330 N.3   1001  2971001    -0.1314
@<TRIPOS>BOND
     1    14    13    1
     2    13    12    1
     3     5     6    1
     4     5     4    1
     5    12    11    1
     6     6     7    1
     7     4     3    1
     8     1     2    1
     9    11    10    1
    10     9    10    1
    11     9     8    1
    12     7     8    1
    13     2     3    1
