@<TRIPOS>MOLECULE
3bi3_AKG_A_1.pdb
 10 9 0 0 0
SMALL
GASTEIGER

@<TRIPOS>ATOM
      1  C1        -6.4160   -1.0980  -26.2470 C.2   216  AKG216      0.4219
      2  O1        -7.2730   -1.0480  -25.3310 O.co2 216  AKG216     -0.2373
      3  O2        -6.7450   -0.9920  -27.4470 O.co2 216  AKG216     -0.2373
      4  C2        -4.9960   -1.2850  -25.9260 C.2   216  AKG216      0.2526
      5  O5        -4.1950   -1.4730  -26.8290 O.2   216  AKG216     -0.2843
      6  C3        -4.5270   -1.2520  -24.4850 C.3   216  AKG216      0.0881
      7  C4        -3.0020   -1.1810  -24.3880 C.3   216  AKG216      0.1224
      8  C5        -2.5410   -1.2040  -22.9470 C.2   216  AKG216      0.3653
      9  O3        -3.1380   -1.9250  -22.1190 O.co2 216  AKG216     -0.2456
     10  O4        -1.5590   -0.5040  -22.6260 O.co2 216  AKG216     -0.2456
@<TRIPOS>BOND
     1     3     1   ar
     2     5     4    2
     3     1     4    1
     4     1     2   ar
     5     4     6    1
     6     6     7    1
     7     7     8    1
     8     8    10   ar
     9     8     9   ar
