@<TRIPOS>MOLECULE
3bi4_298_A_1.pdb
 14 13 0 0 0
SMALL
GASTEIGER

@<TRIPOS>ATOM
      1  C1        18.7340   30.8420   16.9070 C.3   1001  2981001     0.0051
      2  C2        18.9100   29.5080   16.5550 C.3   1001  2981001     0.0274
      3  C3        19.6250   28.6590   17.3920 C.2   1001  2981001    -0.0088
      4  C4        19.8130   27.3230   17.0560 C.2   1001  2981001     0.0755
      5  N5        19.3150   26.8190   15.9300 N.pl3 1001  2981001    -0.2367
      6  C6        17.9030   26.4570   16.1190 C.3   1001  2981001     0.1123
      7  C7        17.3800   25.7400   14.8720 C.3   1001  2981001     0.0251
      8  C8        18.1930   24.4770   14.5750 C.3   1001  2981001     0.0251
      9  C9        17.6050   23.7090   13.3900 C.3   1001  2981001     0.1123
     10  N10       18.4000   22.5030   13.1190 N.pl3 1001  2981001    -0.2367
     11  C11       19.3860   22.7960   12.2740 C.2   1001  2981001     0.0755
     12  C12       20.3220   21.8460   11.8840 C.2   1001  2981001    -0.0088
     13  C13       20.3020   20.5320   12.3440 C.3   1001  2981001     0.0274
     14  C14       19.3310   20.0910   13.2340 C.3   1001  2981001     0.0051
@<TRIPOS>BOND
     1    12    11    2
     2    12    13    1
     3    11    10    1
     4    13    14    1
     5    10     9    1
     6     9     8    1
     7     8     7    1
     8     7     6    1
     9     5     6    1
    10     5     4    1
    11     2     1    1
    12     2     3    1
    13     4     3    2
