@<TRIPOS>MOLECULE
3bi5_DIA_A_1.pdb
 10 9 0 0 0
SMALL
GASTEIGER

@<TRIPOS>ATOM
      1  N1        14.6650   24.2440   52.6250 N.3   2841  DIA2841    -0.1314
      2  C1        14.8510   22.7910   52.5960 C.3   2841  DIA2841     0.1093
      3  C2        16.1910   22.4680   51.9810 C.3   2841  DIA2841     0.0205
      4  C3        16.4180   20.9550   51.9510 C.3   2841  DIA2841     0.0015
      5  C4        17.8010   20.7450   51.3570 C.3   2841  DIA2841     0.0000
      6  C5        18.2080   19.2840   51.2920 C.3   2841  DIA2841     0.0000
      7  C6        19.6200   19.2970   50.7100 C.3   2841  DIA2841     0.0015
      8  C7        20.2170   17.9090   50.5900 C.3   2841  DIA2841     0.0205
      9  C8        21.6240   18.0720   50.0040 C.3   2841  DIA2841     0.1093
     10  N8        22.2670   16.7650   49.8540 N.3   2841  DIA2841    -0.1314
@<TRIPOS>BOND
     1    10     9    1
     2     9     8    1
     3     8     7    1
     4     7     6    1
     5     6     5    1
     6     5     4    1
     7     4     3    1
     8     3     2    1
     9     2     1    1
