@<TRIPOS>MOLECULE
3bi6_396_A_1.pdb
 37 42 0 0 0
SMALL
GASTEIGER

@<TRIPOS>ATOM
      1  C26        9.2390   55.1870   16.1260 C.3   901  396901      0.0722
      2  C27       10.0350   53.8930   16.1360 C.3   901  396901      0.0188
      3  C29       10.2710   53.8660   17.6270 C.3   901  396901      0.0188
      4  C25        8.8180   54.1060   18.1520 C.3   901  396901      0.0722
      5  N4         8.1880   54.9940   17.1540 N.3   901  396901     -0.2712
      6  C24        7.8490   56.3400   17.6940 C.3   901  396901      0.0958
      7  C23        6.4920   56.3350   18.3560 C.3   901  396901      0.1327
      8  N3         6.4820   55.8060   19.7640 N.am  901  396901     -0.2001
      9  C22        5.7830   54.7200   20.0250 C.2   901  396901      0.2680
     10  O4         5.1090   54.1820   19.1670 O.2   901  396901     -0.2683
     11  C20        5.5670   54.4700   21.5220 C.ar  901  396901      0.0953
     12  C18        4.2680   54.0990   21.8720 C.ar  901  396901      0.0250
     13  C19        6.5760   54.6950   22.4680 C.ar  901  396901      0.2002
     14  O3         7.8770   55.0460   22.1050 O.3   901  396901     -0.2864
     15  C17        6.2730   54.4770   23.8150 C.ar  901  396901      0.0437
     16  C15        4.9770   54.1120   24.2190 C.ar  901  396901      0.0211
     17  C16        3.9860   53.8990   23.2380 C.ar  901  396901      0.0603
     18  N2         2.8740   53.5520   23.8590 N.ar  901  396901     -0.3251
     19  C21        1.6110   53.2530   23.1430 C.3   901  396901      0.1304
     20  C14        3.0630   53.5730   25.1990 C.ar  901  396901      0.0607
     21  C1         2.2070   53.2390   26.2690 C.ar  901  396901      0.0180
     22  C13        4.4070   53.8820   25.4720 C.ar  901  396901      0.0300
     23  C4         4.8480   53.9420   26.8300 C.ar  901  396901      0.1087
     24  C5         6.0590   54.2060   27.5050 C.1   901  396901      0.2158
     25  O1         7.0940   54.6210   26.9820 O.2   901  396901     -0.2086
     26  N1         5.9220   54.1090   28.8470 N.2   901  396901     -0.2576
     27  C6         4.6770   53.7350   29.0600 C.1   901  396901      0.2158
     28  O2         4.2240   53.5150   30.1690 O.2   901  396901     -0.2086
     29  C3         3.9400   53.6360   27.8620 C.ar  901  396901      0.1074
     30  C2         2.6030   53.2880   27.5900 C.ar  901  396901      0.0149
     31  C7         1.6330   53.0010   28.6100 C.ar  901  396901      0.0114
     32  C12        0.9820   51.7630   28.6500 C.ar  901  396901      0.0009
     33  C11        0.0110   51.5480   29.6430 C.ar  901  396901      0.0001
     34  C10       -0.3350   52.4840   30.6170 C.ar  901  396901      0.0009
     35  C9         0.2630   53.7550   30.5640 C.ar  901  396901      0.0114
     36  C8         1.2410   53.9970   29.5670 C.ar  901  396901      0.0577
     37 CL5         1.8480   55.6100   29.6150 Cl    901  396901     -0.0822
@<TRIPOS>BOND
     1     1     2    1
     2     1     5    1
     3     2     3    1
     4     5     6    1
     5     5     4    1
     6     3     4    1
     7     6     7    1
     8     7     8    1
     9    10     9    2
    10     8     9   am
    11     9    11    1
    12    11    12   ar
    13    11    13   ar
    14    12    17   ar
    15    14    13    1
    16    13    15   ar
    17    19    18    1
    18    17    18   ar
    19    17    16   ar
    20    15    16   ar
    21    18    20   ar
    22    16    22   ar
    23    20    22   ar
    24    20    21   ar
    25    22    23   ar
    26    21    30   ar
    27    23    24    1
    28    23    29   ar
    29    25    24    2
    30    24    26    2
    31    30    29   ar
    32    30    31    1
    33    29    27    1
    34    31    32   ar
    35    31    36   ar
    36    32    33   ar
    37    26    27    2
    38    27    28    2
    39    36    37    1
    40    36    35   ar
    41    33    34   ar
    42    35    34   ar
