@<TRIPOS>MOLECULE
3bia_TLA_X_1.pdb
 10 9 0 0 0
SMALL
GASTEIGER

@<TRIPOS>ATOM
      1  O1       -32.0480   11.0440   26.0130 O.co2 118  TLA118     -0.2427
      2  O11      -30.2090   11.9370   25.2450 O.co2 118  TLA118     -0.2427
      3  C1       -31.4470   11.9300   25.3790 C.2   118  TLA118      0.3979
      4  C2       -32.2730   13.0010   24.7230 C.3   118  TLA118      0.2950
      5  O2       -31.4080   13.8500   23.9520 O.3   118  TLA118     -0.2075
      6  C3       -33.0190   13.8000   25.7860 C.3   118  TLA118      0.2950
      7  O3       -32.0800   14.2580   26.7760 O.3   118  TLA118     -0.2075
      8  C4       -33.6780   14.9880   25.1470 C.2   118  TLA118      0.3979
      9  O4       -34.6040   14.8200   24.3190 O.co2 118  TLA118     -0.2427
     10  O41      -33.2550   16.1140   25.4770 O.co2 118  TLA118     -0.2427
@<TRIPOS>BOND
     1     5     4    1
     2     9     8   ar
     3     4     3    1
     4     4     6    1
     5     8    10   ar
     6     8     6    1
     7     2     3   ar
     8     3     1   ar
     9     6     7    1
