@<TRIPOS>MOLECULE
3bib_PSF_X_1.pdb
 26 25 0 0 0
SMALL
GASTEIGER

@<TRIPOS>ATOM
      1  O2         5.4670  -33.0380   27.6170 O.3   118  PSF118     -0.3100
      2  O1         6.7940  -33.3010   25.4900 O.3   118  PSF118     -0.3119
      3  P          6.7800  -32.4770   26.8740 P.3   118  PSF118      0.2142
      4  O4         7.9910  -32.8870   27.6710 O.3   118  PSF118     -0.4373
      5  O3         6.5660  -31.0210   26.5620 O.2   118  PSF118     -0.5172
      6  C2         4.2390  -33.0970   26.9040 C.3   118  PSF118      0.1964
      7  C3         3.0400  -33.0680   27.8370 C.3   118  PSF118      0.2420
      8  O11        3.0240  -34.2040   28.7000 O.3   118  PSF118     -0.4457
      9  O12        1.1440  -35.0150   27.5610 O.2   118  PSF118     -0.2501
     10  C1         1.7570  -34.9370   28.6210 C.2   118  PSF118      0.3171
     11  C4         3.0260  -31.8060   28.6710 C.3   118  PSF118      0.2543
     12  C5         1.3260  -30.7360   30.1230 C.2   118  PSF118      0.3177
     13  O51        0.8590  -29.8890   29.3760 O.2   118  PSF118     -0.2501
     14  O52        1.8960  -31.9230   29.5200 O.3   118  PSF118     -0.4444
     15  C6         1.3130  -30.5700   31.6300 C.3   118  PSF118      0.1212
     16  C13        1.1960  -35.6180   29.8470 C.3   118  PSF118      0.1096
     17  C14        0.1700  -34.7280   30.5380 C.3   118  PSF118      0.0116
     18  C15       -1.0290  -35.5460   31.0170 C.3   118  PSF118      0.0006
     19  N          7.9120  -34.6290   23.1860 N.3   118  PSF118     -0.1181
     20  CA         6.8670  -35.2140   24.0040 C.3   118  PSF118      0.2241
     21  CB         7.0300  -34.7140   25.4370 C.3   118  PSF118      0.1796
     22  C          5.5220  -34.8050   23.4700 C.2   118  PSF118      0.3844
     23  OT1        5.4730  -34.0820   22.4520 O.co2 118  PSF118     -0.2440
     24  OT2        4.4890  -35.1820   24.0620 O.co2 118  PSF118     -0.2440
     25  C16       -0.9860  -35.7730   32.5250 C.3   118  PSF118      0.0000
     26  C17       -2.0740  -34.9920   33.2280 C.3   118  PSF118      0.0000
@<TRIPOS>BOND
     1    23    22   ar
     2    19    20    1
     3    22    20    1
     4    22    24   ar
     5    20    21    1
     6    21     2    1
     7     2     3    1
     8     5     3    2
     9     3     1    1
    10     3     4    1
    11     6     1    1
    12     6     7    1
    13     9    10    2
    14     7    11    1
    15     7     8    1
    16    10     8    1
    17    10    16    1
    18    11    14    1
    19    13    12    2
    20    14    12    1
    21    16    17    1
    22    12    15    1
    23    17    18    1
    24    18    25    1
    25    25    26    1
