@<TRIPOS>MOLECULE
3bie_AKG_A_1.pdb
 10 9 0 0 0
SMALL
GASTEIGER

@<TRIPOS>ATOM
      1  C1        -1.7720   -1.4120   22.6460 C.2   503  AKG503      0.4219
      2  O1        -2.6250   -1.3910   23.5610 O.co2 503  AKG503     -0.2373
      3  O2        -2.1050   -1.3270   21.4400 O.co2 503  AKG503     -0.2373
      4  C2        -0.3510   -1.5370   22.9780 C.2   503  AKG503      0.2526
      5  O5         0.4670   -1.6140   22.0730 O.2   503  AKG503     -0.2843
      6  C3         0.0900   -1.5740   24.4300 C.3   503  AKG503      0.0881
      7  C4         1.6070   -1.4550   24.5620 C.3   503  AKG503      0.1224
      8  C5         2.0500   -1.4610   26.0130 C.2   503  AKG503      0.3653
      9  O3         1.4080   -2.1280   26.8560 O.co2 503  AKG503     -0.2456
     10  O4         3.0620   -0.7970   26.3180 O.co2 503  AKG503     -0.2456
@<TRIPOS>BOND
     1     3     1   ar
     2     5     4    2
     3     1     4    1
     4     1     2   ar
     5     4     6    1
     6     6     7    1
     7     7     8    1
     8     8    10   ar
     9     8     9   ar
