@<TRIPOS>MOLECULE
3bir_2GP_A_1.pdb
 24 26 0 0 0
SMALL
GASTEIGER

@<TRIPOS>ATOM
      1  P         19.3170   19.9380   10.1900 P.3   105  2GP105      0.5327
      2  O1P       18.0820   20.6110    9.9440 O.2   105  2GP105     -0.2224
      3  O2P       19.1570   18.5380   10.6870 O.3   105  2GP105     -0.1145
      4  O3P       20.2050   20.7190   11.0580 O.3   105  2GP105     -0.1145
      5  O5'       24.1060   17.5550    9.5540 O.3   105  2GP105     -0.2176
      6  C5'       24.5350   18.5920    8.6880 C.3   105  2GP105      0.2142
      7  C4'       23.4580   19.2850    7.7370 C.3   105  2GP105      0.1827
      8  O4'       22.7540   18.3490    6.9090 O.3   105  2GP105     -0.3326
      9  C3'       22.4420   20.1220    8.5490 C.3   105  2GP105      0.2132
     10  O3'       22.0550   21.4170    7.9300 O.3   105  2GP105     -0.2176
     11  C2'       21.2080   19.2150    8.5210 C.3   105  2GP105      0.2054
     12  O2'       19.8930   19.7800    8.7140 O.3   105  2GP105     -0.2657
     13  C1'       21.2950   18.5070    7.1080 C.3   105  2GP105      0.2266
     14  N9        20.7520   17.1380    6.9890 N.pl3 105  2GP105     -0.2354
     15  C8        20.0260   16.6950    5.9080 C.3   105  2GP105      0.2246
     16  N7        19.9080   15.4000    5.8550 N.2   105  2GP105     -0.2322
     17  C5        20.6000   14.9750    6.9940 C.2   105  2GP105      0.2182
     18  C6        20.8510   13.7340    7.4760 C.1   105  2GP105      0.2372
     19  O6        20.3950   12.7800    6.9230 O.2   105  2GP105     -0.2069
     20  N1        21.5820   13.6070    8.6580 N.2   105  2GP105     -0.2485
     21  C2        22.0670   14.6920    9.3330 C.1   105  2GP105      0.2531
     22  N2        22.8250   14.5540   10.3920 N.pl3 105  2GP105     -0.0226
     23  N3        21.8590   15.8890    8.9040 N.2   105  2GP105     -0.3074
     24  C4        21.1180   15.9760    7.7340 C.2   105  2GP105      0.2300
@<TRIPOS>BOND
     1    16    15    1
     2    16    17    2
     3    15    14    1
     4     8    13    1
     5     8     7    1
     6    19    18    2
     7    14    13    1
     8    14    24    1
     9    17    18    1
    10    17    24    1
    11    13    11    1
    12    18    20    2
    13    24    23    2
    14     7     9    1
    15     7     6    1
    16    10     9    1
    17    11     9    1
    18    11    12    1
    19    20    21    2
    20     6     5    1
    21    12     1    1
    22    23    21    2
    23    21    22    1
    24     2     1    2
    25     1     3    1
    26     1     4    1
