@<TRIPOS>MOLECULE
3biu_10U_H_1.pdb
 27 29 0 0 0
SMALL
GASTEIGER

@<TRIPOS>ATOM
      1  C14       18.5760  -13.9820   22.1580 C.2   999  10U999      0.2437
      2  O32       17.6140  -13.5260   22.7700 O.2   999  10U999     -0.2733
      3  C15       19.4370  -15.0990   22.7050 C.3   999  10U999      0.1737
      4  N16       19.0730  -15.2460   24.1000 N.3   999  10U999     -0.2100
      5  C17       19.8130  -14.0620   24.5770 C.3   999  10U999      0.0733
      6  C21       21.3220  -14.1200   24.2400 C.3   999  10U999      0.0174
      7  C20       21.8860  -12.9930   25.1310 C.3   999  10U999      0.0015
      8  C19       21.1260  -13.1580   26.4660 C.3   999  10U999      0.0015
      9  C18       19.8060  -13.9030   26.1290 C.3   999  10U999      0.0174
     10  N1        19.1740  -13.1100   21.3090 N.am  999  10U999     -0.2718
     11  C2        18.6150  -11.8260   20.8780 C.3   999  10U999      0.1535
     12  C7        17.1980  -11.9890   20.3490 C.2   999  10U999      0.2598
     13  O22       16.7870  -13.1260   20.1550 O.2   999  10U999     -0.2715
     14  C3        19.5560  -11.3370   19.7650 C.3   999  10U999      0.0310
     15  C4        20.6340  -12.4200   19.5840 C.3   999  10U999      0.0237
     16  C5        20.6120  -13.1200   20.9690 C.3   999  10U999      0.0939
     17  N23       16.3320  -10.9540   20.4820 N.am  999  10U999     -0.1992
     18  C24       15.0280  -10.9560   19.8190 C.3   999  10U999      0.1415
     19  C25       13.9650  -10.9200   20.8970 C.ar  999  10U999     -0.0006
     20  C30       13.4500  -12.0900   21.4180 C.ar  999  10U999     -0.0023
     21  C29       12.4790  -12.0520   22.4010 C.ar  999  10U999      0.0077
     22  C28       12.0100  -10.8290   22.8760 C.ar  999  10U999      0.0975
     23  C31       10.9010  -10.7760   23.8600 C.2   999  10U999      0.4766
     24  N49       10.5160  -11.8510   24.9990 N.pl3 999  10U999      0.2047
     25  N48       10.4620   -9.4590   24.4440 N.pl3 999  10U999      0.2047
     26  C27       12.5350   -9.6530   22.3420 C.ar  999  10U999      0.0077
     27  C26       13.5010   -9.7060   21.3660 C.ar  999  10U999     -0.0023
@<TRIPOS>BOND
     1    15    14    1
     2    15    16    1
     3    14    11    1
     4    18    17    1
     5    18    19    1
     6    13    12    2
     7    12    17   am
     8    12    11    1
     9    11    10    1
    10    19    27   ar
    11    19    20   ar
    12    16    10    1
    13    10     1   am
    14    27    26   ar
    15    20    21   ar
    16     1     3    1
    17     1     2    2
    18    26    22   ar
    19    21    22   ar
    20     3     4    1
    21    22    23    1
    22    23    25    2
    23    23    24    1
    24     4     5    1
    25     6     5    1
    26     6     7    1
    27     5     9    1
    28     7     8    1
    29     9     8    1
