@<TRIPOS>MOLECULE
3biv_11U_H_1.pdb
 21 22 0 0 0
SMALL
GASTEIGER

@<TRIPOS>ATOM
      1  C14       18.3580  -14.0650   22.3830 C.2   999  11U999      0.2264
      2  O32       17.4200  -13.6580   23.0590 O.2   999  11U999     -0.2748
      3  C15       19.1340  -15.2390   22.9680 C.3   999  11U999      0.0948
      4  N1        18.9960  -13.2180   21.5400 N.am  999  11U999     -0.2729
      5  C2        18.5010  -11.8960   21.1470 C.3   999  11U999      0.1535
      6  C7        17.0940  -12.0320   20.5900 C.2   999  11U999      0.2598
      7  O22       16.8770  -12.9430   19.8050 O.2   999  11U999     -0.2715
      8  C3        19.4420  -11.3560   20.0520 C.3   999  11U999      0.0310
      9  C4        20.2140  -12.6100   19.5700 C.3   999  11U999      0.0237
     10  C5        20.2830  -13.4530   20.8690 C.3   999  11U999      0.0939
     11  N23       16.3200  -10.9240   20.5610 N.am  999  11U999     -0.1992
     12  C24       15.0280  -10.9630   19.8860 C.3   999  11U999      0.1415
     13  C25       13.9800  -10.8880   20.9650 C.ar  999  11U999     -0.0006
     14  C26       13.4980   -9.6680   21.3930 C.ar  999  11U999     -0.0023
     15  C27       12.5130   -9.6190   22.3600 C.ar  999  11U999      0.0077
     16  C28       12.0100  -10.7990   22.8990 C.ar  999  11U999      0.0975
     17  C31       10.9560  -10.7870   23.9380 C.2   999  11U999      0.4766
     18  N49       10.3140  -11.8540   24.3320 N.pl3 999  11U999      0.2047
     19  N48       10.5620   -9.5130   24.6090 N.pl3 999  11U999      0.2047
     20  C29       12.5060  -12.0280   22.4610 C.ar  999  11U999      0.0077
     21  C30       13.4860  -12.0640   21.4960 C.ar  999  11U999     -0.0023
@<TRIPOS>BOND
     1     9     8    1
     2     9    10    1
     3     7     6    2
     4    12    11    1
     5    12    13    1
     6     8     5    1
     7    11     6   am
     8     6     5    1
     9    10     4    1
    10    13    14   ar
    11    13    21   ar
    12     5     4    1
    13    14    15   ar
    14    21    20   ar
    15     4     1   am
    16    15    16   ar
    17     1     3    1
    18     1     2    2
    19    20    16   ar
    20    16    17    1
    21    17    18    2
    22    17    19    1
