@<TRIPOS>MOLECULE
3biz_61E_A_1.pdb
 34 38 0 0 0
SMALL
GASTEIGER

@<TRIPOS>ATOM
      1  C26        8.8180   52.8040   16.3630 C.3   576  61E576      0.0897
      2  N3         7.3910   53.1050   16.6580 N.3   576  61E576     -0.2702
      3  C25        6.6600   53.0310   15.3300 C.3   576  61E576      0.0897
      4  C24        7.2250   54.3760   17.4880 C.3   576  61E576      0.0760
      5  C23        5.7360   54.9230   17.5250 C.3   576  61E576      0.0646
      6  C22        4.9990   54.7790   18.9030 C.3   576  61E576      0.2070
      7  O4         6.0200   54.9230   19.9780 O.2   576  61E576     -0.4725
      8  C20        5.6410   54.7330   21.2950 C.2   576  61E576      0.1747
      9  C18        4.3190   54.3370   21.6710 C.2   576  61E576      0.0567
     10  C19        6.6470   54.9810   22.2580 C.2   576  61E576      0.2111
     11  O3         7.8060   55.2810   21.8760 O.2   576  61E576     -0.2878
     12  C17        6.3320   54.7730   23.6350 C.3   576  61E576      0.1002
     13  C15        5.0130   54.4440   24.0230 C.ar  576  61E576      0.0037
     14  C16        4.0090   54.1990   23.0410 C.ar  576  61E576      0.0595
     15  N2         2.8850   53.8590   23.6860 N.ar  576  61E576     -0.3253
     16  C21        1.5330   53.5030   23.0800 C.3   576  61E576      0.1304
     17  C14        3.0740   53.8980   24.9910 C.ar  576  61E576      0.0604
     18  C1         2.1700   53.5410   26.0180 C.ar  576  61E576      0.0180
     19  C13        4.4050   54.2540   25.2550 C.ar  576  61E576      0.0263
     20  C4         4.8620   54.3120   26.6110 C.ar  576  61E576      0.1084
     21  C5         6.0680   54.6060   27.2800 C.1   576  61E576      0.2158
     22  O1         7.0980   55.0050   26.7460 O.2   576  61E576     -0.2086
     23  N1         5.9600   54.5150   28.6380 N.2   576  61E576     -0.2576
     24  C6         4.7280   54.1260   28.8740 C.1   576  61E576      0.2158
     25  O2         4.3170   53.9280   30.0150 O.2   576  61E576     -0.2086
     26  C3         3.9480   53.9930   27.6430 C.ar  576  61E576      0.1074
     27  C2         2.5960   53.6380   27.3420 C.ar  576  61E576      0.0149
     28  C7         1.6380   53.3760   28.3580 C.ar  576  61E576      0.0114
     29  C12        0.9860   52.1030   28.4200 C.ar  576  61E576      0.0009
     30  C11        0.0270   51.9030   29.4410 C.ar  576  61E576      0.0001
     31  C10       -0.2610   52.8740   30.4300 C.ar  576  61E576      0.0009
     32  C9         0.3500   54.1510   30.3780 C.ar  576  61E576      0.0114
     33  C8         1.2640   54.4180   29.3030 C.ar  576  61E576      0.0577
     34 CL1         1.8980   56.0290   29.3670 Cl    576  61E576     -0.0822
@<TRIPOS>BOND
     1     3     2    1
     2     1     2    1
     3     2     4    1
     4     4     5    1
     5     5     6    1
     6     6     7    1
     7     7     8    1
     8     8     9    2
     9     8    10    1
    10     9    14    1
    11    11    10    2
    12    10    12    1
    13    14    15   ar
    14    14    13   ar
    15    16    15    1
    16    12    13    1
    17    15    17   ar
    18    13    19   ar
    19    17    19   ar
    20    17    18   ar
    21    19    20   ar
    22    18    27   ar
    23    20    21    1
    24    20    26   ar
    25    22    21    2
    26    21    23    2
    27    27    26   ar
    28    27    28    1
    29    26    24    1
    30    28    29   ar
    31    28    33   ar
    32    29    30   ar
    33    23    24    2
    34    24    25    2
    35    33    34    1
    36    33    32   ar
    37    30    31   ar
    38    32    31   ar
