@<TRIPOS>MOLECULE
3bj1_HEM_A_1.pdb
 43 50 0 0 0
SMALL
GASTEIGER

@<TRIPOS>ATOM
      1  CHA       44.1770   -8.3250   45.5070 C.2   143  HEM143      0.0000
      2  CHB       40.0790  -10.1010   43.7060 C.2   143  HEM143      0.0000
      3  CHC       37.7570   -6.2770   45.5250 C.2   143  HEM143      0.0000
      4  CHD       41.8820   -4.2990   47.1350 C.2   143  HEM143      0.0000
      5  C1A       43.2460   -9.1240   44.8800 C.ar  143  HEM143      0.0000
      6  C2A       43.5760  -10.3410   44.1900 C.ar  143  HEM143      0.0000
      7  C3A       42.4580  -10.8560   43.6850 C.ar  143  HEM143      0.0000
      8  C4A       41.3840   -9.9470   44.0170 C.ar  143  HEM143      0.0000
      9  CMA       42.2680  -12.1510   42.8690 C.3   143  HEM143      0.0000
     10  CAA       45.0290  -10.8670   44.1200 C.3   143  HEM143      0.0000
     11  CBA       45.3130  -11.8080   45.2840 C.3   143  HEM143      0.0000
     12  CGA       46.6650  -12.4690   45.0750 C.2   143  HEM143      0.0000
     13  O1A       47.4900  -11.9470   44.2620 O.co2 143  HEM143      0.0000
     14  O2A       46.9160  -13.5210   45.7300 O.co2 143  HEM143      0.0000
     15  C1B       39.0930   -9.2190   44.0750 C.2   143  HEM143      0.0000
     16  C2B       37.7180   -9.3690   43.7490 C.2   143  HEM143      0.0000
     17  C3B       37.0720   -8.3060   44.2250 C.2   143  HEM143      0.0000
     18  C4B       38.0500   -7.4580   44.8750 C.2   143  HEM143      0.0000
     19  CMB       37.1440  -10.5560   42.9640 C.3   143  HEM143      0.0000
     20  CAB       35.5500   -8.0180   44.1640 C.2   143  HEM143      0.0000
     21  CBB       34.8420   -8.1450   43.0310 C.2   143  HEM143      0.0000
     22  C1C       38.6470   -5.3850   46.0540 C.ar  143  HEM143      0.0000
     23  C2C       38.3320   -4.0400   46.4930 C.ar  143  HEM143      0.0000
     24  C3C       39.4710   -3.4810   46.9460 C.ar  143  HEM143      0.0000
     25  C4C       40.5380   -4.4610   46.7790 C.ar  143  HEM143      0.0000
     26  CMC       36.9000   -3.4590   46.4350 C.3   143  HEM143      0.0000
     27  CAC       39.7140   -2.0750   47.5320 C.2   143  HEM143      0.0000
     28  CBC       38.9590   -0.9890   47.2620 C.2   143  HEM143      0.0000
     29  C1D       42.8790   -5.2000   46.8230 C.2   143  HEM143      0.0000
     30  C2D       44.2860   -4.9280   46.9980 C.2   143  HEM143      0.0000
     31  C3D       44.9830   -6.1770   46.5070 C.2   143  HEM143      0.0000
     32  C4D       43.9500   -7.0780   46.0380 C.2   143  HEM143      0.0000
     33  CMD       44.9610   -3.6640   47.6010 C.3   143  HEM143      0.0000
     34  CAD       46.5080   -6.3560   46.4590 C.3   143  HEM143      0.0000
     35  CBD       46.8760   -5.7370   45.1070 C.3   143  HEM143      0.0000
     36  CGD       48.3400   -5.4030   45.0120 C.2   143  HEM143      0.0000
     37  O1D       49.1340   -5.8930   45.8640 O.co2 143  HEM143      0.0000
     38  O2D       48.7040   -4.6410   44.0730 O.co2 143  HEM143      0.0000
     39  NA        41.8920   -8.9130   44.7460 N.ar  143  HEM143      0.0000
     40  NB        39.2690   -8.0440   44.7840 N.2   143  HEM143      0.0000
     41  NC        39.9950   -5.6030   46.2200 N.ar  143  HEM143      0.0000
     42  ND        42.7020   -6.4840   46.2470 N.2   143  HEM143      0.0000
     43 FE         40.9540   -7.2730   45.5730 Fe    143  HEM143      0.0000
@<TRIPOS>BOND
     1     9     7    1
     2    19    16    1
     3    21    20    2
     4     7     8   ar
     5     7     6   ar
     6     2     8    2
     7     2    15    1
     8    16    15    1
     9    16    17    2
    10     8    39   ar
    11    38    36   ar
    12    15    40    2
    13    10     6    1
    14    10    11    1
    15    20    17    1
    16     6     5   ar
    17    17    18    1
    18    13    12   ar
    19    39     5   ar
    20    39    43    1
    21    40    18    1
    22    40    43    1
    23    18     3    2
    24     5     1    2
    25    36    35    1
    26    36    37   ar
    27    12    11    1
    28    12    14   ar
    29    35    34    1
    30     1    32    1
    31     3    22    1
    32    43    41    1
    33    43    42    1
    34    32    42    2
    35    32    31    1
    36    22    41   ar
    37    22    23   ar
    38    41    25   ar
    39    42    29    1
    40    26    23    1
    41    34    31    1
    42    23    24   ar
    43    31    30    2
    44    25    24   ar
    45    25     4    1
    46    29    30    1
    47    29     4    2
    48    24    27    1
    49    30    33    1
    50    28    27    2
