@<TRIPOS>MOLECULE
3bj2_HEM_A_1.pdb
 43 50 0 0 0
SMALL
GASTEIGER

@<TRIPOS>ATOM
      1  CHA       44.5580   -8.2480   46.0820 C.2   143  HEM143      0.0000
      2  CHB       40.4730   -9.9960   44.2430 C.2   143  HEM143      0.0000
      3  CHC       38.1250   -6.1880   46.0840 C.2   143  HEM143      0.0000
      4  CHD       42.1950   -4.1840   47.6670 C.2   143  HEM143      0.0000
      5  C1A       43.6830   -9.0400   45.4070 C.ar  143  HEM143      0.0000
      6  C2A       43.9970  -10.2460   44.6750 C.ar  143  HEM143      0.0000
      7  C3A       42.8500  -10.7440   44.1760 C.ar  143  HEM143      0.0000
      8  C4A       41.7860   -9.8500   44.5470 C.ar  143  HEM143      0.0000
      9  CMA       42.6880  -12.0020   43.2750 C.3   143  HEM143      0.0000
     10  CAA       45.4190  -10.8520   44.4970 C.3   143  HEM143      0.0000
     11  CBA       45.9310  -11.5780   45.7470 C.3   143  HEM143      0.0000
     12  CGA       47.2030  -12.3430   45.3940 C.2   143  HEM143      0.0000
     13  O1A       48.0900  -11.7740   44.6790 O.co2 143  HEM143      0.0000
     14  O2A       47.3170  -13.5410   45.8120 O.co2 143  HEM143      0.0000
     15  C1B       39.4900   -9.1030   44.6110 C.2   143  HEM143      0.0000
     16  C2B       38.1000   -9.2650   44.3180 C.2   143  HEM143      0.0000
     17  C3B       37.4690   -8.2160   44.8190 C.2   143  HEM143      0.0000
     18  C4B       38.4380   -7.3800   45.4600 C.2   143  HEM143      0.0000
     19  CMB       37.4490  -10.4490   43.5270 C.3   143  HEM143      0.0000
     20  CAB       35.9390   -7.8870   44.7840 C.2   143  HEM143      0.0000
     21  CBB       35.0960   -8.2650   43.8140 C.2   143  HEM143      0.0000
     22  C1C       38.9900   -5.2570   46.6100 C.ar  143  HEM143      0.0000
     23  C2C       38.6560   -3.9240   47.0710 C.ar  143  HEM143      0.0000
     24  C3C       39.7880   -3.3420   47.5180 C.ar  143  HEM143      0.0000
     25  C4C       40.8620   -4.3150   47.3380 C.ar  143  HEM143      0.0000
     26  CMC       37.2070   -3.3480   47.0470 C.3   143  HEM143      0.0000
     27  CAC       40.0040   -1.9370   48.1390 C.2   143  HEM143      0.0000
     28  CBC       39.4000   -0.7800   47.7370 C.2   143  HEM143      0.0000
     29  C1D       43.1750   -5.1280   47.3590 C.2   143  HEM143      0.0000
     30  C2D       44.5760   -4.8580   47.5310 C.2   143  HEM143      0.0000
     31  C3D       45.2860   -6.1020   47.0630 C.2   143  HEM143      0.0000
     32  C4D       44.2720   -7.0210   46.6100 C.2   143  HEM143      0.0000
     33  CMD       45.2410   -3.5750   48.0880 C.3   143  HEM143      0.0000
     34  CAD       46.8110   -6.2500   47.0250 C.3   143  HEM143      0.0000
     35  CBD       47.2050   -5.6720   45.6650 C.3   143  HEM143      0.0000
     36  CGD       48.6910   -5.4970   45.6650 C.2   143  HEM143      0.0000
     37  O1D       49.3360   -5.8660   46.7010 O.co2 143  HEM143      0.0000
     38  O2D       49.2080   -4.9910   44.6290 O.co2 143  HEM143      0.0000
     39  NA        42.3180   -8.8450   45.3070 N.ar  143  HEM143      0.0000
     40  NB        39.6870   -7.9350   45.3380 N.2   143  HEM143      0.0000
     41  NC        40.3250   -5.4440   46.7820 N.ar  143  HEM143      0.0000
     42  ND        42.9980   -6.4300   46.8060 N.2   143  HEM143      0.0000
     43 FE         41.3020   -7.1760   46.1030 Fe    143  HEM143      0.0000
@<TRIPOS>BOND
     1     9     7    1
     2    19    16    1
     3    21    20    2
     4     7     8   ar
     5     7     6   ar
     6     2     8    2
     7     2    15    1
     8    16    15    1
     9    16    17    2
    10    10     6    1
    11    10    11    1
    12     8    39   ar
    13    15    40    2
    14    38    36   ar
    15     6     5   ar
    16    13    12   ar
    17    20    17    1
    18    17    18    1
    19    39     5   ar
    20    39    43    1
    21    40    18    1
    22    40    43    1
    23    12    11    1
    24    12    14   ar
    25     5     1    2
    26    18     3    2
    27    36    35    1
    28    36    37   ar
    29    35    34    1
    30     1    32    1
    31     3    22    1
    32    43    41    1
    33    43    42    1
    34    32    42    2
    35    32    31    1
    36    22    41   ar
    37    22    23   ar
    38    41    25   ar
    39    42    29    1
    40    34    31    1
    41    26    23    1
    42    31    30    2
    43    23    24   ar
    44    25    24   ar
    45    25     4    1
    46    29    30    1
    47    29     4    2
    48    24    27    1
    49    30    33    1
    50    28    27    2
