@<TRIPOS>MOLECULE
3bj3_HEM_A_1.pdb
 43 50 0 0 0
SMALL
GASTEIGER

@<TRIPOS>ATOM
      1  CHA       44.9700   -7.3830   45.3150 C.2   143  HEM143      0.0000
      2  CHB       40.9700   -9.4290   43.5120 C.2   143  HEM143      0.0000
      3  CHC       38.5030   -5.6860   45.4310 C.2   143  HEM143      0.0000
      4  CHD       42.5000   -3.5000   47.0640 C.2   143  HEM143      0.0000
      5  C1A       44.1310   -8.2510   44.6600 C.ar  143  HEM143      0.0000
      6  C2A       44.5220   -9.4540   43.9500 C.ar  143  HEM143      0.0000
      7  C3A       43.4120  -10.0310   43.4450 C.ar  143  HEM143      0.0000
      8  C4A       42.2870   -9.2030   43.8190 C.ar  143  HEM143      0.0000
      9  CMA       43.2970  -11.3340   42.6150 C.3   143  HEM143      0.0000
     10  CAA       45.9820   -9.9450   43.8050 C.3   143  HEM143      0.0000
     11  CBA       46.4380  -10.6640   45.0690 C.3   143  HEM143      0.0000
     12  CGA       47.9470  -10.8110   45.0660 C.2   143  HEM143      0.0000
     13  O1A       48.6580   -9.8990   44.5510 O.co2 143  HEM143      0.0000
     14  O2A       48.4360  -11.8520   45.5900 O.co2 143  HEM143      0.0000
     15  C1B       39.9420   -8.5840   43.8810 C.2   143  HEM143      0.0000
     16  C2B       38.5550   -8.7450   43.5310 C.2   143  HEM143      0.0000
     17  C3B       37.8810   -7.7080   44.0570 C.2   143  HEM143      0.0000
     18  C4B       38.8240   -6.8620   44.7590 C.2   143  HEM143      0.0000
     19  CMB       37.9830   -9.9220   42.6940 C.3   143  HEM143      0.0000
     20  CAB       36.3590   -7.4030   44.0050 C.2   143  HEM143      0.0000
     21  CBB       35.4680   -8.1240   43.3200 C.2   143  HEM143      0.0000
     22  C1C       39.3590   -4.7470   45.9730 C.ar  143  HEM143      0.0000
     23  C2C       38.9740   -3.4410   46.4750 C.ar  143  HEM143      0.0000
     24  C3C       40.0720   -2.8190   46.9360 C.ar  143  HEM143      0.0000
     25  C4C       41.1860   -3.7230   46.7380 C.ar  143  HEM143      0.0000
     26  CMC       37.5150   -2.9300   46.4660 C.3   143  HEM143      0.0000
     27  CAC       40.1690   -1.4230   47.5900 C.2   143  HEM143      0.0000
     28  CBC       39.9220   -0.2930   46.9190 C.2   143  HEM143      0.0000
     29  C1D       43.5420   -4.3470   46.7410 C.2   143  HEM143      0.0000
     30  C2D       44.9380   -4.0990   47.0220 C.2   143  HEM143      0.0000
     31  C3D       45.6900   -5.3180   46.4820 C.2   143  HEM143      0.0000
     32  C4D       44.6790   -6.1710   45.9170 C.2   143  HEM143      0.0000
     33  CMD       45.5510   -2.8740   47.7470 C.3   143  HEM143      0.0000
     34  CAD       47.2200   -5.5850   46.5150 C.3   143  HEM143      0.0000
     35  CBD       47.8860   -4.7490   45.4300 C.3   143  HEM143      0.0000
     36  CGD       49.2330   -5.2890   44.9920 C.2   143  HEM143      0.0000
     37  O1D       49.7580   -6.3010   45.5730 O.co2 143  HEM143      0.0000
     38  O2D       49.7760   -4.6810   44.0230 O.co2 143  HEM143      0.0000
     39  NA        42.7640   -8.1210   44.5500 N.ar  143  HEM143      0.0000
     40  NB        40.0810   -7.4230   44.6280 N.2   143  HEM143      0.0000
     41  NC        40.7230   -4.8750   46.1490 N.ar  143  HEM143      0.0000
     42  ND        43.4200   -5.5620   46.0750 N.2   143  HEM143      0.0000
     43 FE         41.6900   -6.5160   45.3270 Fe    143  HEM143      0.0000
@<TRIPOS>BOND
     1     9     7    1
     2    19    16    1
     3    21    20    2
     4     7     8   ar
     5     7     6   ar
     6     2     8    2
     7     2    15    1
     8    16    15    1
     9    16    17    2
    10    10     6    1
    11    10    11    1
    12     8    39   ar
    13    15    40    2
    14     6     5   ar
    15    20    17    1
    16    38    36   ar
    17    17    18    1
    18    39     5   ar
    19    39    43    1
    20    13    12   ar
    21    40    18    1
    22    40    43    1
    23     5     1    2
    24    18     3    2
    25    36    35    1
    26    36    37   ar
    27    12    11    1
    28    12    14   ar
    29     1    32    1
    30    43    42    1
    31    43    41    1
    32    35    34    1
    33     3    22    1
    34    32    42    2
    35    32    31    1
    36    22    41   ar
    37    22    23   ar
    38    42    29    1
    39    41    25   ar
    40    26    23    1
    41    23    24   ar
    42    31    34    1
    43    31    30    2
    44    25    24   ar
    45    25     4    1
    46    29    30    1
    47    29     4    2
    48    28    27    2
    49    24    27    1
    50    30    33    1
