@<TRIPOS>MOLECULE
3bj7_COA_A_1.pdb
 48 50 0 0 0
SMALL
GASTEIGER

@<TRIPOS>ATOM
      1  N1A       50.9200   99.6880  105.7950 N.2   400  COA400      0.0021
      2  C2A       50.5060  101.0610  105.8260 C.3   400  COA400      0.5254
      3  N3A       49.8810  101.7030  104.7440 N.2   400  COA400     -0.0055
      4  C4A       49.6840  100.9190  103.6240 C.2   400  COA400      0.3518
      5  C5A       50.0500   99.5060  103.4360 C.2   400  COA400      0.2526
      6  C6A       50.7180   98.8670  104.6320 C.2   400  COA400      0.4393
      7  N6A       51.0950   97.6210  104.6100 N.pl3 400  COA400      0.2180
      8  N7A       49.7150   99.0410  102.2210 N.2   400  COA400     -0.2095
      9  C8A       49.1470  100.0850  101.6040 C.3   400  COA400      0.3377
     10  N9A       49.0950  101.2620  102.3990 N.pl3 400  COA400     -0.1439
     11  C1B       48.5540  102.7870  102.2410 C.3   400  COA400      0.3185
     12  C2B       49.3600  103.4170  101.1820 C.3   400  COA400      0.2543
     13  O2B       49.8950  104.6820  101.4520 O.3   400  COA400     -0.2131
     14  C3B       48.5710  103.3550   99.9150 C.3   400  COA400      0.1928
     15  O3B       48.3790  104.5860   98.9860 O.3   400  COA400     -0.2673
     16  P3B       49.7780  105.1520   98.2870 P.3   400  COA400      0.5327
     17  O7A       50.5440  106.1480   99.2540 O.3   400  COA400     -0.1145
     18  O8A       49.3340  105.9070   96.9850 O.2   400  COA400     -0.2224
     19  O9A       50.6600  103.8600   97.9410 O.3   400  COA400     -0.1145
     20  C4B       47.0390  103.1160  100.3970 C.3   400  COA400      0.1795
     21  O4B       47.2380  102.4520  101.7590 O.3   400  COA400     -0.3136
     22  C5B       46.1320  102.6270   99.3310 C.3   400  COA400      0.1812
     23  O5B       45.9520  101.2090   99.7900 O.3   400  COA400     -0.3112
     24  P1A       46.2900  100.1040   98.6200 P.3   400  COA400      0.2189
     25  O1A       46.2670   98.7620   99.1980 O.3   400  COA400     -0.4371
     26  O2A       47.5690  100.4530   97.9830 O.2   400  COA400     -0.5170
     27  O3A       45.0560  100.1190   97.7440 O.3   400  COA400     -0.2703
     28  P2A       43.5660   99.5220   97.8080 P.3   400  COA400      0.2188
     29  O4A       43.5580   98.2710   98.5350 O.3   400  COA400     -0.4371
     30  O5A       42.6640  100.4980   98.4940 O.2   400  COA400     -0.5170
     31  O6A       43.1210   99.4520   96.2480 O.3   400  COA400     -0.3138
     32  CBP       41.5610  100.7510   94.7770 C.3   400  COA400      0.0645
     33  CCP       43.0280  100.5800   95.3990 C.3   400  COA400      0.1519
     34  CDP       41.5380  102.0420   93.8480 C.3   400  COA400      0.0056
     35  CEP       41.3610   99.4640   93.9670 C.3   400  COA400      0.0056
     36  CAP       40.4030  100.9750   95.9610 C.3   400  COA400      0.2312
     37  OAP       40.6910  102.1760   96.7510 O.3   400  COA400     -0.2131
     38  C9P       38.9010  101.0710   95.4680 C.2   400  COA400      0.2719
     39  O9P       38.2140   99.9330   95.2610 O.2   400  COA400     -0.2706
     40  N8P       38.4840  102.2260   94.9810 N.am  400  COA400     -0.2028
     41  C7P       37.3870  102.3990   93.9740 C.3   400  COA400      0.1248
     42  C6P       37.7420  101.7030   92.6190 C.3   400  COA400      0.1102
     43  C5P       38.1530  102.6980   91.5200 C.2   400  COA400      0.2432
     44  O5P       38.3600  103.9810   91.7650 O.2   400  COA400     -0.2733
     45  N4P       38.4800  102.1080   90.3500 N.am  400  COA400     -0.2044
     46  C3P       37.6680  102.2480   89.0320 C.3   400  COA400      0.1276
     47  C2P       38.5960  102.0830   87.8420 C.3   400  COA400      0.0920
     48  S1P       38.2570  100.5510   86.8080 S.3   400  COA400     -0.0802
@<TRIPOS>BOND
     1    48    47    1
     2    47    46    1
     3    46    45    1
     4    45    43   am
     5    43    44    2
     6    43    42    1
     7    42    41    1
     8    34    32    1
     9    35    32    1
    10    41    40    1
    11    32    33    1
    12    32    36    1
    13    40    38   am
    14    39    38    2
    15    33    31    1
    16    38    36    1
    17    36    37    1
    18    31    28    1
    19    18    16    2
    20    27    28    1
    21    27    24    1
    22    28    30    2
    23    28    29    1
    24    19    16    1
    25    26    24    2
    26    16    15    1
    27    16    17    1
    28    24    25    1
    29    24    23    1
    30    15    14    1
    31    22    23    1
    32    22    20    1
    33    14    20    1
    34    14    12    1
    35    20    21    1
    36    12    13    1
    37    12    11    1
    38     9     8    1
    39     9    10    1
    40    21    11    1
    41     8     5    2
    42    11    10    1
    43    10     4    1
    44     5     4    1
    45     5     6    1
    46     4     3    2
    47     7     6    1
    48     6     1    2
    49     3     2    1
    50     1     2    1
