@<TRIPOS>MOLECULE
3bj8_SPM_C_1.pdb
 14 13 0 0 0
SMALL
GASTEIGER

@<TRIPOS>ATOM
      1  N1        40.2030   32.1840   32.6150 N.3   500  SPM500     -0.1313
      2  C2        39.7930   33.3440   33.4300 C.3   500  SPM500      0.1108
      3  C3        38.8220   34.2840   32.6690 C.3   500  SPM500      0.0393
      4  C4        39.1710   34.3990   31.1710 C.3   500  SPM500      0.0902
      5  N5        38.2430   35.3460   30.5260 N.3   500  SPM500     -0.2180
      6  C6        38.7370   35.5910   29.1610 C.3   500  SPM500      0.0887
      7  C7        37.6740   36.3210   28.3280 C.3   500  SPM500      0.0203
      8  C8        38.2410   36.6250   26.9360 C.3   500  SPM500      0.0203
      9  C9        37.1220   37.0440   25.9720 C.3   500  SPM500      0.0887
     10  N10       37.5070   36.7120   24.6460 N.3   500  SPM500     -0.2180
     11  C11       36.8580   36.5530   23.3310 C.3   500  SPM500      0.0902
     12  C12       37.8050   35.7580   22.5020 C.3   500  SPM500      0.0393
     13  C13       37.0940   35.2170   21.2600 C.3   500  SPM500      0.1108
     14  N14       37.9690   34.2450   20.5720 N.3   500  SPM500     -0.1313
@<TRIPOS>BOND
     1    14    13    1
     2    13    12    1
     3    12    11    1
     4    11    10    1
     5    10     9    1
     6     9     8    1
     7     8     7    1
     8     7     6    1
     9     6     5    1
    10     5     4    1
    11     4     3    1
    12     1     2    1
    13     3     2    1
