@<TRIPOS>MOLECULE
3bj8_COA_A_1.pdb
 48 50 0 0 0
SMALL
GASTEIGER

@<TRIPOS>ATOM
      1  N1A       13.4190   52.1720   52.2680 N.2   400  COA400      0.0021
      2  C2A       12.7650   53.4950   52.3400 C.3   400  COA400      0.5254
      3  N3A       11.8460   53.9470   51.3810 N.2   400  COA400     -0.0055
      4  C4A       11.5850   53.0650   50.3460 C.2   400  COA400      0.3518
      5  C5A       12.1560   51.7140   50.1370 C.2   400  COA400      0.2526
      6  C6A       13.1420   51.2640   51.1900 C.2   400  COA400      0.4393
      7  N6A       13.7150   50.0970   51.1190 N.pl3 400  COA400      0.2180
      8  N7A       11.6900   51.1200   49.0320 N.2   400  COA400     -0.2095
      9  C8A       10.8450   52.0020   48.5020 C.3   400  COA400      0.3377
     10  N9A       10.7200   53.2240   49.2380 N.pl3 400  COA400     -0.1439
     11  C1B        9.9480   54.5240   49.1300 C.3   400  COA400      0.3185
     12  C2B       10.8260   55.5940   48.6030 C.3   400  COA400      0.2543
     13  O2B       10.5000   56.9160   48.9430 O.3   400  COA400     -0.2131
     14  C3B       10.9140   55.3670   47.1330 C.3   400  COA400      0.1928
     15  O3B       10.9370   56.4950   46.0720 O.3   400  COA400     -0.2673
     16  P3B       12.3420   56.5390   45.2050 P.3   400  COA400      0.5327
     17  O7A       12.1760   57.3820   43.8800 O.2   400  COA400     -0.2224
     18  O8A       12.7090   55.0540   44.8580 O.3   400  COA400     -0.1145
     19  O9A       13.4260   57.1820   46.1910 O.3   400  COA400     -0.1145
     20  C4B        9.5180   54.6430   46.7420 C.3   400  COA400      0.1795
     21  O4B        8.9840   54.1670   48.1090 O.3   400  COA400     -0.3136
     22  C5B        9.6220   53.8120   45.5270 C.3   400  COA400      0.1812
     23  O5B        8.2790   53.1950   45.5430 O.3   400  COA400     -0.3112
     24  P1A        8.2900   51.5720   45.8400 P.3   400  COA400      0.2189
     25  O1A        7.8270   51.3170   47.2160 O.3   400  COA400     -0.4371
     26  O2A        9.6160   50.9820   45.5230 O.2   400  COA400     -0.5170
     27  O3A        7.1600   51.1020   44.9980 O.3   400  COA400     -0.2703
     28  P2A        5.5690   51.0950   45.0160 P.3   400  COA400      0.2188
     29  O4A        5.0630   49.9430   45.7360 O.3   400  COA400     -0.4371
     30  O5A        5.0910   52.3570   45.6490 O.2   400  COA400     -0.5170
     31  O6A        5.2200   51.1250   43.4380 O.3   400  COA400     -0.3138
     32  CBP        3.7350   52.4830   41.9920 C.3   400  COA400      0.0645
     33  CCP        5.1760   52.2880   42.6430 C.3   400  COA400      0.1519
     34  CDP        3.7440   53.7720   41.0790 C.3   400  COA400      0.0056
     35  CEP        3.5410   51.2160   41.1550 C.3   400  COA400      0.0056
     36  CAP        2.5760   52.6960   43.1730 C.3   400  COA400      0.2312
     37  OAP        2.8160   53.9310   43.9190 O.3   400  COA400     -0.2131
     38  C9P        1.0880   52.7440   42.6760 C.2   400  COA400      0.2719
     39  O9P        0.5010   51.5990   42.2950 O.2   400  COA400     -0.2706
     40  N8P        0.6620   53.8990   42.2320 N.am  400  COA400     -0.2028
     41  C7P       -0.5220   54.6150   42.7260 C.3   400  COA400      0.1248
     42  C6P       -1.7750   54.1210   41.9820 C.3   400  COA400      0.1102
     43  C5P       -2.0730   54.9520   40.7280 C.2   400  COA400      0.2432
     44  O5P       -3.0730   55.8130   40.6610 O.2   400  COA400     -0.2733
     45  N4P       -1.1580   54.8090   39.7680 N.am  400  COA400     -0.2044
     46  C3P       -1.1390   53.6680   38.7410 C.3   400  COA400      0.1276
     47  C2P       -0.7180   54.2410   37.4140 C.3   400  COA400      0.0920
     48  S1P        0.8610   53.5160   36.7680 S.3   400  COA400     -0.0802
@<TRIPOS>BOND
     1    48    47    1
     2    47    46    1
     3    46    45    1
     4    45    43   am
     5    44    43    2
     6    43    42    1
     7    34    32    1
     8    35    32    1
     9    42    41    1
    10    32    33    1
    11    32    36    1
    12    40    38   am
    13    40    41    1
    14    39    38    2
    15    33    31    1
    16    38    36    1
    17    36    37    1
    18    31    28    1
    19    17    16    2
    20    18    16    1
    21    27    28    1
    22    27    24    1
    23    28    30    2
    24    28    29    1
    25    16    15    1
    26    16    19    1
    27    26    24    2
    28    22    23    1
    29    22    20    1
    30    23    24    1
    31    24    25    1
    32    15    14    1
    33    20    14    1
    34    20    21    1
    35    14    12    1
    36    21    11    1
    37     9     8    1
    38     9    10    1
    39    12    13    1
    40    12    11    1
    41     8     5    2
    42    11    10    1
    43    10     4    1
    44     5     4    1
    45     5     6    1
    46     4     3    2
    47     7     6    1
    48     6     1    2
    49     3     2    1
    50     1     2    1
