@<TRIPOS>MOLECULE
3bjc_WAN_A_1.pdb
 26 28 0 0 0
SMALL
GASTEIGER

@<TRIPOS>ATOM
      1  C26       43.6480   10.7090   50.4750 C.3   901  WAN901      0.0004
      2  C25       43.8720   12.0090   49.6990 C.3   901  WAN901      0.0064
      3  C24       42.6780   12.9520   49.8560 C.3   901  WAN901      0.0498
      4  C23       43.1360   14.4090   49.9560 C.2   901  WAN901      0.1051
      5  C18       43.6790   15.1740   48.9320 C.2   901  WAN901      0.1728
      6  N17       43.9690   14.9360   47.6450 N.2   901  WAN901     -0.3394
      7  N22       43.0740   15.1880   51.0340 N.2   901  WAN901     -0.1827
      8  N20       43.5060   16.3120   50.7730 N.pl3 901  WAN901     -0.2099
      9  C21       43.5380   17.4270   51.7460 C.3   901  WAN901      0.1358
     10  C19       43.9090   16.4160   49.5090 C.3   901  WAN901      0.2631
     11  C15       44.4550   17.4350   48.7400 C.1   901  WAN901      0.2168
     12  O16       44.6600   18.5520   49.2130 O.2   901  WAN901     -0.2113
     13  N14       44.7540   17.1670   47.3990 N.2   901  WAN901     -0.2682
     14  C13       44.4950   15.8960   46.8710 C.1   901  WAN901      0.1530
     15  C12       44.7640   15.6430   45.5300 C.ar  901  WAN901      0.1285
     16  C6        43.9400   15.0500   44.6610 C.ar  901  WAN901      0.0424
     17  C5        44.3960   14.9670   43.4120 C.ar  901  WAN901      0.1580
     18  S2        43.5100   14.3180   42.0510 S.O2  901  WAN901      0.0993
     19  O3        42.0470   14.2860   42.3800 O.2   901  WAN901     -0.1498
     20  O4        43.9960   12.9290   41.7640 O.2   901  WAN901     -0.1498
     21  N1        43.7590   15.2740   40.7560 N.3   901  WAN901      0.0397
     22  S7        45.9560   15.6630   43.3050 S.2   901  WAN901     -0.0299
     23  C8        45.9660   16.0660   44.9700 C.ar  901  WAN901      0.1813
     24  O9        46.9700   16.6990   45.6350 O.3   901  WAN901     -0.4689
     25  C10       47.8670   17.3150   44.6980 C.3   901  WAN901      0.2062
     26  C11       49.1340   17.7480   45.4380 C.3   901  WAN901      0.0512
@<TRIPOS>BOND
     1    21    18    1
     2    20    18    2
     3    18    19    2
     4    18    17    1
     5    22    17   ar
     6    22    23   ar
     7    17    16   ar
     8    16    15   ar
     9    25    26    1
    10    25    24    1
    11    23    15   ar
    12    23    24    1
    13    15    14    1
    14    14    13    2
    15    14     6    2
    16    13    11    2
    17     6     5    2
    18    11    12    2
    19    11    10    1
    20     5    10    1
    21     5     4    1
    22    10     8    1
    23     2     3    1
    24     2     1    1
    25     3     4    1
    26     4     7    2
    27     8     7    1
    28     8     9    1
