@<TRIPOS>MOLECULE
3bje_R1P_A_1.pdb
 14 14 0 0 0
SMALL
GASTEIGER

@<TRIPOS>ATOM
      1  C5'        8.5440   -0.3100   26.1720 C.3   401  R1P401      0.2142
      2  O5'        8.3660   -1.1390   27.3300 O.3   401  R1P401     -0.2176
      3  C4'        7.2970   -0.3240   25.3080 C.3   401  R1P401      0.1836
      4  O4'        6.1160   -0.0430   26.0800 O.3   401  R1P401     -0.3253
      5  C1'        5.4480    1.1200   25.5780 C.3   401  R1P401      0.2781
      6  C2'        6.5640    1.8850   24.8460 C.3   401  R1P401      0.2409
      7  O2'        6.1490    2.9250   23.9300 O.3   401  R1P401     -0.2149
      8  C3'        7.3480    0.7310   24.2160 C.3   401  R1P401      0.2168
      9  O3'        6.7080    0.2060   23.0410 O.3   401  R1P401     -0.2175
     10  O1'        4.2690    0.8140   24.7610 O.3   401  R1P401     -0.2416
     11  P          3.5560   -0.6140   24.5050 P.3   401  R1P401      0.5346
     12  O1P        4.6830   -1.3370   23.7530 O.3   401  R1P401     -0.1145
     13  O2P        2.3590   -0.2720   23.6350 O.2   401  R1P401     -0.2223
     14  O3P        3.2410   -1.2690   25.8110 O.3   401  R1P401     -0.1145
@<TRIPOS>BOND
     1     9     8    1
     2    13    11    2
     3    12    11    1
     4     7     6    1
     5     8     6    1
     6     8     3    1
     7    11    10    1
     8    11    14    1
     9    10     5    1
    10     6     5    1
    11     3     4    1
    12     3     1    1
    13     5     4    1
    14     1     2    1
