@<TRIPOS>MOLECULE
3bjf_FBP_A_1.pdb
 20 20 0 0 0
SMALL
GASTEIGER

@<TRIPOS>ATOM
      1  P1        15.5260  -37.3970    9.1310 P.3   532  FBP532      0.5328
      2  O1P       15.5030  -38.6270    8.3620 O.2   532  FBP532     -0.2224
      3  O2P       16.9870  -36.9480    9.2420 O.3   532  FBP532     -0.1145
      4  O3P       14.9980  -37.5710   10.5540 O.3   532  FBP532     -0.1145
      5  O1        14.7550  -36.3250    8.1900 O.3   532  FBP532     -0.2648
      6  C1        15.3470  -35.4480    7.3100 C.3   532  FBP532      0.2152
      7  C2        14.6510  -34.0720    7.0960 C.3   532  FBP532      0.2780
      8  O2        13.2880  -34.2750    6.6130 O.3   532  FBP532     -0.1897
      9  C3        15.6810  -33.4920    6.0920 C.3   532  FBP532      0.2408
     10  O3        15.5640  -33.9910    4.9530 O.3   532  FBP532     -0.2149
     11  C4        15.5840  -32.1290    6.6700 C.3   532  FBP532      0.2167
     12  O4        16.8640  -31.4520    6.4470 O.3   532  FBP532     -0.2175
     13  C5        15.4100  -32.1260    8.1920 C.3   532  FBP532      0.1808
     14  O5        14.7920  -33.4030    8.3470 O.3   532  FBP532     -0.3255
     15  C6        14.5500  -30.9690    8.6800 C.3   532  FBP532      0.1859
     16  O6        15.0030  -30.9500   10.0060 O.3   532  FBP532     -0.2675
     17  P2        15.4150  -29.5470   10.7150 P.3   532  FBP532      0.5327
     18  O4P       14.1210  -28.7580   10.6820 O.3   532  FBP532     -0.1145
     19  O5P       15.8610  -29.9310   12.1090 O.3   532  FBP532     -0.1145
     20  O6P       16.4900  -28.8030    9.9460 O.2   532  FBP532     -0.2224
@<TRIPOS>BOND
     1    10     9    1
     2     9    11    1
     3     9     7    1
     4    12    11    1
     5     8     7    1
     6    11    13    1
     7     7     6    1
     8     7    14    1
     9     6     5    1
    10     5     1    1
    11    13    14    1
    12    13    15    1
    13     2     1    2
    14    15    16    1
    15     1     3    1
    16     1     4    1
    17    20    17    2
    18    16    17    1
    19    18    17    1
    20    17    19    1
