@<TRIPOS>MOLECULE
3bjh_NBB_A_1.pdb
 14 14 0 0 0
SMALL
GASTEIGER

@<TRIPOS>ATOM
      1  O1S       12.0670   12.3550   -2.3710 O.2   120  NBB120     -0.1516
      2  S         13.1890   13.2830   -2.6650 S.O2  120  NBB120      0.0768
      3  O2S       13.0250   13.8400   -4.0270 O.2   120  NBB120     -0.1516
      4  N10       13.1880   14.3790   -1.5970 N.3   120  NBB120     -0.0778
      5  C11       13.4130   14.0630   -0.1870 C.3   120  NBB120      0.1155
      6  C12       14.3460   15.1160    0.3990 C.3   120  NBB120      0.0208
      7  C13       14.8150   14.7020    1.7880 C.3   120  NBB120      0.0015
      8  C14       15.1630   15.9020    2.6470 C.3   120  NBB120      0.0000
      9  C4        14.6010   12.5320   -2.6550 C.ar  120  NBB120      0.1235
     10  C5        15.7590   13.2890   -2.7730 C.ar  120  NBB120      0.0200
     11  C6        17.0040   12.6710   -2.7750 C.ar  120  NBB120      0.0014
     12  C1        17.1000   11.2870   -2.6600 C.ar  120  NBB120      0.0001
     13  C2        15.9420   10.5240   -2.5400 C.ar  120  NBB120      0.0014
     14  C3        14.7010   11.1480   -2.5350 C.ar  120  NBB120      0.0200
@<TRIPOS>BOND
     1     3     2    2
     2    11    10   ar
     3    11    12   ar
     4    10     9   ar
     5     2     9    1
     6     2     1    2
     7     2     4    1
     8    12    13   ar
     9     9    14   ar
    10    13    14   ar
    11     4     5    1
    12     5     6    1
    13     6     7    1
    14     7     8    1
