@<TRIPOS>MOLECULE
3bjm_NAG_A_1.pdb
 14 14 0 0 0
SMALL
GASTEIGER

@<TRIPOS>ATOM
      1  C1        56.1930   62.0050   -6.6150 C.3   767  NAG767      0.1665
      2  C2        56.0140   63.3050   -5.8510 C.3   767  NAG767      0.1576
      3  C3        54.9280   64.0860   -6.5670 C.3   767  NAG767      0.2069
      4  C4        55.3430   64.3320   -8.0200 C.3   767  NAG767      0.2134
      5  C5        55.8410   63.0570   -8.7290 C.3   767  NAG767      0.1809
      6  C6        56.6180   63.4210   -9.9760 C.3   767  NAG767      0.2141
      7  C7        56.4750   63.3940   -3.4850 C.2   767  NAG767      0.2420
      8  C8        55.9320   63.2980   -2.0680 C.3   767  NAG767      0.0964
      9  N2        55.6530   63.0470   -4.4720 N.am  767  NAG767     -0.2019
     10  O3        54.7270   65.3270   -5.9150 O.3   767  NAG767     -0.2184
     11  O4        54.2360   64.8490   -8.7400 O.3   767  NAG767     -0.2176
     12  O5        56.7460   62.3000   -7.8930 O.3   767  NAG767     -0.3489
     13  O6        56.6640   62.3360  -10.8870 O.3   767  NAG767     -0.2176
     14  O7        57.6270   63.7780   -3.6730 O.2   767  NAG767     -0.2733
@<TRIPOS>BOND
     1    13     6    1
     2     6     5    1
     3    11     4    1
     4     5     4    1
     5     5    12    1
     6     4     3    1
     7    12     1    1
     8     1     2    1
     9     3    10    1
    10     3     2    1
    11     2     9    1
    12     9     7   am
    13    14     7    2
    14     7     8    1
