@<TRIPOS>MOLECULE
3bjm_BJM_A_1.pdb
 23 27 0 0 0
SMALL
GASTEIGER

@<TRIPOS>ATOM
      1  C1        46.7800   50.8510   35.0450 C.3     1  BJM1        0.0271
      2  C2        46.4170   51.4030   36.4610 C.3     1  BJM1        0.1678
      3  C3        47.2850   49.3860   35.2530 C.3     1  BJM1        0.0323
      4  C8        47.4540   48.6520   33.9130 C.3     1  BJM1        0.1267
      5  C9        45.7880   50.1900   32.7670 C.3     1  BJM1        0.0025
      6  C10       48.2770   50.8830   32.8870 C.3     1  BJM1        0.0025
      7  C13       46.1430   48.7360   33.0990 C.3     1  BJM1        0.0304
      8  C14       48.6420   49.3610   33.1420 C.3     1  BJM1        0.0304
      9  C16       46.9770   50.9040   32.0030 C.3     1  BJM1        0.0002
     10  C19       47.2230   49.0070   40.0900 C.3     1  BJM1        0.0216
     11  C20       47.5640   48.1940   38.8860 C.3     1  BJM1        0.0215
     12  C21       48.1810   50.0200   40.6900 C.3     1  BJM1        0.0230
     13  C22       50.1390   50.2410   39.1100 C.3     1  BJM1        0.1290
     14  N23       50.3000   49.7570   37.8420 N.3     1  BJM1       -0.1296
     15  C4        45.5100   50.8320   34.1520 C.3     1  BJM1        0.0020
     16  C5        47.8880   51.6150   34.2470 C.3     1  BJM1        0.0020
     17  C6        47.6520   51.4450   37.3980 C.2     1  BJM1        0.2430
     18  N7        45.8830   52.7570   36.4260 N.3     1  BJM1       -0.1231
     19  N11       47.7030   50.5270   38.3750 N.am    1  BJM1       -0.2802
     20  O12       48.5390   52.2840   37.2570 O.2     1  BJM1       -0.2733
     21  O15       47.5470   47.2890   34.2220 O.3     1  BJM1       -0.2257
     22  C17       46.7350   49.4420   38.7750 C.3     1  BJM1        0.0755
     23  C18       48.6860   50.7000   39.4800 C.3     1  BJM1        0.0944
@<TRIPOS>BOND
     1     9     5    1
     2     9     6    1
     3     5     7    1
     4     5    15    1
     5     6     8    1
     6     6    16    1
     7     7     4    1
     8     8     4    1
     9     4    21    1
    10     4     3    1
    11    15     1    1
    12    16     1    1
    13     1     3    1
    14     1     2    1
    15    18     2    1
    16     2    17    1
    17    20    17    2
    18    17    19   am
    19    14    13    1
    20    19    22    1
    21    19    23    1
    22    22    11    1
    23    22    10    1
    24    11    10    1
    25    13    23    1
    26    23    12    1
    27    10    12    1
