@<TRIPOS>MOLECULE
3bjp_URC_A_1.pdb
 12 13 0 0 0
SMALL
GASTEIGER

@<TRIPOS>ATOM
      1  N1        30.2290   27.2720   36.2430 N.2   1001  URC1001    -0.2289
      2  C2        29.4200   27.0320   37.3290 C.1   1001  URC1001     0.3754
      3  C6        31.5350   26.8990   36.0520 C.1   1001  URC1001     0.2604
      4  N3        29.9640   26.3310   38.3840 N.2   1001  URC1001    -0.2368
      5  O11       28.2780   27.4440   37.3240 O.2   1001  URC1001    -0.1738
      6  C4        31.2580   25.9270   38.2720 C.1   1001  URC1001     0.2099
      7  C5        32.0540   26.1310   37.1620 C.2   1001  URC1001     0.3262
      8  N9        32.0170   25.2000   39.1590 N.2   1001  URC1001    -0.2373
      9  O13       32.1410   27.1870   35.0360 O.2   1001  URC1001    -0.2051
     10  N7        33.2630   25.6350   37.3270 N.2   1001  URC1001    -0.2823
     11  C8        33.2250   25.0780   38.5270 C.1   1001  URC1001     0.3665
     12  O24       34.1650   24.4690   39.1060 O.2   1001  URC1001    -0.1745
@<TRIPOS>BOND
     1     9     3    2
     2     3     1    2
     3     3     7    1
     4     1     2    2
     5     7    10    2
     6     7     6    1
     7     5     2    2
     8    10    11    2
     9     2     4    2
    10     6     4    2
    11     6     8    2
    12    11    12    2
    13    11     8    2
