@<TRIPOS>MOLECULE
3bju_ATP_A_1.pdb
 31 33 0 0 0
SMALL
GASTEIGER

@<TRIPOS>ATOM
      1  PG        24.1480    7.6980   -3.5900 P.3   603  ATP603      0.5373
      2  O1G       24.4250    7.7890   -5.0690 O.2   603  ATP603     -0.2221
      3  O2G       24.7380    8.7680   -2.7230 O.3   603  ATP603     -0.1143
      4  O3G       22.7010    7.4420   -3.2920 O.3   603  ATP603     -0.1143
      5  PB        24.7540    4.8570   -3.5660 P.3   603  ATP603      0.2277
      6  O1B       23.6550    4.2760   -2.7100 O.3   603  ATP603     -0.4368
      7  O2B       24.7510    4.6990   -5.0650 O.2   603  ATP603     -0.5168
      8  O3B       24.9970    6.4050   -3.1710 O.3   603  ATP603     -0.2258
      9  PA        26.5440    2.7970   -2.4940 P.3   603  ATP603      0.2189
     10  O1A       25.7560    2.4740   -1.2460 O.3   603  ATP603     -0.4371
     11  O2A       26.5650    1.8910   -3.6950 O.2   603  ATP603     -0.5170
     12  O3A       26.1640    4.2770   -3.0340 O.3   603  ATP603     -0.2700
     13  O5'       28.0960    3.1330   -2.1530 O.3   603  ATP603     -0.3112
     14  C5'       28.6470    3.0750   -0.8290 C.3   603  ATP603      0.1813
     15  C4'       28.9880    4.4920   -0.3440 C.3   603  ATP603      0.1821
     16  O4'       29.8840    5.1530   -1.2490 O.3   603  ATP603     -0.3135
     17  C3'       27.7760    5.4030   -0.2750 C.3   603  ATP603      0.2184
     18  O3'       27.1210    5.2580    0.9960 O.3   603  ATP603     -0.2174
     19  C2'       28.4060    6.7690   -0.3940 C.3   603  ATP603      0.2570
     20  O2'       28.9230    7.0860    0.9090 O.3   603  ATP603     -0.2130
     21  C1'       29.6140    6.5790   -1.2830 C.3   603  ATP603      0.3186
     22  N9        29.4730    6.9110   -2.7320 N.pl3 603  ATP603     -0.1439
     23  C8        28.8150    6.1530   -3.6340 C.3   603  ATP603      0.3377
     24  N7        28.9130    6.6710   -4.8690 N.2   603  ATP603     -0.2095
     25  C5        29.6580    7.7880   -4.7750 C.2   603  ATP603      0.2526
     26  C6        30.1700    8.8040   -5.7150 C.2   603  ATP603      0.4393
     27  N6        29.9060    8.7760   -7.0530 N.pl3 603  ATP603      0.2180
     28  N1        30.9140    9.7890   -5.1850 N.2   603  ATP603      0.0021
     29  C2        31.2200    9.8640   -3.8830 C.3   603  ATP603      0.5254
     30  N3        30.8170    8.9730   -2.9910 N.2   603  ATP603     -0.0055
     31  C4        30.0280    7.9360   -3.3670 C.2   603  ATP603      0.3518
@<TRIPOS>BOND
     1    27    26    1
     2    26    28    2
     3    26    25    1
     4    28    29    1
     5     2     1    2
     6     7     5    2
     7    24    25    2
     8    24    23    1
     9    25    31    1
    10    29    30    1
    11    11     9    2
    12    23    22    1
    13     1     4    1
    14     1     8    1
    15     1     3    1
    16     5     8    1
    17     5    12    1
    18     5     6    1
    19    31    30    2
    20    31    22    1
    21    12     9    1
    22    22    21    1
    23     9    13    1
    24     9    10    1
    25    13    14    1
    26    21    16    1
    27    21    19    1
    28    16    15    1
    29    14    15    1
    30    19    17    1
    31    19    20    1
    32    15    17    1
    33    17    18    1
