@<TRIPOS>MOLECULE
3bju_LYS_A_1.pdb
 10 9 0 0 0
SMALL
GASTEIGER

@<TRIPOS>ATOM
      1  N         30.1040   -2.8000   -1.2740 N.3   601  LYS601     -0.1208
      2  CA        29.0240   -1.9940   -0.6130 C.3   601  LYS601      0.1943
      3  C         28.6040   -0.7850   -1.4360 C.2   601  LYS601      0.3819
      4  O         29.2470   -0.4170   -2.4300 O.co2 601  LYS601     -0.2441
      5  CB        29.4500   -1.5310    0.7730 C.3   601  LYS601      0.0307
      6  CG        29.4930   -2.6420    1.8040 C.3   601  LYS601      0.0036
      7  CD        28.1140   -3.1400    2.1440 C.3   601  LYS601      0.0206
      8  CE        28.1840   -4.3210    3.1250 C.3   601  LYS601      0.1093
      9  NZ        28.7220   -5.5810    2.4910 N.3   601  LYS601     -0.1314
     10  OXT       27.6060   -0.1400   -1.0970 O.co2 601  LYS601     -0.2441
@<TRIPOS>BOND
     1     4     3   ar
     2     3    10   ar
     3     3     2    1
     4     1     2    1
     5     2     5    1
     6     5     6    1
     7     6     7    1
     8     7     8    1
     9     9     8    1
