@<TRIPOS>MOLECULE
3bjy_DCP_A_1.pdb
 28 29 0 0 0
SMALL
GASTEIGER

@<TRIPOS>ATOM
      1  N1        27.7170   36.4580    5.1420 N.am  739  DCP739     -0.1802
      2  C2        28.9350   37.0890    5.5060 C.1   739  DCP739      0.2756
      3  N3        30.0890   36.4540    5.1890 N.2   739  DCP739     -0.3024
      4  C4        30.0890   35.2550    4.5420 C.2   739  DCP739      0.2346
      5  C5        28.8650   34.5860    4.1670 C.2   739  DCP739      0.0687
      6  C6        27.7130   35.2380    4.4920 C.2   739  DCP739      0.0835
      7  O2        28.9270   38.1830    6.0810 O.2   739  DCP739     -0.1925
      8  N4        31.2490   34.7020    4.2560 N.pl3 739  DCP739     -0.0921
      9  C1'       26.4010   37.2990    5.5050 C.3   739  DCP739      0.2090
     10  C2'       26.2780   38.0130    4.1450 C.3   739  DCP739      0.0874
     11  C3'       24.9960   37.5000    3.5170 C.3   739  DCP739      0.1857
     12  C4'       24.3430   36.6490    4.5930 C.3   739  DCP739      0.1773
     13  O4'       25.2130   36.5310    5.7460 O.3   739  DCP739     -0.3339
     14  O3'       24.0670   38.4150    2.9540 O.3   739  DCP739     -0.2203
     15  C5'       23.6930   35.4610    3.9790 C.3   739  DCP739      0.1812
     16  O5'       24.5560   34.2010    3.6470 O.3   739  DCP739     -0.3112
     17  PA        24.3540   33.5320    2.4530 P.3   739  DCP739      0.2189
     18  O1A       23.0370   33.1550    2.3240 O.3   739  DCP739     -0.4371
     19  O2A       25.1880   32.2520    2.1450 O.2   739  DCP739     -0.5170
     20  O3A       24.8230   34.7950    1.4340 O.3   739  DCP739     -0.2700
     21  PB        23.8480   35.5990    0.3610 P.3   739  DCP739      0.2277
     22  O1B       24.4810   37.0280    0.2740 O.2   739  DCP739     -0.5168
     23  O2B       22.3940   35.5590    0.9990 O.3   739  DCP739     -0.4368
     24  O3B       24.0220   34.7860   -1.0440 O.3   739  DCP739     -0.2258
     25  PG        22.9250   33.8150   -1.7650 P.3   739  DCP739      0.5373
     26  O1G       23.8810   32.7650   -2.4930 O.3   739  DCP739     -0.1143
     27  O2G       22.0340   34.6330   -2.7710 O.2   739  DCP739     -0.2221
     28  O3G       22.0070   33.1410   -0.6950 O.3   739  DCP739     -0.1143
@<TRIPOS>BOND
     1    27    25    2
     2    26    25    1
     3    25    24    1
     4    25    28    1
     5    24    21    1
     6    22    21    2
     7    21    23    1
     8    21    20    1
     9    20    17    1
    10    19    17    2
    11    18    17    1
    12    17    16    1
    13    14    11    1
    14    11    10    1
    15    11    12    1
    16    16    15    1
    17    15    12    1
    18    10     9    1
    19     5     6    2
    20     5     4    1
    21     8     4    1
    22     6     1    1
    23     4     3    2
    24    12    13    1
    25     1     9    1
    26     1     2   am
    27     3     2    2
    28     9    13    1
    29     2     7    2
