@<TRIPOS>MOLECULE
3bk0_CNU_A_1.pdb
 23 24 0 0 0
SMALL
GASTEIGER

@<TRIPOS>ATOM
      1  O1P        2.7800   12.8820   31.2770 O.3   1000  CNU1000    -0.1145
      2  P          4.1630   13.1910   30.7830 P.3   1000  CNU1000     0.5327
      3  O2P        4.1660   13.8270   29.4200 O.2   1000  CNU1000    -0.2224
      4  O3P        5.0210   13.9220   31.7980 O.3   1000  CNU1000    -0.1145
      5  O5'        4.9330   11.7850   30.6140 O.3   1000  CNU1000    -0.2675
      6  C5'        4.6380   10.8520   29.5510 C.3   1000  CNU1000     0.1859
      7  C4'        5.4820    9.5980   29.8240 C.3   1000  CNU1000     0.1801
      8  O4'        5.1950    8.5560   28.8960 O.3   1000  CNU1000    -0.3320
      9  C3'        6.9440    9.9370   29.5640 C.3   1000  CNU1000     0.2158
     10  O3'        7.7520    9.0940   30.4090 O.3   1000  CNU1000    -0.2175
     11  C2'        7.1540    9.5290   28.1160 C.3   1000  CNU1000     0.2319
     12  O2'        8.5080    9.1200   27.8600 O.3   1000  CNU1000    -0.2157
     13  C1'        6.2320    8.3280   27.9410 C.3   1000  CNU1000     0.2401
     14  N1         5.6900    8.1180   26.5810 N.am  1000  CNU1000    -0.1760
     15  C2         4.9150    9.0900   25.9320 C.1   1000  CNU1000     0.2845
     16  O2         4.7620   10.2000   26.4770 O.2   1000  CNU1000    -0.1918
     17  N3         4.4310    8.8410   24.7120 N.2   1000  CNU1000    -0.2445
     18  C4         4.5780    7.6660   24.0730 C.1   1000  CNU1000     0.2273
     19  O4         4.0900    7.4890   22.9420 O.2   1000  CNU1000    -0.2078
     20  C6         5.8740    6.9260   25.9870 C.2   1000  CNU1000     0.1026
     21  C5         5.3700    6.6040   24.7230 C.2   1000  CNU1000     0.1789
     22  C52        5.5990    5.4280   24.2090 C.1   1000  CNU1000     0.1146
     23  N53        5.8560    4.3740   23.7750 N.1   1000  CNU1000    -0.1900
@<TRIPOS>BOND
     1    19    18    2
     2    23    22    3
     3    18    17    2
     4    18    21    1
     5    22    21    1
     6    17    15    2
     7    21    20    2
     8    15    16    2
     9    15    14   am
    10    20    14    1
    11    14    13    1
    12    12    11    1
    13    13    11    1
    14    13     8    1
    15    11     9    1
    16     8     7    1
    17     3     2    2
    18     6     7    1
    19     6     5    1
    20     9     7    1
    21     9    10    1
    22     5     2    1
    23     2     1    1
    24     2     4    1
