@<TRIPOS>MOLECULE
3bk2_U5P_A_1.pdb
 21 22 0 0 0
SMALL
GASTEIGER

@<TRIPOS>ATOM
      1  N1        11.3690   36.4260   34.9820 N.am  950  U5P950     -0.1766
      2  C2        10.6230   36.3320   33.7480 C.1   950  U5P950      0.2845
      3  N3         9.6560   37.2460   33.4840 N.2   950  U5P950     -0.2452
      4  C4         9.3780   38.2670   34.3580 C.1   950  U5P950      0.2182
      5  C5        10.0840   38.4040   35.5760 C.2   950  U5P950      0.1242
      6  C6        11.0990   37.4500   35.8640 C.2   950  U5P950      0.0929
      7  O2        10.8380   35.4000   32.9010 O.2   950  U5P950     -0.1918
      8  O4         8.4570   39.0670   34.0240 O.2   950  U5P950     -0.2085
      9  C1'       12.3900   35.3570   35.1490 C.3   950  U5P950      0.2401
     10  C2'       13.7830   35.6690   35.6550 C.3   950  U5P950      0.2319
     11  O2'       14.6550   36.1300   34.6120 O.3   950  U5P950     -0.2157
     12  C3'       14.2360   34.3000   36.1760 C.3   950  U5P950      0.2158
     13  C4'       12.9360   33.6860   36.7170 C.3   950  U5P950      0.1801
     14  O3'       14.8180   33.4490   35.1790 O.3   950  U5P950     -0.2175
     15  O4'       11.8550   34.3790   36.0610 O.3   950  U5P950     -0.3320
     16  C5'       12.7750   33.8480   38.2550 C.3   950  U5P950      0.1859
     17  O5'       12.8560   35.2150   38.7120 O.3   950  U5P950     -0.2675
     18  P         13.1920   35.5130   40.1450 P.3   950  U5P950      0.5327
     19  O1P       12.2080   36.4610   40.7090 O.3   950  U5P950     -0.1145
     20  O2P       13.4150   34.1280   40.9720 O.3   950  U5P950     -0.1145
     21  O3P       14.5340   36.2030   40.1920 O.2   950  U5P950     -0.2224
@<TRIPOS>BOND
     1     7     2    2
     2     3     2    2
     3     3     4    2
     4     2     1   am
     5     8     4    2
     6     4     5    1
     7    11    10    1
     8     1     9    1
     9     1     6    1
    10     9    10    1
    11     9    15    1
    12    14    12    1
    13     5     6    2
    14    10    12    1
    15    15    13    1
    16    12    13    1
    17    13    16    1
    18    16    17    1
    19    17    18    1
    20    18    21    2
    21    18    19    1
    22    18    20    1
