@<TRIPOS>MOLECULE
3bk7_ADP_A_1.pdb
 27 29 0 0 0
SMALL
GASTEIGER

@<TRIPOS>ATOM
      1  PB       -30.8150  -11.7600  -41.4520 P.3   598  ADP598      0.5373
      2  O1B      -29.9530  -10.5420  -41.6390 O.2   598  ADP598     -0.2221
      3  O2B      -32.2710  -11.5640  -41.4460 O.3   598  ADP598     -0.1143
      4  O3B      -30.3550  -12.5130  -40.0630 O.3   598  ADP598     -0.1143
      5  PA       -29.3560  -12.7990  -43.8000 P.3   598  ADP598      0.2231
      6  O1A      -30.0240  -11.9700  -44.8160 O.2   598  ADP598     -0.5169
      7  O2A      -27.9410  -12.4560  -43.4460 O.3   598  ADP598     -0.4370
      8  O3A      -30.3120  -12.8110  -42.5090 O.3   598  ADP598     -0.2261
      9  O5'      -29.4060  -14.3080  -44.2590 O.3   598  ADP598     -0.3111
     10  C5'      -30.5610  -15.1740  -44.1920 C.3   598  ADP598      0.1813
     11  C4'      -30.1650  -16.6180  -44.4900 C.3   598  ADP598      0.1821
     12  O4'      -29.3590  -16.6260  -45.6940 O.3   598  ADP598     -0.3135
     13  C3'      -29.3270  -17.3010  -43.4100 C.3   598  ADP598      0.2184
     14  O3'      -29.9500  -18.5650  -43.1610 O.3   598  ADP598     -0.2174
     15  C2'      -27.9760  -17.4150  -44.0430 C.3   598  ADP598      0.2570
     16  O2'      -27.2540  -18.5700  -43.6040 O.3   598  ADP598     -0.2130
     17  C1'      -28.2530  -17.5080  -45.5420 C.3   598  ADP598      0.3186
     18  N9       -27.1460  -17.0100  -46.4060 N.pl3 598  ADP598     -0.1439
     19  C8       -26.5270  -15.7710  -46.4240 C.3   598  ADP598      0.3377
     20  N7       -25.5860  -15.6410  -47.3180 N.2   598  ADP598     -0.2095
     21  C5       -25.5840  -16.8820  -47.9280 C.2   598  ADP598      0.2526
     22  C6       -24.8220  -17.4250  -48.9950 C.2   598  ADP598      0.4393
     23  N6       -23.8880  -16.7060  -49.5900 N.pl3 598  ADP598      0.2180
     24  N1       -25.0560  -18.7080  -49.3920 N.2   598  ADP598      0.0021
     25  C2       -26.0100  -19.4230  -48.7730 C.3   598  ADP598      0.5254
     26  N3       -26.8060  -19.0340  -47.7550 N.2   598  ADP598     -0.0055
     27  C4       -26.5370  -17.7240  -47.3870 C.2   598  ADP598      0.3518
@<TRIPOS>BOND
     1    23    22    1
     2    24    22    2
     3    24    25    1
     4    22    21    1
     5    25    26    1
     6    21    27    1
     7    21    20    2
     8    26    27    2
     9    27    18    1
    10    20    19    1
    11    19    18    1
    12    18    17    1
    13    12    17    1
    14    12    11    1
    15    17    15    1
    16     6     5    2
    17    11    10    1
    18    11    13    1
    19     9    10    1
    20     9     5    1
    21    15    16    1
    22    15    13    1
    23     5     7    1
    24     5     8    1
    25    13    14    1
    26     8     1    1
    27     2     1    2
    28     1     3    1
    29     1     4    1
