@<TRIPOS>MOLECULE
3bk8_AZA_A_1.pdb
 11 12 0 0 0
SMALL
GASTEIGER

@<TRIPOS>ATOM
      1  N1        30.0980   27.3630   36.1030 N.2   303  AZA303     -0.2300
      2  C2        29.2990   27.1600   37.1950 C.1   303  AZA303      0.3745
      3  O2        28.1680   27.5840   37.2840 O.2   303  AZA303     -0.1738
      4  N3        29.8190   26.4360   38.2420 N.2   303  AZA303     -0.2491
      5  C4        31.1040   26.0000   38.1120 C.1   303  AZA303      0.1531
      6  C5        31.8970   26.1800   36.9940 C.2   303  AZA303      0.2717
      7  C6        31.3830   26.9180   35.8710 C.1   303  AZA303      0.2477
      8  O6        32.0280   27.2050   34.8480 O.2   303  AZA303     -0.2062
      9  N7        33.0600   25.5810   37.1180 N.2   303  AZA303     -0.1149
     10  N8        33.0200   25.0470   38.3360 N.pl3 303  AZA303     -0.0026
     11  N9        31.8280   25.2520   39.0000 N.2   303  AZA303     -0.0705
@<TRIPOS>BOND
     1     8     7    2
     2     7     1    2
     3     7     6    1
     4     1     2    2
     5     6     9    2
     6     6     5    1
     7     9    10    1
     8     2     3    2
     9     2     4    2
    10     5     4    2
    11     5    11    2
    12    10    11    1
