@<TRIPOS>MOLECULE
3bk9_HEM_A_1.pdb
 43 50 0 0 0
SMALL
GASTEIGER

@<TRIPOS>ATOM
      1 FE         14.0270  -15.0980    3.1270 Fe    401  HEM401      0.0000
      2  CHA       15.5270  -18.1510    2.7010 C.2   401  HEM401      0.0000
      3  CHB       11.1230  -16.7550    3.8250 C.2   401  HEM401      0.0000
      4  CHC       12.5570  -12.1190    3.4670 C.2   401  HEM401      0.0000
      5  CHD       17.0550  -13.4590    2.3990 C.2   401  HEM401      0.0000
      6  NA        13.4080  -17.1470    3.3020 N.2   401  HEM401      0.0000
      7  C1A       14.1740  -18.2160    2.9610 C.2   401  HEM401      0.0000
      8  C2A       13.3610  -19.3840    2.9820 C.2   401  HEM401      0.0000
      9  C3A       12.0960  -19.0200    3.3020 C.2   401  HEM401      0.0000
     10  C4A       12.1510  -17.5950    3.4690 C.2   401  HEM401      0.0000
     11  CMA       10.7700  -19.8050    3.5800 C.3   401  HEM401      0.0000
     12  CAA       14.0770  -20.7670    2.6890 C.3   401  HEM401      0.0000
     13  CBA       14.2890  -20.8670    1.1380 C.3   401  HEM401      0.0000
     14  CGA       12.8920  -21.0490    0.4830 C.2   401  HEM401      0.0000
     15  O1A       12.3590  -20.0740   -0.1060 O.co2 401  HEM401      0.0000
     16  O2A       12.2590  -22.1580    0.5080 O.co2 401  HEM401      0.0000
     17  NB        12.2650  -14.5900    3.6350 N.ar  401  HEM401      0.0000
     18  C1B       11.1140  -15.4110    3.7840 C.ar  401  HEM401      0.0000
     19  C2B        9.9560  -14.5520    4.0240 C.ar  401  HEM401      0.0000
     20  C3B       10.3910  -13.2640    3.9560 C.ar  401  HEM401      0.0000
     21  C4B       11.8050  -13.2410    3.6730 C.ar  401  HEM401      0.0000
     22  CMB        8.5200  -15.0490    4.2830 C.3   401  HEM401      0.0000
     23  CAB        9.5260  -11.9960    4.0610 C.2   401  HEM401      0.0000
     24  CBB        8.9130  -11.6780    5.1830 C.2   401  HEM401      0.0000
     25  NC        14.7430  -13.1500    2.9590 N.2   401  HEM401      0.0000
     26  C1C       13.8830  -12.0290    3.1120 C.2   401  HEM401      0.0000
     27  C2C       14.6680  -10.8230    2.8960 C.2   401  HEM401      0.0000
     28  C3C       15.9060  -11.2000    2.6010 C.2   401  HEM401      0.0000
     29  C4C       15.9590  -12.6530    2.6380 C.2   401  HEM401      0.0000
     30  CMC       14.1360   -9.3970    2.9670 C.3   401  HEM401      0.0000
     31  CAC       17.1640  -10.3710    2.2620 C.3   401  HEM401      0.0000
     32  CBC       17.7080  -10.6640    1.0140 C.3   401  HEM401      0.0000
     33  ND        15.8830  -15.6160    2.6740 N.ar  401  HEM401      0.0000
     34  C1D       17.0210  -14.8150    2.4550 C.ar  401  HEM401      0.0000
     35  C2D       18.1640  -15.5930    2.1590 C.ar  401  HEM401      0.0000
     36  C3D       17.6980  -17.0230    2.3070 C.ar  401  HEM401      0.0000
     37  C4D       16.2700  -16.9970    2.5630 C.ar  401  HEM401      0.0000
     38  CMD       19.6320  -15.2160    1.8470 C.3   401  HEM401      0.0000
     39  CAD       18.6810  -18.1640    2.1330 C.3   401  HEM401      0.0000
     40  CBD       18.9680  -18.5600    3.5920 C.3   401  HEM401      0.0000
     41  CGD       19.8090  -19.8390    3.6300 C.2   401  HEM401      0.0000
     42  O1D       20.2360  -20.3860    2.5350 O.co2 401  HEM401      0.0000
     43  O2D       20.0760  -20.2840    4.7830 O.co2 401  HEM401      0.0000
@<TRIPOS>BOND
     1    15    14   ar
     2    14    16   ar
     3    14    13    1
     4    32    31    1
     5    13    12    1
     6    38    35    1
     7    39    36    1
     8    39    40    1
     9    35    36   ar
    10    35    34   ar
    11    31    28    1
    12    36    37   ar
    13     5    34    2
    14     5    29    1
    15    34    33   ar
    16    42    41   ar
    17    37    33   ar
    18    37     2    2
    19    28    29    1
    20    28    27    2
    21    29    25    2
    22    33     1    1
    23    12     8    1
    24     2     7    1
    25    27    30    1
    26    27    26    1
    27    25    26    1
    28    25     1    1
    29     7     8    1
    30     7     6    2
    31     8     9    2
    32    26     4    2
    33     1     6    1
    34     1    17    1
    35     9    10    1
    36     9    11    1
    37     6    10    1
    38     4    21    1
    39    10     3    2
    40    40    41    1
    41    41    43   ar
    42    17    21   ar
    43    17    18   ar
    44    21    20   ar
    45    18     3    1
    46    18    19   ar
    47    20    19   ar
    48    20    23    1
    49    19    22    1
    50    23    24    2
