@<TRIPOS>MOLECULE
3bk9_TRP_A_1.pdb
 15 16 0 0 0
SMALL
GASTEIGER

@<TRIPOS>ATOM
      1  N         11.0930  -17.1320    0.2100 N.3   402  TRP402     -0.1205
      2  CA        10.0890  -16.1500    0.6560 C.3   402  TRP402      0.1984
      3  C          8.7730  -16.8440    0.9370 C.2   402  TRP402      0.3822
      4  O          7.7440  -16.2210    0.9070 O.co2 402  TRP402     -0.2440
      5  CB         9.7740  -15.1300   -0.4210 C.3   402  TRP402      0.0549
      6  CG        10.5530  -13.8540   -0.4030 C.2   402  TRP402     -0.0138
      7  CD1       10.8000  -13.0720    0.6280 C.2   402  TRP402      0.0907
      8  CD2       11.0720  -13.1870   -1.5910 C.3   402  TRP402      0.0819
      9  NE1       11.5160  -11.8690    0.1710 N.2   402  TRP402     -0.2482
     10  CE2       11.6740  -11.9770   -1.1900 C.2   402  TRP402      0.0665
     11  CE3       11.0480  -13.5100   -2.9700 C.2   402  TRP402     -0.0164
     12  CZ2       12.2460  -11.1030   -2.1090 C.2   402  TRP402      0.0153
     13  CZ3       11.6310  -12.6690   -3.8580 C.2   402  TRP402     -0.0038
     14  CH2       12.2100  -11.4670   -3.4400 C.2   402  TRP402      0.0009
     15  OXT        8.6940  -18.0410    1.1220 O.co2 402  TRP402     -0.2440
@<TRIPOS>BOND
     1    13    14    1
     2    13    11    2
     3    14    12    2
     4    11     8    1
     5    12    10    1
     6     8    10    1
     7     8     6    1
     8    10     9    2
     9     5     6    1
    10     5     2    1
    11     6     7    2
    12     9     7    1
    13     1     2    1
    14     2     3    1
    15     4     3   ar
    16     3    15   ar
