@<TRIPOS>MOLECULE
3bkb_STU_A_1.pdb
 35 42 0 0 0
SMALL
GASTEIGER

@<TRIPOS>ATOM
      1  O4        16.6200   31.1650   57.8250 O.3   826  STU826     -0.3186
      2  C25       15.7890   31.0530   58.9620 C.3   826  STU826      0.2078
      3  C24       16.2360   30.0690   60.0400 C.3   826  STU826      0.0739
      4  C23       17.4980   29.3040   59.5850 C.3   826  STU826      0.1086
      5  C22       17.2350   28.7760   58.2100 C.3   826  STU826      0.1761
      6  C21       17.1250   29.9770   57.1780 C.3   826  STU826      0.1915
      7  C26       18.5720   30.3250   56.6530 C.3   826  STU826      0.0566
      8  N2        16.1320   29.5430   56.1030 N.ar  826  STU826     -0.3054
      9  C18       14.7890   29.6590   56.2510 C.ar  826  STU826      0.0774
     10  C19       14.0410   30.2170   57.3160 C.ar  826  STU826      0.0783
     11  C6        12.6180   30.2590   57.2450 C.ar  826  STU826      0.0293
     12  C7        11.9850   29.6790   56.1270 C.ar  826  STU826      0.0822
     13  C10       12.7590   29.1370   55.0850 C.ar  826  STU826      0.0154
     14  C11       14.1560   29.0730   55.1680 C.ar  826  STU826      0.0173
     15  C12       15.1610   28.6060   54.3130 C.ar  826  STU826      0.0171
     16  C17       16.4020   28.8820   54.9570 C.ar  826  STU826      0.0617
     17  C16       17.5940   28.4850   54.3080 C.ar  826  STU826      0.0172
     18  C15       17.5460   27.8260   53.0690 C.ar  826  STU826      0.0015
     19  C14       16.3270   27.5270   52.4650 C.ar  826  STU826      0.0001
     20  C13       15.1450   27.9430   53.1160 C.ar  826  STU826      0.0015
     21  C9        11.8820   28.5860   54.0220 C.3   826  STU826      0.1650
     22  N1        10.5370   28.9080   54.5700 N.2   826  STU826     -0.1976
     23  C8        10.6340   29.5170   55.7430 C.1   826  STU826      0.1501
     24  O5         9.6730   29.8980   56.4130 O.2   826  STU826     -0.2222
     25  C5        12.1680   30.8540   58.4180 C.ar  826  STU826      0.0180
     26  C20       13.3000   31.2140   59.1500 C.ar  826  STU826      0.0618
     27  C1        13.1860   31.8610   60.3770 C.ar  826  STU826      0.0172
     28  C2        11.9440   32.2080   60.9340 C.ar  826  STU826      0.0015
     29  C3        10.8170   31.8450   60.2210 C.ar  826  STU826      0.0001
     30  C4        10.8950   31.1910   58.9730 C.ar  826  STU826      0.0015
     31  N3        14.4080   30.8230   58.4520 N.ar  826  STU826     -0.3039
     32  O6        16.0010   27.9660   58.3380 O.3   826  STU826     -0.3478
     33  C27       16.0420   26.7420   57.5660 C.3   826  STU826      0.1743
     34  N4        17.8910   28.2530   60.5310 N.3   826  STU826     -0.2152
     35  C28       19.2940   27.7210   60.3830 C.3   826  STU826      0.1075
@<TRIPOS>BOND
     1    19    18   ar
     2    19    20   ar
     3    18    17   ar
     4    20    15   ar
     5    21    22    1
     6    21    13    1
     7    17    16   ar
     8    15    16   ar
     9    15    14   ar
    10    22    23    2
    11    16     8   ar
    12    13    14   ar
    13    13    12   ar
    14    14     9   ar
    15    23    12    1
    16    23    24    2
    17     8     9   ar
    18     8     6    1
    19    12    11   ar
    20     9    10   ar
    21     7     6    1
    22     6     1    1
    23     6     5    1
    24    11    10   ar
    25    11    25   ar
    26    10    31   ar
    27    33    32    1
    28     1     2    1
    29     5    32    1
    30     5     4    1
    31    25    30   ar
    32    25    26   ar
    33    31     2    1
    34    31    26   ar
    35     2     3    1
    36    30    29   ar
    37    26    27   ar
    38     4     3    1
    39     4    34    1
    40    29    28   ar
    41    27    28   ar
    42    35    34    1
