@<TRIPOS>MOLECULE
3bki_FQX_B_1.pdb
 16 18 0 0 0
SMALL
GASTEIGER

@<TRIPOS>ATOM
      1  OAA        0.7100   -2.1380   54.6820 O.2   264  FQX264     -0.1961
      2  CAJ        0.0830   -2.9320   55.3710 C.1   264  FQX264      0.3024
      3  CAK       -1.0560   -3.6510   54.9510 C.1   264  FQX264      0.3027
      4  OAB       -1.5730   -3.5680   53.8460 O.2   264  FQX264     -0.1961
      5  NAH       -1.6910   -4.5400   55.8380 N.2   264  FQX264     -0.3209
      6  CAN       -1.2140   -4.7360   57.1540 C.2   264  FQX264      0.1733
      7  CAE       -1.8510   -5.6340   58.0260 C.2   264  FQX264      0.0597
      8  CAO       -1.3260   -5.7980   59.3260 C.2   264  FQX264      0.1483
      9  NAP       -1.7130   -6.5610   60.3290 N.4   264  FQX264     -0.0171
     10  OAC       -2.8430   -7.4250   60.2180 O.3   264  FQX264     -0.0441
     11  OAI       -0.8450   -6.3630   61.4410 O.2   264  FQX264     -0.2367
     12  NAF        0.1000   -5.4080   61.0000 N.2   264  FQX264     -0.0518
     13  CAL       -0.1950   -5.0850   59.7430 C.2   264  FQX264      0.1285
     14  CAD        0.4510   -4.1820   58.8740 C.3   264  FQX264      0.1135
     15  CAM       -0.0670   -4.0120   57.5770 C.2   264  FQX264      0.1591
     16  NAG        0.5610   -3.1280   56.6870 N.2   264  FQX264     -0.3247
@<TRIPOS>BOND
     1     4     3    2
     2     1     2    2
     3     3     2    1
     4     3     5    2
     5     2    16    2
     6     5     6    2
     7    16    15    2
     8     6    15    1
     9     6     7    1
    10    15    14    1
    11     7     8    2
    12    14    13    1
    13     8    13    1
    14     8     9    1
    15    13    12    2
    16    10     9    1
    17     9    11    1
    18    12    11    1
