@<TRIPOS>MOLECULE
3bkk_FUC_A_1.pdb
 10 10 0 0 0
SMALL
GASTEIGER

@<TRIPOS>ATOM
      1  C1        36.6730   19.9100   61.5770 C.3   845  FUC845      0.1776
      2  C2        35.6770   19.4430   62.6510 C.3   845  FUC845      0.2141
      3  C3        36.3410   18.4600   63.6120 C.3   845  FUC845      0.2172
      4  C4        37.6040   19.0880   64.2040 C.3   845  FUC845      0.2116
      5  C5        38.5380   19.4750   63.0600 C.3   845  FUC845      0.1483
      6  C6        39.8130   20.1410   63.5440 C.3   845  FUC845      0.0349
      7  O2        34.5630   18.8170   62.0360 O.3   845  FUC845     -0.2176
      8  O3        35.4310   18.1170   64.6470 O.3   845  FUC845     -0.2175
      9  O4        37.2580   20.2470   64.9510 O.3   845  FUC845     -0.2177
     10  O5        37.8700   20.4060   62.1790 O.3   845  FUC845     -0.3508
@<TRIPOS>BOND
     1     1    10    1
     2     1     2    1
     3     7     2    1
     4    10     5    1
     5     2     3    1
     6     5     6    1
     7     5     4    1
     8     3     4    1
     9     3     8    1
    10     4     9    1
