@<TRIPOS>MOLECULE
3bkk_KAF_A_1.pdb
 36 38 0 0 0
SMALL
GASTEIGER

@<TRIPOS>ATOM
      1  CD1       44.2900   46.2660   39.8710 C.ar  704  KAF704     -0.0042
      2  CE1       43.0800   46.7790   39.4390 C.ar  704  KAF704     -0.0003
      3  CZ        43.0270   48.0580   38.9140 C.ar  704  KAF704     -0.0000
      4  CE2       44.1830   48.8130   38.8240 C.ar  704  KAF704     -0.0003
      5  CD2       45.3870   48.2890   39.2590 C.ar  704  KAF704     -0.0042
      6  CG        45.4550   47.0100   39.7860 C.ar  704  KAF704     -0.0199
      7  CB        46.7640   46.4290   40.2410 C.3   704  KAF704      0.0596
      8  CA        47.2670   46.9560   41.5880 C.3   704  KAF704      0.2020
      9  C         47.9060   48.3300   41.4190 C.2   704  KAF704      0.3845
     10  O         47.2880   49.3110   41.8840 O.co2 704  KAF704     -0.2437
     11  OXT       49.0170   48.4100   40.8520 O.co2 704  KAF704     -0.2437
     12  N         46.1840   47.0120   42.5630 N.am  704  KAF704     -0.1952
     13  CBC       46.4300   47.2650   43.8450 C.2   704  KAF704      0.2421
     14  OAA       47.5610   47.4780   44.2810 O.2   704  KAF704     -0.2733
     15  CAV       45.2240   47.3100   44.7780 C.3   704  KAF704      0.0947
     16  CAW       45.7120   47.0540   46.2160 C.3   704  KAF704      0.1031
     17  CBM       45.2390   45.6940   46.7370 C.3   704  KAF704      0.3701
     18  OAE       45.5200   44.6690   45.7770 O.2   704  KAF704     -0.2735
     19  OAF       43.8230   45.7630   46.9360 O.2   704  KAF704     -0.2735
     20  CBL       45.8980   45.3700   48.0820 C.3   704  KAF704      0.1836
     21  CAX       47.4280   45.5460   48.0320 C.3   704  KAF704      0.0558
     22  CBF       48.0730   45.3030   49.3680 C.ar  704  KAF704     -0.0202
     23  CAO       48.2060   46.3290   50.2880 C.ar  704  KAF704     -0.0042
     24  CAI       48.7800   46.1060   51.5260 C.ar  704  KAF704     -0.0003
     25  CAG       49.2300   44.8400   51.8560 C.ar  704  KAF704     -0.0000
     26  CAJ       49.1050   43.8060   50.9470 C.ar  704  KAF704     -0.0003
     27  CAP       48.5290   44.0410   49.7120 C.ar  704  KAF704     -0.0042
     28  NBA       45.5870   44.0170   48.5320 N.am  704  KAF704     -0.1953
     29  CBE       44.5170   43.7500   49.2750 C.2   704  KAF704      0.2650
     30  OAC       43.6940   44.5980   49.6250 O.2   704  KAF704     -0.2684
     31  CBG       44.3460   42.2810   49.6590 C.ar  704  KAF704      0.0550
     32  CAR       45.1040   41.3040   49.0370 C.ar  704  KAF704      0.0046
     33  CAL       44.9490   39.9730   49.3780 C.ar  704  KAF704      0.0001
     34  CAH       44.0320   39.6040   50.3450 C.ar  704  KAF704      0.0000
     35  CAK       43.2700   40.5750   50.9670 C.ar  704  KAF704      0.0001
     36  CAQ       43.4270   41.9050   50.6240 C.ar  704  KAF704      0.0046
@<TRIPOS>BOND
     1     4     3   ar
     2     4     5   ar
     3     3     2   ar
     4     5     6   ar
     5     2     1   ar
     6     6     1   ar
     7     6     7    1
     8     7     8    1
     9    11     9   ar
    10     9     8    1
    11     9    10   ar
    12     8    12    1
    13    12    13   am
    14    13    14    2
    15    13    15    1
    16    15    16    1
    17    18    17    1
    18    16    17    1
    19    17    19    1
    20    17    20    1
    21    21    20    1
    22    21    22    1
    23    20    28    1
    24    28    29   am
    25    32    33   ar
    26    32    31   ar
    27    29    30    2
    28    29    31    1
    29    22    27   ar
    30    22    23   ar
    31    33    34   ar
    32    31    36   ar
    33    27    26   ar
    34    23    24   ar
    35    34    35   ar
    36    36    35   ar
    37    26    25   ar
    38    24    25   ar
