@<TRIPOS>MOLECULE
3bkl_FUC_A_1.pdb
 10 10 0 0 0
SMALL
GASTEIGER

@<TRIPOS>ATOM
      1  C1        36.4680   19.8660   61.4350 C.3   845  FUC845      0.1776
      2  C2        35.6190   19.3710   62.6080 C.3   845  FUC845      0.2141
      3  C3        36.4230   18.4690   63.5560 C.3   845  FUC845      0.2172
      4  C4        37.7370   19.1390   63.9900 C.3   845  FUC845      0.2116
      5  C5        38.5190   19.5670   62.7390 C.3   845  FUC845      0.1483
      6  C6        39.8430   20.2650   63.0450 C.3   845  FUC845      0.0349
      7  O2        34.4980   18.6480   62.1160 O.3   845  FUC845     -0.2176
      8  O3        35.6400   18.1570   64.7020 O.3   845  FUC845     -0.2175
      9  O4        37.4660   20.2640   64.8240 O.3   845  FUC845     -0.2177
     10  O5        37.7040   20.4420   61.9080 O.3   845  FUC845     -0.3508
@<TRIPOS>BOND
     1     1    10    1
     2     1     2    1
     3    10     5    1
     4     7     2    1
     5     2     3    1
     6     5     6    1
     7     5     4    1
     8     3     4    1
     9     3     8    1
    10     4     9    1
