@<TRIPOS>MOLECULE
3bkl_KAW_A_1.pdb
 39 42 0 0 0
SMALL
GASTEIGER

@<TRIPOS>ATOM
      1  CD2       44.0270   47.3280   39.3110 C.3   800  KAW800      0.0819
      2  CE3       43.0900   46.3710   39.7150 C.2   800  KAW800     -0.0164
      3  CZ3       41.7690   46.5420   39.3440 C.2   800  KAW800     -0.0038
      4  CH2       41.3680   47.6450   38.5800 C.2   800  KAW800      0.0009
      5  CZ2       42.2600   48.5980   38.1680 C.2   800  KAW800      0.0153
      6  CE2       43.5930   48.4270   38.5420 C.2   800  KAW800      0.0665
      7  NE1       44.6900   49.2040   38.2820 N.2   800  KAW800     -0.2482
      8  CD1       45.7960   48.6270   38.8600 C.2   800  KAW800      0.0907
      9  CG        45.4400   47.4740   39.4980 C.2   800  KAW800     -0.0136
     10  CB        46.3430   46.5210   40.2200 C.3   800  KAW800      0.0575
     11  CA        46.8120   47.0180   41.5880 C.3   800  KAW800      0.2018
     12  C         47.5730   48.3370   41.4420 C.2   800  KAW800      0.3845
     13  OXT       48.7380   48.3000   40.9940 O.co2 800  KAW800     -0.2437
     14  O         46.9890   49.3890   41.7800 O.co2 800  KAW800     -0.2437
     15  N         45.6760   47.1780   42.4880 N.am  800  KAW800     -0.1952
     16  CBC       45.8720   47.2920   43.7970 C.2   800  KAW800      0.2421
     17  OAA       46.9960   47.2770   44.2980 O.2   800  KAW800     -0.2733
     18  CAV       44.6390   47.4650   44.6780 C.3   800  KAW800      0.0947
     19  CAW       45.0680   47.2310   46.1390 C.3   800  KAW800      0.1031
     20  CBM       44.7160   45.8110   46.5900 C.3   800  KAW800      0.3701
     21  OAE       45.1310   44.8520   45.6130 O.2   800  KAW800     -0.2735
     22  OAF       43.2970   45.7300   46.7390 O.2   800  KAW800     -0.2735
     23  CBL       45.3540   45.5030   47.9470 C.3   800  KAW800      0.1836
     24  CAX       46.8750   45.6680   47.9210 C.3   800  KAW800      0.0558
     25  CBF       47.4990   45.4480   49.2710 C.ar  800  KAW800     -0.0202
     26  CAO       47.7080   46.5100   50.1360 C.ar  800  KAW800     -0.0042
     27  CAI       48.2660   46.3090   51.3850 C.ar  800  KAW800     -0.0003
     28  CAG       48.6220   45.0350   51.7870 C.ar  800  KAW800     -0.0000
     29  CAJ       48.4170   43.9670   50.9330 C.ar  800  KAW800     -0.0003
     30  CAP       47.8590   44.1770   49.6860 C.ar  800  KAW800     -0.0042
     31  NBA       45.0470   44.1520   48.4000 N.am  800  KAW800     -0.1953
     32  CBE       44.0130   43.9120   49.1980 C.2   800  KAW800      0.2650
     33  OAC       43.2210   44.7820   49.5600 O.2   800  KAW800     -0.2684
     34  CBG       43.8360   42.4450   49.5920 C.ar  800  KAW800      0.0550
     35  CAQ       43.0610   42.1030   50.6870 C.ar  800  KAW800      0.0046
     36  CAK       42.8970   40.7720   51.0230 C.ar  800  KAW800      0.0001
     37  CAH       43.5040   39.7850   50.2690 C.ar  800  KAW800      0.0000
     38  CAL       44.2790   40.1280   49.1770 C.ar  800  KAW800      0.0001
     39  CAR       44.4470   41.4580   48.8390 C.ar  800  KAW800      0.0046
@<TRIPOS>BOND
     1     5     6    1
     2     5     4    2
     3     7     6    2
     4     7     8    1
     5     6     1    1
     6     4     3    1
     7     8     9    2
     8     1     9    1
     9     1     2    1
    10     3     2    2
    11     9    10    1
    12    10    11    1
    13    13    12   ar
    14    12    11    1
    15    12    14   ar
    16    11    15    1
    17    15    16   am
    18    16    17    2
    19    16    18    1
    20    18    19    1
    21    21    20    1
    22    19    20    1
    23    20    22    1
    24    20    23    1
    25    24    23    1
    26    24    25    1
    27    23    31    1
    28    31    32   am
    29    39    38   ar
    30    39    34   ar
    31    38    37   ar
    32    32    33    2
    33    32    34    1
    34    25    30   ar
    35    25    26   ar
    36    34    35   ar
    37    30    29   ar
    38    26    27   ar
    39    37    36   ar
    40    35    36   ar
    41    29    28   ar
    42    27    28   ar
