@<TRIPOS>MOLECULE
3bkn_HEM_B_1.pdb
 44 50 0 0 0
SMALL
GASTEIGER

@<TRIPOS>ATOM
      1  CHA       -0.6710   -4.2180  -33.8260 C.2   301  HEM301      0.0000
      2  CHA       -0.7980   -4.2630  -33.7650 C.3   301  HEM301      0.0000
      3  CHB       -0.4480   -5.4670  -38.5260 C.2   301  HEM301      0.0000
      4  CHC       -0.6540   -0.7870  -39.7030 C.2   301  HEM301      0.0000
      5  CHD       -0.7100    0.5180  -35.0170 C.2   301  HEM301      0.0000
      6  C1A       -0.6460   -5.0340  -35.0420 C.ar  301  HEM301      0.0000
      7  C2A       -0.6520   -6.4910  -34.9920 C.ar  301  HEM301      0.0000
      8  C3A       -0.5850   -6.8490  -36.3970 C.ar  301  HEM301      0.0000
      9  C4A       -0.5450   -5.5530  -37.0730 C.ar  301  HEM301      0.0000
     10  CMA       -0.5570   -8.2080  -37.0180 C.3   301  HEM301      0.0000
     11  CAA       -0.7230   -7.3850  -33.7890 C.3   301  HEM301      0.0000
     12  CBA       -1.7480   -6.7940  -32.8310 C.3   301  HEM301      0.0000
     13  CGA       -2.8220   -7.7740  -32.4230 C.2   301  HEM301      0.0000
     14  O1A       -3.7510   -8.0130  -33.2190 O.co2 301  HEM301      0.0000
     15  O2A       -2.7530   -8.2930  -31.2910 O.co2 301  HEM301      0.0000
     16  C1B       -0.4560   -4.2510  -39.3190 C.2   301  HEM301      0.0000
     17  C2B       -0.4400   -4.2910  -40.7820 C.2   301  HEM301      0.0000
     18  C3B       -0.5100   -2.8690  -41.0380 C.2   301  HEM301      0.0000
     19  C4B       -0.5640   -2.2320  -39.8240 C.2   301  HEM301      0.0000
     20  CMB       -0.3760   -5.4610  -41.7140 C.3   301  HEM301      0.0000
     21  CAB       -0.5110   -2.2370  -42.3680 C.2   301  HEM301      0.0000
     22  CBB        0.4610   -1.4110  -42.7080 C.2   301  HEM301      0.0000
     23  C1C       -0.7180    0.0460  -38.5160 C.ar  301  HEM301      0.0000
     24  C2C       -0.8040    1.5100  -38.6000 C.ar  301  HEM301      0.0000
     25  C3C       -0.8290    1.8900  -37.2100 C.ar  301  HEM301      0.0000
     26  C4C       -0.7590    0.6190  -36.4750 C.ar  301  HEM301      0.0000
     27  CMC       -0.8580    2.4410  -39.7660 C.3   301  HEM301      0.0000
     28  CAC       -0.9090    3.2900  -36.7530 C.2   301  HEM301      0.0000
     29  CBC       -0.6640    3.5620  -35.5050 C.2   301  HEM301      0.0000
     30  C1D       -0.6640   -0.7170  -34.2440 C.2   301  HEM301      0.0000
     31  C2D       -0.6870   -0.7070  -32.7950 C.2   301  HEM301      0.0000
     32  C3D       -0.6820   -2.1320  -32.5010 C.2   301  HEM301      0.0000
     33  C4D       -0.6530   -2.7480  -33.7220 C.2   301  HEM301      0.0000
     34  CMD       -0.7140    0.4840  -31.8790 C.3   301  HEM301      0.0000
     35  CAD       -0.6830   -2.7880  -31.1570 C.3   301  HEM301      0.0000
     36  CBD        0.3720   -2.1020  -30.3070 C.3   301  HEM301      0.0000
     37  CGD        1.5220   -3.0160  -29.9810 C.2   301  HEM301      0.0000
     38  O1D        2.6670   -2.6660  -30.3180 O.co2 301  HEM301      0.0000
     39  O2D        1.2880   -4.0730  -29.3770 O.co2 301  HEM301      0.0000
     40  NA        -0.5740   -4.4880  -36.2640 N.ar  301  HEM301      0.0000
     41  NB        -0.5400   -3.0320  -38.7740 N.2   301  HEM301      0.0000
     42  NC        -0.6900   -0.4610  -37.2830 N.ar  301  HEM301      0.0000
     43  ND        -0.6610   -1.9370  -34.7900 N.2   301  HEM301      0.0000
     44 FE         -0.5880   -2.4810  -36.7700 Fe    301  HEM301      0.0000
@<TRIPOS>BOND
     1    22    21    2
     2    21    18    1
     3    20    17    1
     4    18    17    2
     5    18    19    1
     6    17    16    1
     7    19     4    2
     8    19    41    1
     9    27    24    1
    10     4    23    1
    11    16    41    2
    12    16     3    1
    13    41    44    1
    14    24    23   ar
    15    24    25   ar
    16     3     9    2
    17    23    42   ar
    18    42    44    1
    19    42    26   ar
    20    25    28    1
    21    25    26   ar
    22     9     8   ar
    23     9    40   ar
    24    10     8    1
    25    44    40    1
    26    44    43    1
    27    28    29    2
    28    26     5    1
    29     8     7   ar
    30    40     6   ar
    31     6     7   ar
    32     6     1    2
    33     5    30    2
    34     7    11    1
    35    43    30    1
    36    43    33    2
    37    30    31    1
    38     1    33    1
    39    11    12    1
    40    33    32    1
    41    14    13   ar
    42    12    13    1
    43    31    32    2
    44    31    34    1
    45    32    35    1
    46    13    15   ar
    47    35    36    1
    48    38    37   ar
    49    36    37    1
    50    37    39   ar
