@<TRIPOS>MOLECULE
3bkq_G1P_X_1.pdb
 16 16 0 0 0
SMALL
GASTEIGER

@<TRIPOS>ATOM
      1  C1       -47.6490  -13.9250   16.5590 C.3   658  G1P658      0.2781
      2  C2       -47.4830  -15.4260   16.3240 C.3   658  G1P658      0.2410
      3  C3       -46.8670  -15.6700   14.9460 C.3   658  G1P658      0.2198
      4  C4       -47.7680  -15.1120   13.8530 C.3   658  G1P658      0.2144
      5  C5       -48.1890  -13.6540   14.1170 C.3   658  G1P658      0.1835
      6  C6       -49.4460  -13.2970   13.3080 C.3   658  G1P658      0.2142
      7  O1       -46.3640  -13.2840   16.7070 O.3   658  G1P658     -0.2416
      8  O2       -46.6950  -15.9970   17.3770 O.3   658  G1P658     -0.2149
      9  O3       -46.6870  -17.0670   14.7030 O.3   658  G1P658     -0.2174
     10  O4       -47.0840  -15.2430   12.5950 O.3   658  G1P658     -0.2176
     11  O5       -48.4630  -13.3510   15.5090 O.3   658  G1P658     -0.3253
     12  O6       -49.2150  -13.2930   11.8880 O.3   658  G1P658     -0.2176
     13  P        -45.9530  -12.4260   18.0220 P.3   658  G1P658      0.5346
     14  O1P      -45.8680  -13.4150   19.1610 O.3   658  G1P658     -0.1145
     15  O2P      -47.0760  -11.4290   18.1780 O.3   658  G1P658     -0.1145
     16  O3P      -44.6230  -11.8070   17.6480 O.2   658  G1P658     -0.2223
@<TRIPOS>BOND
     1    12     6    1
     2    10     4    1
     3     6     5    1
     4     4     5    1
     5     4     3    1
     6     5    11    1
     7     9     3    1
     8     3     2    1
     9    11     1    1
    10     2     1    1
    11     2     8    1
    12     1     7    1
    13     7    13    1
    14    16    13    2
    15    13    15    1
    16    13    14    1
