@<TRIPOS>MOLECULE
3bkv_NAG_A_1.pdb
 14 14 0 0 0
SMALL
GASTEIGER

@<TRIPOS>ATOM
      1  C1        22.3490   23.6820   -5.9770 C.3   501  NAG501      0.1665
      2  C2        23.0320   22.4280   -5.4040 C.3   501  NAG501      0.1576
      3  C3        24.1900   22.8350   -4.5030 C.3   501  NAG501      0.2069
      4  C4        25.1430   23.7430   -5.2770 C.3   501  NAG501      0.2134
      5  C5        24.3730   24.9510   -5.7860 C.3   501  NAG501      0.1809
      6  C6        25.2430   25.8950   -6.5870 C.3   501  NAG501      0.2141
      7  C7        21.2040   20.8570   -5.2430 C.2   501  NAG501      0.2420
      8  C8        19.8900   20.6180   -4.5180 C.3   501  NAG501      0.0964
      9  N2        22.0950   21.6330   -4.6340 N.am  501  NAG501     -0.2019
     10  O3        24.8720   21.6690   -4.0640 O.3   501  NAG501     -0.2184
     11  O4        26.1960   24.1760   -4.4370 O.3   501  NAG501     -0.2176
     12  O5        23.2990   24.5210   -6.6480 O.3   501  NAG501     -0.3489
     13  O6        24.4810   26.9810   -7.0770 O.3   501  NAG501     -0.2176
     14  O7        21.4010   20.3410   -6.3450 O.2   501  NAG501     -0.2733
@<TRIPOS>BOND
     1    13     6    1
     2    12     1    1
     3    12     5    1
     4     6     5    1
     5    14     7    2
     6     1     2    1
     7     5     4    1
     8     2     9    1
     9     2     3    1
    10     4     3    1
    11     4    11    1
    12     7     9   am
    13     7     8    1
    14     3    10    1
