@<TRIPOS>MOLECULE
3bkz_AKG_A_1.pdb
 10 9 0 0 0
SMALL
GASTEIGER

@<TRIPOS>ATOM
      1  C1        -8.0010   -4.9730  -24.3980 C.2   601  AKG601      0.4219
      2  O1        -8.7900   -5.2280  -23.4630 O.co2 601  AKG601     -0.2373
      3  O2        -8.4010   -4.8790  -25.5830 O.co2 601  AKG601     -0.2373
      4  C2        -6.5810   -4.8070  -24.0980 C.2   601  AKG601      0.2526
      5  O5        -5.7800   -4.7390  -25.0200 O.2   601  AKG601     -0.2843
      6  C3        -6.1370   -4.7500  -22.6460 C.3   601  AKG601      0.0881
      7  C4        -4.6160   -4.7920  -22.5090 C.3   601  AKG601      0.1224
      8  C5        -4.1820   -4.7500  -21.0570 C.2   601  AKG601      0.3653
      9  O3        -4.8160   -5.4090  -20.2030 O.co2 601  AKG601     -0.2456
     10  O4        -3.1810   -4.0630  -20.7650 O.co2 601  AKG601     -0.2456
@<TRIPOS>BOND
     1     3     1   ar
     2     5     4    2
     3     1     4    1
     4     1     2   ar
     5     4     6    1
     6     6     7    1
     7     7     8    1
     8     8    10   ar
     9     8     9   ar
