@<TRIPOS>MOLECULE
3bl0_BL0_A_1.pdb
 13 13 0 0 0
SMALL
GASTEIGER

@<TRIPOS>ATOM
      1  CA1       -4.3930    7.4330   12.8310 C.3   300  BL0300      0.1142
      2  NA1       -5.2990    6.3810   13.2370 N.pl3 300  BL0300     -0.2833
      3  CA2       -6.7030    6.6270   12.9950 C.3   300  BL0300      0.1142
      4  CA3       -4.8070    5.1870   13.7200 C.ar  300  BL0300      0.1854
      5  SA1       -5.7200    3.7480   14.0210 S.2   300  BL0300     -0.0331
      6  NA2       -3.5120    5.0100   13.9920 N.ar  300  BL0300     -0.1257
      7  NA3       -3.2130    3.7120   14.4280 N.ar  300  BL0300     -0.1422
      8  CA4       -4.2850    2.8900   14.5040 C.ar  300  BL0300      0.1380
      9  CA5       -4.4090    1.4370   14.8800 C.3   300  BL0300      0.2260
     10  SA2       -5.2240    1.0780   16.2820 S.O2  300  BL0300      0.0804
     11  OA1       -6.5510    1.4340   16.1720 O.2   300  BL0300     -0.1544
     12  NA4       -5.1550   -0.4460   16.5620 N.3   300  BL0300      0.0350
     13  OA2       -4.5290    1.6510   17.3790 O.2   300  BL0300     -0.1544
@<TRIPOS>BOND
     1     1     2    1
     2     3     2    1
     3     2     4    1
     4     4     6   ar
     5     4     5   ar
     6     6     7   ar
     7     5     8   ar
     8     7     8   ar
     9     8     9    1
    10     9    10    1
    11    11    10    2
    12    10    12    1
    13    10    13    2
