@<TRIPOS>MOLECULE
3bl1_BL1_A_1.pdb
 24 26 0 0 0
SMALL
GASTEIGER

@<TRIPOS>ATOM
      1  OAW       -7.4680    0.9160   16.9850 O.2   300  BL1300     -0.1503
      2  SAX       -6.0510    1.1250   16.9110 S.O2  300  BL1300      0.0943
      3  NAS       -5.4540   -0.0630   16.3530 N.3   300  BL1300      0.0392
      4  OAV       -5.5830    1.3070   18.4150 O.2   300  BL1300     -0.1503
      5  CAO       -5.7000    2.3410   15.8520 C.ar  300  BL1300      0.1357
      6  CAM       -5.1880    2.1110   14.5560 C.ar  300  BL1300      0.0255
      7  CAJ       -5.9060    3.6720   16.1680 C.ar  300  BL1300      0.0763
      8 CLAQ       -6.5720    4.0520   17.7680 Cl    300  BL1300     -0.0809
      9  CAC       -5.6290    4.7030   15.2590 C.ar  300  BL1300      0.0129
     10  CAN       -5.1040    4.4400   13.9930 C.ar  300  BL1300      0.0056
     11  CAL       -4.8610    3.1260   13.6170 C.ar  300  BL1300      0.0580
     12  CAK       -4.3490    2.7160   12.2300 C.2   300  BL1300      0.2827
     13  OAU       -4.5670    1.5470   11.9120 O.2   300  BL1300     -0.2667
     14  NAR       -3.7590    3.3710   11.2130 N.am  300  BL1300     -0.1060
     15  NAT       -3.2420    4.6440   10.8640 N.pl3 300  BL1300     -0.2192
     16  CAI       -2.0030    4.7160   10.0830 C.3   300  BL1300      0.0986
     17  CAP       -2.1770    4.0750    8.7110 C.3   300  BL1300      0.0237
     18  CAA       -3.7830    5.9120   11.1120 C.ar  300  BL1300      0.0630
     19  CAB       -2.9520    6.8640   10.5830 C.ar  300  BL1300     -0.0056
     20  CAF       -1.7470    6.2290    9.9230 C.3   300  BL1300      0.0493
     21  CAD       -4.9710    6.2670   11.7600 C.ar  300  BL1300      0.0158
     22  CAH       -5.2920    7.6300   11.8680 C.ar  300  BL1300      0.0013
     23  CAG       -4.4250    8.5990   11.3250 C.ar  300  BL1300     -0.0002
     24  CAE       -3.2340    8.2310   10.6730 C.ar  300  BL1300     -0.0029
@<TRIPOS>BOND
     1    17    16    1
     2    20    16    1
     3    20    19    1
     4    16    15    1
     5    19    24   ar
     6    19    18   ar
     7    24    23   ar
     8    15    18    1
     9    15    14    1
    10    18    21   ar
    11    14    12   am
    12    23    22   ar
    13    21    22   ar
    14    13    12    2
    15    12    11    1
    16    11    10   ar
    17    11     6   ar
    18    10     9   ar
    19     6     5   ar
    20     9     7   ar
    21     5     7   ar
    22     5     2    1
    23     7     8    1
    24     3     2    1
    25     2     1    2
    26     2     4    2
