@<TRIPOS>MOLECULE
3bl6_FMC_A_1.pdb
 19 21 0 0 0
SMALL
GASTEIGER

@<TRIPOS>ATOM
      1  N1        16.9070   -1.4350   77.2470 N.2   229  FMC229     -0.0278
      2  C2        17.6200   -1.1360   78.3770 C.3   229  FMC229      0.3922
      3  N3        17.0960   -0.9850   79.6130 N.2   229  FMC229     -0.2155
      4  C4        15.6660   -1.1730   79.6720 C.2   229  FMC229      0.1251
      5  C5        14.8760   -1.4870   78.5460 C.2   229  FMC229      0.2111
      6  C6        15.5400   -1.6210   77.2600 C.2   229  FMC229      0.4334
      7  N6        14.8820   -1.9040   76.1400 N.pl3 229  FMC229      0.2178
      8  N7        13.5850   -1.5920   78.9600 N.2   229  FMC229     -0.1387
      9  N8        13.4990   -1.3540   80.3160 N.2   229  FMC229     -0.1480
     10  C9        14.7330   -1.0970   80.7770 C.2   229  FMC229      0.1291
     11  C1'       15.0360   -0.7700   82.2640 C.3   229  FMC229      0.1910
     12  C2'       16.4990   -0.5330   82.7620 C.3   229  FMC229      0.2173
     13  O2'       17.0490   -1.4950   83.6400 O.3   229  FMC229     -0.2173
     14  C3'       16.4770    0.8590   83.3610 C.3   229  FMC229      0.2144
     15  O3'       16.4250    0.6790   84.7900 O.3   229  FMC229     -0.2176
     16  C4'       15.2440    1.6090   82.7990 C.3   229  FMC229      0.1814
     17  O4'       14.3280    0.4570   82.6070 O.3   229  FMC229     -0.3446
     18  C5'       15.4670    2.3540   81.4090 C.3   229  FMC229      0.2141
     19  O5'       16.3350    3.4770   81.4450 O.3   229  FMC229     -0.2176
@<TRIPOS>BOND
     1     7     6    1
     2     1     6    2
     3     1     2    1
     4     6     5    1
     5     2     3    1
     6     5     8    2
     7     5     4    1
     8     8     9    1
     9     3     4    2
    10     4    10    1
    11     9    10    2
    12    10    11    1
    13    18    19    1
    14    18    16    1
    15    11    17    1
    16    11    12    1
    17    17    16    1
    18    12    14    1
    19    12    13    1
    20    16    14    1
    21    14    15    1
