@<TRIPOS>MOLECULE
3bl7_DD1_A_1.pdb
 28 31 0 0 0
SMALL
GASTEIGER

@<TRIPOS>ATOM
      1  F58        7.8920   -3.6710   17.4080 F     901  DD1901     -0.2045
      2  C1         8.8480   -2.7290   17.4260 C.ar  901  DD1901      0.1374
      3  C6        10.1800   -3.1080   17.2790 C.ar  901  DD1901      0.0294
      4  C5        11.1830   -2.1440   17.2910 C.ar  901  DD1901      0.0023
      5  C4        10.8730   -0.7920   17.4470 C.ar  901  DD1901     -0.0001
      6  C3         9.5500   -0.3640   17.6020 C.ar  901  DD1901     -0.0007
      7  C2         8.5040   -1.2860   17.6170 C.ar  901  DD1901      0.0213
      8  C13        7.0700   -0.7960   17.7580 C.3   901  DD1901      0.1014
      9  N15        6.3590   -1.0270   19.0270 N.3   901  DD1901     -0.2689
     10  C21        6.7170   -2.0790   19.9790 C.3   901  DD1901      0.0725
     11  C20        5.7510   -2.0080   21.1740 C.3   901  DD1901      0.0211
     12  C19        5.6670   -0.6070   21.7940 C.3   901  DD1901      0.0465
     13  C18        5.3660    0.4310   20.7050 C.3   901  DD1901      0.0211
     14  C17        5.2050   -0.1730   19.3120 C.3   901  DD1901      0.0725
     15  C28        4.6790   -0.5730   22.9800 C.3   901  DD1901      0.2049
     16  O30        3.5770    0.3710   22.9480 O.2   901  DD1901     -0.4788
     17  C32        3.0010    0.8600   24.1070 C.2   901  DD1901      0.1306
     18  C38        1.9820    1.9480   24.0660 C.3   901  DD1901      0.1803
     19  C45        1.5010    2.5870   22.8130 C.2   901  DD1901      0.2236
     20  N54        1.9620    2.2250   21.5980 N.pl3 901  DD1901     -0.0961
     21  N46        0.5870    3.5620   22.9030 N.2   901  DD1901     -0.3110
     22  C47        0.0860    3.9740   24.0990 C.1   901  DD1901      0.2422
     23  N56       -0.8390    4.9540   24.0940 N.pl3 901  DD1901     -0.0232
     24  N48        0.4580    3.4310   25.2880 N.2   901  DD1901     -0.3293
     25  C37        1.3810    2.4480   25.3400 C.2   901  DD1901      0.1377
     26  C36        1.7720    1.8950   26.5440 C.2   901  DD1901      0.0295
     27  C35        2.7330    0.8840   26.5450 C.2   901  DD1901      0.0051
     28  C34        3.3300    0.3840   25.3720 C.2   901  DD1901      0.0333
@<TRIPOS>BOND
     1     3     4   ar
     2     3     2   ar
     3     4     5   ar
     4     1     2    1
     5     2     7   ar
     6     5     6   ar
     7     6     7   ar
     8     7     8    1
     9     8     9    1
    10     9    14    1
    11     9    10    1
    12    14    13    1
    13    10    11    1
    14    13    12    1
    15    11    12    1
    16    20    19    1
    17    12    15    1
    18    19    21    2
    19    19    18    1
    20    21    22    2
    21    16    15    1
    22    16    17    1
    23    18    17    1
    24    18    25    1
    25    23    22    1
    26    22    24    2
    27    17    28    2
    28    24    25    2
    29    25    26    1
    30    28    27    1
    31    26    27    2
