@<TRIPOS>MOLECULE
3bl9_DD2_A_1.pdb
 29 32 0 0 0
SMALL
GASTEIGER

@<TRIPOS>ATOM
      1  C1         4.2120    6.2910  -11.2340 C.ar  901  DD2901      0.0655
      2  C2         3.0050    7.0990  -11.3970 C.ar  901  DD2901      0.0053
      3  C3         3.1170    8.4780  -11.3010 C.ar  901  DD2901     -0.0020
      4  C4         4.3480    9.0930  -11.0900 C.ar  901  DD2901      0.0006
      5  C5         5.5230    8.3640  -10.9520 C.ar  901  DD2901      0.0122
      6  C6         5.4770    6.9880  -11.0160 C.ar  901  DD2901      0.0679
      7  C9         1.6780    6.3940  -11.5910 C.3   901  DD2901      0.1000
      8  C11        0.5370    4.9820  -13.2250 C.3   901  DD2901      0.0725
      9  C14        0.6320    7.1580  -15.2080 C.3   901  DD2901      0.0211
     10  C15        1.3300    7.4010  -13.8580 C.3   901  DD2901      0.0725
     11  O17       -2.0690    4.9610  -16.5950 O.2   901  DD2901     -0.4788
     12  C18       -2.5570    4.5350  -17.8110 C.2   901  DD2901      0.1306
     13  C19       -2.1800    5.1270  -19.0130 C.2   901  DD2901      0.0333
     14  C20       -2.7330    4.6890  -20.2310 C.2   901  DD2901      0.0051
     15  C21       -3.6370    3.6550  -20.2910 C.2   901  DD2901      0.0295
     16  C22       -4.0570    3.0100  -19.1560 C.2   901  DD2901      0.1377
     17  C24       -4.0260    2.7350  -16.6340 C.2   901  DD2901      0.2236
     18  C26       -5.3060    1.3740  -18.0760 C.1   901  DD2901      0.2422
     19 CL8         4.1770    4.5060  -11.3720 Cl    901  DD2901     -0.0816
     20 CL7         6.9260    5.9900  -10.8370 Cl    901  DD2901     -0.0814
     21  N10        1.2150    6.2550  -12.9560 N.3   901  DD2901     -0.2689
     22  C13       -0.5230    6.1630  -15.1770 C.3   901  DD2901      0.0465
     23  C12        0.0090    4.8450  -14.6510 C.3   901  DD2901      0.0211
     24  C16       -1.0080    5.9080  -16.5960 C.3   901  DD2901      0.2049
     25  C23       -3.5320    3.4390  -17.8370 C.3   901  DD2901      0.1803
     26  N29       -3.6110    3.0390  -15.3840 N.pl3 901  DD2901     -0.0961
     27  N25       -4.8780    1.7190  -16.8220 N.2   901  DD2901     -0.3110
     28  N28       -6.1910    0.3720  -18.1810 N.pl3 901  DD2901     -0.0232
     29  N27       -4.9390    2.0060  -19.2100 N.2   901  DD2901     -0.3293
@<TRIPOS>BOND
     1    15    14    2
     2    15    16    1
     3    14    13    1
     4    29    16    2
     5    29    18    2
     6    16    25    1
     7    13    12    2
     8    28    18    1
     9    18    27    2
    10    25    12    1
    11    25    17    1
    12    12    11    1
    13    27    17    2
    14    17    26    1
    15    24    11    1
    16    24    22    1
    17     9    22    1
    18     9    10    1
    19    22    23    1
    20    23     8    1
    21    10    21    1
    22     8    21    1
    23    21     7    1
    24     7     2    1
    25     2     3   ar
    26     2     1   ar
    27    19     1    1
    28     3     4   ar
    29     1     6   ar
    30     4     5   ar
    31     6     5   ar
    32     6    20    1
