@<TRIPOS>MOLECULE
3bla_DD3_A_1.pdb
 22 24 0 0 0
SMALL
GASTEIGER

@<TRIPOS>ATOM
      1  C14        5.2650   -0.0070   22.5200 C.ar    1  DD31        0.0180
      2  C13        3.7140   -0.0930   20.6220 C.3     1  DD31        0.0523
      3  C12        3.8360    0.0260   22.1340 C.3     1  DD31        0.1878
      4  C17        7.9520   -0.1080   23.2770 C.ar    1  DD31        0.0114
      5  C16        7.4030    1.0770   22.8080 C.ar    1  DD31        0.0575
      6  C15        6.0620    1.1340   22.4290 C.ar    1  DD31        0.0106
      7  N3         0.3140    4.3310   22.9700 N.2     1  DD31       -0.3110
      8  C10        2.7870    1.5540   23.7860 C.2     1  DD31        0.1309
      9  C8         2.6910    1.3010   26.2000 C.2     1  DD31        0.0051
     10  C7         1.7320    2.3060   26.3370 C.2     1  DD31        0.0295
     11  C5         1.7730    2.6290   23.8940 C.3     1  DD31        0.1803
     12  C4         1.2330    3.3770   22.7330 C.2     1  DD31        0.2236
     13  C19        5.8170   -1.1980   22.9900 C.ar    1  DD31       -0.0008
     14  C9         3.2160    0.9260   24.9630 C.2     1  DD31        0.0333
     15 CL2         8.4420    2.5340   22.6950 Cl      1  DD31       -0.0823
     16  C18        7.1630   -1.2530   23.3570 C.ar    1  DD31        0.0007
     17  O11        3.2550    1.2590   22.5320 O.2     1  DD31       -0.4781
     18  C6         1.2460    2.9930   25.2270 C.2     1  DD31        0.1377
     19  N1         0.3100    3.9740   25.3150 N.2     1  DD31       -0.3293
     20  N22        1.6140    3.1680   21.4550 N.pl3   1  DD31       -0.0961
     21  C2        -0.1340    4.6170   24.2080 C.1     1  DD31        0.2422
     22  N21       -1.0590    5.5900   24.2900 N.pl3   1  DD31       -0.0232
@<TRIPOS>BOND
     1     2     3    1
     2    20    12    1
     3     3     1    1
     4     3    17    1
     5     6     1   ar
     6     6     5   ar
     7     1    13   ar
     8    17     8    1
     9    15     5    1
    10    12     7    2
    11    12    11    1
    12     5     4   ar
    13     7    21    2
    14    13    16   ar
    15     4    16   ar
    16     8    11    1
    17     8    14    2
    18    11    18    1
    19    21    22    1
    20    21    19    2
    21    14     9    1
    22    18    19    2
    23    18    10    1
    24     9    10    2
