@<TRIPOS>MOLECULE
3blb_SWA_A_1.pdb
 12 13 0 0 0
SMALL
GASTEIGER

@<TRIPOS>ATOM
      1  C1        31.0370   66.7060    6.1720 C.3   1048  SWA1048     0.1691
      2  O1        31.4730   67.8890    5.5100 O.3   1048  SWA1048    -0.2216
      3  C3        31.3340   66.8530    7.6430 C.3   1048  SWA1048     0.1214
      4  N4        30.8260   65.6390    8.3140 N.3   1048  SWA1048    -0.2674
      5  C5        29.3630   65.5240    8.1890 C.3   1048  SWA1048     0.0724
      6  C6        29.0880   65.3700    6.7090 C.3   1048  SWA1048     0.0200
      7  C2        29.5450   66.5670    5.8990 C.3   1048  SWA1048     0.0358
      8  C9        31.2920   65.8880    9.6900 C.3   1048  SWA1048     0.1082
      9  C8        32.7010   66.4160    9.4750 C.3   1048  SWA1048     0.1994
     10  O13       33.6100   65.3280    9.7360 O.3   1048  SWA1048    -0.2189
     11  C7        32.7980   66.9550    8.0520 C.3   1048  SWA1048     0.2004
     12  O11       33.6640   66.1120    7.2790 O.3   1048  SWA1048    -0.2188
@<TRIPOS>BOND
     1     2     1    1
     2     7     1    1
     3     7     6    1
     4     1     3    1
     5     6     5    1
     6    12    11    1
     7     3    11    1
     8     3     4    1
     9    11     9    1
    10     5     4    1
    11     4     8    1
    12     9     8    1
    13     9    10    1
