@<TRIPOS>MOLECULE
3bld_PRF_A_1.pdb
 13 14 0 0 0
SMALL
GASTEIGER

@<TRIPOS>ATOM
      1  N1        16.8240   16.9010   23.7280 N.2   700  PRF700     -0.2490
      2  C2        15.5090   16.6050   23.3990 C.1   700  PRF700      0.2607
      3  N3        15.0510   16.4480   22.1890 N.2   700  PRF700     -0.2698
      4  C4        16.0860   16.6200   21.1570 C.1   700  PRF700      0.1086
      5  C5        17.3780   16.9060   21.3850 C.2   700  PRF700      0.1649
      6  C6        17.8000   17.0650   22.7930 C.1   700  PRF700      0.2257
      7  O6        18.9740   17.3290   23.0820 O.2   700  PRF700     -0.2079
      8  C7        17.9810   16.9720   20.0800 C.2   700  PRF700      0.0222
      9  C10       19.4290   17.2670   19.7730 C.3   700  PRF700      0.1348
     10  N11       19.6860   17.1940   18.3290 N.3   700  PRF700     -0.1265
     11  C8        17.0090   16.7210   19.1750 C.3   700  PRF700      0.1624
     12  N9        15.7970   16.4930   19.8290 N.2   700  PRF700     -0.2042
     13  N2        14.6330   16.4660   24.3980 N.pl3 700  PRF700     -0.0220
@<TRIPOS>BOND
     1    10     9    1
     2    11    12    1
     3    11     8    1
     4     9     8    1
     5    12     4    2
     6     8     5    2
     7     4     5    1
     8     4     3    2
     9     5     6    1
    10     3     2    2
    11     6     7    2
    12     6     1    2
    13     2     1    2
    14     2    13    1
