@<TRIPOS>MOLECULE
3blk_AGL_A_1.pdb
 10 10 0 0 0
SMALL
GASTEIGER

@<TRIPOS>ATOM
      1  C1         1.6350   41.2150   24.3480 C.3   502  AGL502      0.1775
      2  C2         1.9680   40.6450   25.7240 C.3   502  AGL502      0.2130
      3  C3         2.7960   39.3750   25.4940 C.3   502  AGL502      0.2044
      4  C4         2.0560   38.3980   24.5800 C.3   502  AGL502      0.1517
      5  C5         1.7510   39.0960   23.2430 C.3   502  AGL502      0.1355
      6  C6         1.0240   38.1690   22.2770 C.3   502  AGL502      0.0337
      7  O2         2.7220   41.6820   26.3790 O.3   502  AGL502     -0.2177
      8  O3         3.1580   38.7170   26.7170 O.3   502  AGL502     -0.2187
      9  N4         2.8910   37.2370   24.3370 N.3   502  AGL502     -0.1276
     10  O5         0.9680   40.2760   23.5030 O.3   502  AGL502     -0.3519
@<TRIPOS>BOND
     1     6     5    1
     2     5    10    1
     3     5     4    1
     4    10     1    1
     5     9     4    1
     6     1     2    1
     7     4     3    1
     8     3     2    1
     9     3     8    1
    10     2     7    1
