@<TRIPOS>MOLECULE
3blk_HMC_A_1.pdb
 11 11 0 0 0
SMALL
GASTEIGER

@<TRIPOS>ATOM
      1  C1         7.5730   47.1360   19.0950 C.3   504  HMC504      0.0612
      2  C2         6.3720   48.0780   19.3590 C.3   504  HMC504      0.1893
      3  O2         6.7540   49.4520   19.4680 O.3   504  HMC504     -0.2200
      4  C3         5.7210   47.5260   20.6160 C.3   504  HMC504      0.2165
      5  O3         4.9120   48.4700   21.3000 O.3   504  HMC504     -0.2173
      6  C4         4.8980   46.2780   20.2300 C.3   504  HMC504      0.2052
      7  O4         4.8530   45.4030   21.3790 O.3   504  HMC504     -0.2157
      8  C5         5.5680   45.5760   19.0860 C.2   504  HMC504      0.0167
      9  C6         6.7520   45.9530   18.5660 C.2   504  HMC504     -0.0269
     10  C7         4.8640   44.3930   18.4790 C.3   504  HMC504      0.2066
     11  O7         3.7350   44.9320   17.7690 O.3   504  HMC504     -0.2155
@<TRIPOS>BOND
     1    11    10    1
     2    10     8    1
     3     9     8    2
     4     9     1    1
     5     8     6    1
     6     1     2    1
     7     2     3    1
     8     2     4    1
     9     6     4    1
    10     6     7    1
    11     4     5    1
