@<TRIPOS>MOLECULE
3blk_GLC_A_1.pdb
 11 11 0 0 0
SMALL
GASTEIGER

@<TRIPOS>ATOM
      1  C1         3.8330   45.5920   22.2340 C.3   503  GLC503      0.1777
      2  C2         4.1640   45.2570   23.7090 C.3   503  GLC503      0.2141
      3  C3         4.1180   43.7440   23.9970 C.3   503  GLC503      0.2173
      4  C4         2.8150   43.1320   23.4810 C.3   503  GLC503      0.2142
      5  C5         2.7230   43.4620   21.9680 C.3   503  GLC503      0.1810
      6  C6         1.5050   42.8970   21.2210 C.3   503  GLC503      0.2141
      7  O2         5.4570   45.7200   24.0150 O.3   503  GLC503     -0.2176
      8  O3         4.3050   43.4900   25.3770 O.3   503  GLC503     -0.2175
      9  O4         2.8270   41.7030   23.6920 O.3   503  GLC503     -0.2176
     10  O5         2.6710   44.8610   21.8040 O.3   503  GLC503     -0.3481
     11  O6         0.2770   43.2280   21.8660 O.3   503  GLC503     -0.2176
@<TRIPOS>BOND
     1     6    11    1
     2     6     5    1
     3    10     5    1
     4    10     1    1
     5     5     4    1
     6     1     2    1
     7     4     9    1
     8     4     3    1
     9     2     3    1
    10     2     7    1
    11     3     8    1
