@<TRIPOS>MOLECULE
3bll_BPQ_A_1.pdb
 20 21 0 0 0
SMALL
GASTEIGER

@<TRIPOS>ATOM
      1  C2        15.6180   16.4920   23.4680 C.1   700  BPQ700      0.2602
      2  N1        16.8390   16.9200   23.7470 N.2   700  BPQ700     -0.2525
      3  C6        17.7780   17.1640   22.8540 C.1   700  BPQ700      0.2101
      4  O6        18.9140   17.5660   23.1630 O.2   700  BPQ700     -0.2120
      5  C5        17.3920   16.9280   21.4520 C.3   700  BPQ700      0.2374
      6  C7        17.9780   17.0200   20.1110 C.2   700  BPQ700      0.0285
      7  C10       19.3720   17.4550   19.7300 C.3   700  BPQ700      0.1445
      8  N11       19.7300   18.7860   20.1830 N.am  700  BPQ700     -0.1641
      9  C8        17.0210   16.6350   19.2420 C.2   700  BPQ700      0.1056
     10  N9        15.9480   16.3310   19.9420 N.2   700  BPQ700     -0.1847
     11  C4        16.1680   16.5020   21.2110 C.1   700  BPQ700      0.0974
     12  N3        15.2240   16.2690   22.2760 N.2   700  BPQ700     -0.2733
     13  N2        14.7800   16.2900   24.4550 N.pl3 700  BPQ700     -0.0221
     14  C14       20.3120   19.7030   19.3790 C.2   700  BPQ700      0.4212
     15  O15       20.6490   19.4770   18.2280 O.2   700  BPQ700     -0.2246
     16  C20       22.3560   21.6670   18.5550 C.3   700  BPQ700      0.0437
     17  C17       21.0180   22.0030   19.2840 C.3   700  BPQ700      0.1379
     18  C19       21.3490   23.0260   20.4090 C.3   700  BPQ700      0.0437
     19  C18       19.9990   22.6400   18.2930 C.3   700  BPQ700      0.0437
     20  O16       20.4670   20.8800   19.9930 O.3   700  BPQ700     -0.4408
@<TRIPOS>BOND
     1    15    14    2
     2    19    17    1
     3    16    17    1
     4     9    10    1
     5     9     6    2
     6    17    20    1
     7    17    18    1
     8    14    20    1
     9    14     8   am
    10     7     6    1
    11     7     8    1
    12    10    11    2
    13     6     5    1
    14    11     5    1
    15    11    12    2
    16     5     3    1
    17    12     1    2
    18     3     4    2
    19     3     2    2
    20     1     2    2
    21     1    13    1
