@<TRIPOS>MOLECULE
3blo_QEI_A_1.pdb
 20 22 0 0 0
SMALL
GASTEIGER

@<TRIPOS>ATOM
      1  C1        20.6790   21.1030   19.0480 C.3   600  QEI600      0.1061
      2  C2        20.7910   22.4250   19.8530 C.3   600  QEI600      0.1979
      3  C3        19.6820   21.4840   17.9680 C.3   600  QEI600      0.0228
      4  C4        19.6460   23.3230   19.3980 C.3   600  QEI600      0.1836
      5  C5        19.1660   22.6960   18.1140 C.3   600  QEI600      0.0371
      6  C6        20.2130   18.4860   19.5250 C.3   600  QEI600      0.1145
      7  C9        18.0450   18.0430   20.8950 C.3   600  QEI600      0.2371
      8  C10       16.7050   17.7430   20.4400 C.1   600  QEI600      0.0973
      9  C11       18.2900   18.1290   22.3370 C.1   600  QEI600      0.2101
     10  O1        22.0000   23.1280   19.5690 O.3   600  QEI600     -0.2189
     11  O2        20.1580   24.6150   19.1470 O.3   600  QEI600     -0.2204
     12  N1        20.0630   19.9670   19.8100 N.3   600  QEI600     -0.2122
     13  C7        18.7820   18.1790   19.6530 C.2   600  QEI600      0.0242
     14  C8        17.9060   17.9680   18.5970 C.2   600  QEI600      0.1052
     15  N2        16.6920   17.7170   19.0840 N.2   600  QEI600     -0.1847
     16  N3        15.7800   17.5620   21.4120 N.2   600  QEI600     -0.2733
     17  C12       16.0510   17.6510   22.7220 C.1   600  QEI600      0.2602
     18  N5        14.9610   17.9520   23.4710 N.pl3 600  QEI600     -0.0221
     19  N4        17.2900   17.9300   23.1870 N.2   600  QEI600     -0.2525
     20  O3        19.3950   18.3730   22.7520 O.2   600  QEI600     -0.2120
@<TRIPOS>BOND
     1     3     5    1
     2     3     1    1
     3     5     4    1
     4    14    15    1
     5    14    13    2
     6     1    12    1
     7     1     2    1
     8    15     8    2
     9    11     4    1
    10     4     2    1
    11     6    13    1
    12     6    12    1
    13    10     2    1
    14    13     7    1
    15     8     7    1
    16     8    16    2
    17     7     9    1
    18    16    17    2
    19     9    20    2
    20     9    19    2
    21    17    19    2
    22    17    18    1
