@<TRIPOS>MOLECULE
3blp_GLC_X_1.pdb
 11 11 0 0 0
SMALL
GASTEIGER

@<TRIPOS>ATOM
      1  C1         3.9580   45.4950   22.1640 C.3   503  GLC503      0.1777
      2  C2         4.2920   45.1640   23.6320 C.3   503  GLC503      0.2141
      3  C3         4.2470   43.6490   23.8750 C.3   503  GLC503      0.2173
      4  C4         2.9320   43.0730   23.3550 C.3   503  GLC503      0.2142
      5  C5         2.8040   43.4660   21.8700 C.3   503  GLC503      0.1810
      6  C6         1.5810   42.9320   21.1400 C.3   503  GLC503      0.2141
      7  O2         5.5750   45.6560   23.9530 O.3   503  GLC503     -0.2176
      8  O3         4.4400   43.3440   25.2460 O.3   503  GLC503     -0.2175
      9  O4         2.9610   41.6520   23.4820 O.3   503  GLC503     -0.2176
     10  O5         2.7440   44.8760   21.7690 O.3   503  GLC503     -0.3481
     11  O6         0.4370   43.2020   21.9060 O.3   503  GLC503     -0.2176
@<TRIPOS>BOND
     1     6     5    1
     2     6    11    1
     3    10     5    1
     4    10     1    1
     5     5     4    1
     6     1     2    1
     7     4     9    1
     8     4     3    1
     9     2     3    1
    10     2     7    1
    11     3     8    1
