@<TRIPOS>MOLECULE
3blp_AGL_X_1.pdb
 10 10 0 0 0
SMALL
GASTEIGER

@<TRIPOS>ATOM
      1  C1         1.8160   41.1230   24.1820 C.3   502  AGL502      0.1775
      2  C2         2.1650   40.5430   25.5490 C.3   502  AGL502      0.2130
      3  C3         2.9910   39.2620   25.3960 C.3   502  AGL502      0.2044
      4  C4         2.2660   38.2530   24.4910 C.3   502  AGL502      0.1517
      5  C5         1.9110   38.9220   23.1550 C.3   502  AGL502      0.1355
      6  C6         1.0440   38.0270   22.2780 C.3   502  AGL502      0.0337
      7  O2         2.8800   41.5420   26.2820 O.3   502  AGL502     -0.2177
      8  O3         3.2160   38.6860   26.6850 O.3   502  AGL502     -0.2187
      9  N4         3.0950   37.0680   24.2840 N.3   502  AGL502     -0.1276
     10  O5         1.1720   40.1290   23.3920 O.3   502  AGL502     -0.3519
@<TRIPOS>BOND
     1     6     5    1
     2     5    10    1
     3     5     4    1
     4    10     1    1
     5     1     2    1
     6     9     4    1
     7     4     3    1
     8     3     2    1
     9     3     8    1
    10     2     7    1
