@<TRIPOS>MOLECULE
3blp_HMC_X_1.pdb
 11 11 0 0 0
SMALL
GASTEIGER

@<TRIPOS>ATOM
      1  C1         7.5910   47.0480   19.0090 C.3   504  HMC504      0.0612
      2  C2         6.4980   48.0610   19.3720 C.3   504  HMC504      0.1893
      3  O2         7.0220   49.3640   19.6380 O.3   504  HMC504     -0.2200
      4  C3         5.7990   47.4800   20.5880 C.3   504  HMC504      0.2165
      5  O3         4.9880   48.4410   21.2980 O.3   504  HMC504     -0.2173
      6  C4         4.9850   46.2760   20.1170 C.3   504  HMC504      0.2052
      7  O4         4.8730   45.3440   21.1990 O.3   504  HMC504     -0.2157
      8  C5         5.6070   45.5320   18.9580 C.2   504  HMC504      0.0167
      9  C6         6.7870   45.8930   18.4220 C.2   504  HMC504     -0.0269
     10  C7         4.8570   44.3520   18.3870 C.3   504  HMC504      0.2066
     11  O7         3.9630   44.9130   17.4150 O.3   504  HMC504     -0.2155
@<TRIPOS>BOND
     1    11    10    1
     2    10     8    1
     3     9     8    2
     4     9     1    1
     5     8     6    1
     6     1     2    1
     7     2     3    1
     8     2     4    1
     9     6     4    1
    10     6     7    1
    11     4     5    1
