@<TRIPOS>MOLECULE
3blq_ATP_A_1.pdb
 31 33 0 0 0
SMALL
GASTEIGER

@<TRIPOS>ATOM
      1  PG        46.1280  -23.1010   -9.8140 P.3   332  ATP332      0.5373
      2  O1G       46.3360  -24.5920   -9.9390 O.3   332  ATP332     -0.1143
      3  O2G       46.5980  -22.5370   -8.4940 O.3   332  ATP332     -0.1143
      4  O3G       44.7810  -22.5930  -10.2760 O.2   332  ATP332     -0.2221
      5  PB        47.3350  -23.1960  -12.3400 P.3   332  ATP332      0.2277
      6  O1B       48.4560  -24.2280  -12.2560 O.3   332  ATP332     -0.4368
      7  O2B       45.9500  -23.6070  -12.7850 O.2   332  ATP332     -0.5168
      8  O3B       47.1440  -22.4930  -10.9030 O.3   332  ATP332     -0.2258
      9  PA        48.3780  -20.5450  -12.8170 P.3   332  ATP332      0.2189
     10  O1A       47.6680  -19.4750  -13.6090 O.2   332  ATP332     -0.5170
     11  O2A       48.3590  -20.4410  -11.3100 O.3   332  ATP332     -0.4371
     12  O3A       47.7280  -21.9490  -13.2950 O.3   332  ATP332     -0.2700
     13  O5'       49.9180  -20.5840  -13.3100 O.3   332  ATP332     -0.3112
     14  C5'       50.7110  -21.7690  -13.2310 C.3   332  ATP332      0.1813
     15  C4'       52.2030  -21.4340  -13.2710 C.3   332  ATP332      0.1821
     16  O4'       52.4080  -20.1490  -13.8710 O.3   332  ATP332     -0.3135
     17  C3'       52.8400  -21.4040  -11.8810 C.3   332  ATP332      0.2184
     18  O3'       53.8420  -22.4310  -11.7630 O.3   332  ATP332     -0.2174
     19  C2'       53.4460  -20.0150  -11.7450 C.3   332  ATP332      0.2570
     20  O2'       54.7770  -20.0620  -11.2100 O.3   332  ATP332     -0.2130
     21  C1'       53.4140  -19.4270  -13.1550 C.3   332  ATP332      0.3186
     22  N9        53.0540  -17.9880  -13.1040 N.pl3 332  ATP332     -0.1439
     23  C8        51.7990  -17.5090  -13.1000 C.3   332  ATP332      0.3377
     24  N7        51.7830  -16.1540  -13.0450 N.2   332  ATP332     -0.2095
     25  C5        53.0590  -15.7420  -13.0110 C.2   332  ATP332      0.2526
     26  C6        53.7430  -14.4330  -12.9470 C.2   332  ATP332      0.4393
     27  N6        53.0270  -13.2810  -12.9050 N.pl3 332  ATP332      0.2180
     28  N1        55.0940  -14.4360  -12.9330 N.2   332  ATP332      0.0021
     29  C2        55.8010  -15.5790  -12.9700 C.3   332  ATP332      0.5254
     30  N3        55.2420  -16.8020  -13.0290 N.2   332  ATP332     -0.0055
     31  C4        53.8960  -16.9510  -13.0520 C.2   332  ATP332      0.3518
@<TRIPOS>BOND
     1    16    15    1
     2    16    21    1
     3    10     9    2
     4    13    14    1
     5    13     9    1
     6    12     9    1
     7    12     5    1
     8    15    14    1
     9    15    17    1
    10    21    22    1
    11    21    19    1
    12    22    23    1
    13    22    31    1
    14    23    24    1
    15    31    30    2
    16    31    25    1
    17    24    25    2
    18    30    29    1
    19    25    26    1
    20    29    28    1
    21    26    28    2
    22    26    27    1
    23     9    11    1
    24     7     5    2
    25     5     6    1
    26     5     8    1
    27    17    18    1
    28    17    19    1
    29    19    20    1
    30     8     1    1
    31     4     1    2
    32     2     1    1
    33     1     3    1
