@<TRIPOS>MOLECULE
3blr_CPB_A_1.pdb
 28 31 0 0 0
SMALL
GASTEIGER

@<TRIPOS>ATOM
      1  C1        49.4980  -21.3640  -10.7920 C.3   940  CPB940      0.0897
      2  N1        50.2020  -20.2380  -11.3840 N.3   940  CPB940     -0.2693
      3  C16       50.9700  -19.3940  -10.4650 C.3   940  CPB940      0.0726
      4  C15       50.8570  -17.9390  -10.8980 C.3   940  CPB940      0.0245
      5  C14       51.2170  -17.8200  -12.3680 C.3   940  CPB940      0.0617
      6  C13       50.1790  -18.5560  -13.2110 C.3   940  CPB940      0.1720
      7  C12       50.1310  -20.0360  -12.8400 C.3   940  CPB940      0.1057
      8  C8        51.4840  -16.3970  -12.7500 C.ar  940  CPB940      0.0537
      9  C9        52.8130  -16.0660  -12.9980 C.ar  940  CPB940      0.1505
     10  O1        53.7580  -17.0500  -12.9140 O.2   940  CPB940     -0.4534
     11  C2        55.0780  -16.8140  -13.1680 C.ar  940  CPB940      0.1492
     12  C3        55.5330  -15.5430  -13.4920 C.ar  940  CPB940      0.0797
     13  C4        54.6270  -14.5020  -13.5910 C.ar  940  CPB940      0.2047
     14  O4        55.0230  -13.3640  -13.8940 O.2   940  CPB940     -0.2862
     15  C10       53.1910  -14.7740  -13.3310 C.ar  940  CPB940      0.1122
     16  C5        52.2280  -13.7770  -13.4060 C.ar  940  CPB940      0.2049
     17  O5        52.5790  -12.5040  -13.7320 O.3   940  CPB940     -0.2862
     18  C6        50.8990  -14.0910  -13.1480 C.ar  940  CPB940      0.0840
     19  C7        50.5220  -15.3850  -12.8020 C.ar  940  CPB940      0.1979
     20  O7        49.2040  -15.6190  -12.5610 O.3   940  CPB940     -0.2867
     21  C21       56.0370  -17.9290  -12.9960 C.ar  940  CPB940      0.0452
     22  C22       55.6820  -19.2670  -13.1310 C.ar  940  CPB940      0.0606
     23 CL1        54.0340  -19.7670  -13.6430 Cl    940  CPB940     -0.0821
     24  C23       56.6420  -20.2480  -12.8930 C.ar  940  CPB940      0.0115
     25  C24       57.9290  -19.8950  -12.5010 C.ar  940  CPB940      0.0009
     26  C25       58.2720  -18.5590  -12.3330 C.ar  940  CPB940      0.0002
     27  C26       57.3160  -17.5810  -12.5690 C.ar  940  CPB940      0.0039
     28  O3        48.8760  -18.0110  -13.0010 O.3   940  CPB940     -0.2213
@<TRIPOS>BOND
     1    14    13    2
     2    17    16    1
     3    23    22    1
     4    13    12   ar
     5    13    15   ar
     6    12    11   ar
     7    16    15   ar
     8    16    18   ar
     9    15     9   ar
    10     6    28    1
    11     6     7    1
    12     6     5    1
    13    11    21    1
    14    11    10   ar
    15    18    19   ar
    16    22    21   ar
    17    22    24   ar
    18     9    10   ar
    19     9     8   ar
    20    21    27   ar
    21    24    25   ar
    22     7     2    1
    23    19     8   ar
    24    19    20    1
    25     8     5    1
    26    27    26   ar
    27    25    26   ar
    28     5     4    1
    29     2     1    1
    30     2     3    1
    31     4     3    1
