@<TRIPOS>MOLECULE
3bls_APB_A_1.pdb
 10 10 0 0 0
SMALL
GASTEIGER

@<TRIPOS>ATOM
      1  B         25.9850    5.0530   17.2460 B     362  APB362      0.0000
      2  O1        24.8500    4.0710   16.6920 O.3   362  APB362      0.0000
      3  O2        25.8890    6.5390   16.4900 O.3   362  APB362      0.0000
      4  C1        25.6670    5.3220   18.8640 C.ar  362  APB362      0.0000
      5  C2        24.5100    4.7770   19.4230 C.ar  362  APB362      0.0000
      6  C3        24.1640    5.0260   20.7530 C.ar  362  APB362      0.0000
      7  C4        24.9780    5.8940   21.4860 C.ar  362  APB362      0.0000
      8  C5        26.1200    6.4690   20.9190 C.ar  362  APB362      0.0000
      9  C6        26.4510    6.2120   19.5910 C.ar  362  APB362      0.0000
     10  N1        23.0300    4.4630   21.2920 N.pl3 362  APB362      0.0000
@<TRIPOS>BOND
     1     3     1    1
     2     2     1    1
     3     1     4    1
     4     4     5   ar
     5     4     9   ar
     6     5     6   ar
     7     9     8   ar
     8     6    10    1
     9     6     7   ar
    10     8     7   ar
