@<TRIPOS>MOLECULE
3blt_PSY_A_1.pdb
 12 12 0 0 0
SMALL
GASTEIGER

@<TRIPOS>ATOM
      1  C1        22.6090   37.7660   73.8410 C.ar  501  PSY501      0.0002
      2  C2        21.8620   38.4300   72.8160 C.ar  501  PSY501      0.0032
      3  C3        21.9000   36.9370   74.7550 C.ar  501  PSY501      0.0032
      4  C4        20.4430   38.2660   72.7160 C.ar  501  PSY501      0.0398
      5  C5        20.4870   36.7670   74.6580 C.ar  501  PSY501      0.0398
      6  C6        19.7470   37.4300   73.6380 C.ar  501  PSY501      0.1714
      7  O1        18.3350   37.2830   73.5440 O.3   501  PSY501     -0.3605
      8  S         17.4270   35.9750   73.8350 S.3   501  PSY501      0.0303
      9  O2        15.9840   36.2980   73.5980 O.3   501  PSY501     -0.0616
     10  O3        17.7740   34.8970   72.9550 O.3   501  PSY501     -0.0616
     11  C7        17.5270   35.4470   75.3290 C.3   501  PSY501      0.1670
     12  C8        16.2030   35.3820   76.0830 C.3   501  PSY501      0.0287
@<TRIPOS>BOND
     1     4     2   ar
     2     4     6   ar
     3     2     1   ar
     4    10     8    1
     5     7     6    1
     6     7     8    1
     7     9     8    1
     8     6     5   ar
     9     8    11    1
    10     1     3   ar
    11     5     3   ar
    12    11    12    1
