@<TRIPOS>MOLECULE
3blu_PVS_A_1.pdb
 11 11 0 0 0
SMALL
GASTEIGER

@<TRIPOS>ATOM
      1  S         18.0480   35.1940   73.2850 S.O2  501  PVS501      0.0087
      2  O1        17.2400   36.3440   73.0290 O.2   501  PVS501     -0.1686
      3  O2        17.9250   34.3040   72.1610 O.2   501  PVS501     -0.1686
      4  C7        17.5530   34.5340   74.4340 C.3   501  PVS501      0.1560
      5  C1        19.6790   35.7470   73.4340 C.ar  501  PVS501      0.1057
      6  C2        20.3170   36.4480   72.3610 C.ar  501  PVS501      0.0183
      7  C3        21.6640   36.9300   72.4590 C.ar  501  PVS501      0.0013
      8  C4        22.4170   36.7170   73.6500 C.ar  501  PVS501      0.0001
      9  C5        21.8020   36.0170   74.7350 C.ar  501  PVS501      0.0013
     10  C6        20.4490   35.5380   74.6200 C.ar  501  PVS501      0.0183
     11  C8        15.8330   34.2340   74.3700 C.3   501  PVS501      0.0276
@<TRIPOS>BOND
     1     3     1    2
     2     6     7   ar
     3     6     5   ar
     4     7     8   ar
     5     2     1    2
     6     1     5    1
     7     1     4    1
     8     5    10   ar
     9     8     9   ar
    10    11     4    1
    11    10     9   ar
