@<TRIPOS>MOLECULE
3blv_FLC_A_1.pdb
 13 12 0 0 0
SMALL
GASTEIGER

@<TRIPOS>ATOM
      1  CAC       41.7220   30.3470   11.4440 C.2   1001  FLC1001     0.3680
      2  CA        42.5820   31.0600   10.3850 C.3   1001  FLC1001     0.1560
      3  CB        42.8580   32.5320   10.8170 C.3   1001  FLC1001     0.2402
      4  CBC       43.4120   32.5800   12.2550 C.2   1001  FLC1001     0.3927
      5  CG        43.9320   33.1620    9.8820 C.3   1001  FLC1001     0.1560
      6  CGC       43.5480   34.6020    9.4570 C.2   1001  FLC1001     0.3680
      7  OA1       41.1420   31.0720   12.5030 O.co2 1001  FLC1001    -0.2455
      8  OA2       41.7180   29.1630   11.4850 O.co2 1001  FLC1001    -0.2455
      9  OB1       42.5840   33.0070   13.3100 O.co2 1001  FLC1001    -0.2429
     10  OB2       44.5470   32.3270   12.4770 O.co2 1001  FLC1001    -0.2429
     11  OG1       42.7070   35.3470   10.3070 O.co2 1001  FLC1001    -0.2455
     12  OG2       44.2700   35.1850    8.7140 O.co2 1001  FLC1001    -0.2455
     13  OHB       41.6980   33.3340   10.8860 O.3   1001  FLC1001    -0.2129
@<TRIPOS>BOND
     1    12     6   ar
     2     6     5    1
     3     6    11   ar
     4     5     3    1
     5     2     3    1
     6     2     1    1
     7     3    13    1
     8     3     4    1
     9     1     8   ar
    10     1     7   ar
    11     4    10   ar
    12     4     9   ar
