@<TRIPOS>MOLECULE
3blw_FLC_A_1.pdb
 13 12 0 0 0
SMALL
GASTEIGER

@<TRIPOS>ATOM
      1  CAC      -17.1340    4.1970    9.0860 C.2   1001  FLC1001     0.3680
      2  CA       -15.7380    3.5460    9.1940 C.3   1001  FLC1001     0.1560
      3  CB       -15.7500    2.1630    8.4740 C.3   1001  FLC1001     0.2402
      4  CBC      -16.7250    2.2160    7.2810 C.2   1001  FLC1001     0.3927
      5  CG       -14.3170    1.8270    7.9580 C.3   1001  FLC1001     0.1560
      6  CGC      -13.6960    0.7080    8.8410 C.2   1001  FLC1001     0.3680
      7  OA1      -18.2860    3.3870    9.1470 O.co2 1001  FLC1001    -0.2455
      8  OA2      -17.2390    5.3820    9.0290 O.co2 1001  FLC1001    -0.2455
      9  OB1      -18.0480    1.7670    7.4450 O.co2 1001  FLC1001    -0.2429
     10  OB2      -16.3460    2.5800    6.2140 O.co2 1001  FLC1001    -0.2429
     11  OG1      -14.1010    0.5700   10.1850 O.co2 1001  FLC1001    -0.2455
     12  OG2      -12.8360    0.0100    8.4040 O.co2 1001  FLC1001    -0.2455
     13  OHB      -16.1740    1.1590    9.3820 O.3   1001  FLC1001    -0.2129
@<TRIPOS>BOND
     1    10     4   ar
     2     4     9   ar
     3     4     3    1
     4     5     3    1
     5     5     6    1
     6    12     6   ar
     7     3     2    1
     8     3    13    1
     9     6    11   ar
    10     8     1   ar
    11     1     7   ar
    12     1     2    1
