@<TRIPOS>MOLECULE
3blw_AMP_A_1.pdb
 23 25 0 0 0
SMALL
GASTEIGER

@<TRIPOS>ATOM
      1  P        -16.8340   -0.5660   19.0550 P.3   2001  AMP2001     0.5327
      2  O1P      -16.7110   -0.0630   20.4730 O.3   2001  AMP2001    -0.1145
      3  O2P      -15.9250   -1.7240   18.7220 O.3   2001  AMP2001    -0.1145
      4  O3P      -16.8670    0.5220   18.0090 O.2   2001  AMP2001    -0.2224
      5  O5'      -18.3110   -1.2050   18.9970 O.3   2001  AMP2001    -0.2675
      6  C5'      -18.7980   -2.0020   20.0740 C.3   2001  AMP2001     0.1860
      7  C4'      -19.9160   -1.2560   20.7930 C.3   2001  AMP2001     0.1823
      8  O4'      -21.1160   -1.3340   20.0170 O.3   2001  AMP2001    -0.3135
      9  C3'      -20.2000   -1.8790   22.1530 C.3   2001  AMP2001     0.2184
     10  O3'      -20.0270   -0.8910   23.1750 O.3   2001  AMP2001    -0.2174
     11  C2'      -21.6510   -2.3260   22.1210 C.3   2001  AMP2001     0.2570
     12  O2'      -22.3900   -1.6200   23.1230 O.3   2001  AMP2001    -0.2130
     13  C1'      -22.1800   -1.9540   20.7430 C.3   2001  AMP2001     0.3186
     14  N9       -22.6130   -3.1850   20.0310 N.pl3 2001  AMP2001    -0.1439
     15  C8       -21.8610   -3.9070   19.1790 C.3   2001  AMP2001     0.3377
     16  N7       -22.5530   -4.9720   18.6980 N.2   2001  AMP2001    -0.2095
     17  C5       -23.7790   -4.9400   19.2490 C.2   2001  AMP2001     0.2526
     18  C6       -25.0060   -5.7680   19.1720 C.2   2001  AMP2001     0.4393
     19  N6       -25.0600   -6.8720   18.3880 N.pl3 2001  AMP2001     0.2180
     20  N1       -26.0710   -5.3830   19.9110 N.2   2001  AMP2001     0.0021
     21  C2       -26.0310   -4.2880   20.6940 C.3   2001  AMP2001     0.5254
     22  N3       -24.9530   -3.4930   20.8110 N.2   2001  AMP2001    -0.0055
     23  C4       -23.8140   -3.7590   20.1270 C.2   2001  AMP2001     0.3518
@<TRIPOS>BOND
     1     4     1    2
     2    19    18    1
     3    16    15    1
     4    16    17    2
     5     3     1    1
     6     5     1    1
     7     5     6    1
     8     1     2    1
     9    18    17    1
    10    18    20    2
    11    15    14    1
    12    17    23    1
    13    20    21    1
    14     8    13    1
    15     8     7    1
    16    14    23    1
    17    14    13    1
    18     6     7    1
    19    23    22    2
    20    21    22    1
    21    13    11    1
    22     7     9    1
    23    11     9    1
    24    11    12    1
    25     9    10    1
