@<TRIPOS>MOLECULE
3bm1_FMN_A_1.pdb
 31 33 0 0 0
SMALL
GASTEIGER

@<TRIPOS>ATOM
      1  N1        20.5490   -0.2920   19.3210 N.2   3401  FMN3401    -0.2890
      2  C2        21.0750   -0.1260   20.5910 C.1   3401  FMN3401     0.3669
      3  O2        20.6120   -0.7280   21.5780 O.2   3401  FMN3401    -0.1744
      4  N3        22.1640    0.7430   20.7920 N.2   3401  FMN3401    -0.2300
      5  C4        22.7580    1.4730   19.7260 C.1   3401  FMN3401     0.2513
      6  O4        23.7460    2.2330   20.0080 O.2   3401  FMN3401    -0.2057
      7  C4A       22.2220    1.3160   18.4040 C.2   3401  FMN3401     0.2700
      8  N5        22.7410    1.9890   17.3540 N.2   3401  FMN3401    -0.3878
      9  C5A       22.2090    1.8330   16.0680 C.2   3401  FMN3401     0.1320
     10  C6        22.7640    2.5720   14.9440 C.2   3401  FMN3401     0.0250
     11  C7        22.2560    2.4570   13.6070 C.2   3401  FMN3401    -0.0238
     12  C7M       22.8780    3.2530   12.5270 C.3   3401  FMN3401     0.0308
     13  C8        21.1270    1.5450   13.3810 C.2   3401  FMN3401    -0.0280
     14  C8M       20.5030    1.3410   11.9990 C.3   3401  FMN3401     0.0304
     15  C9        20.5750    0.8200   14.4630 C.2   3401  FMN3401    -0.0041
     16  C9A       21.0890    0.9380   15.8310 C.3   3401  FMN3401     0.1497
     17  N10       20.5450    0.2230   16.9670 N.pl3 3401  FMN3401    -0.2691
     18  C10       21.0870    0.3860   18.2790 C.2   3401  FMN3401     0.2416
     19  C1'       19.3920   -0.6990   16.7530 C.3   3401  FMN3401     0.1294
     20  C2'       19.7030   -2.2000   16.9070 C.3   3401  FMN3401     0.2044
     21  O2'       20.7350   -2.5840   15.9670 O.3   3401  FMN3401    -0.2185
     22  C3'       18.4770   -3.0810   16.6330 C.3   3401  FMN3401     0.2164
     23  O3'       18.0120   -2.8270   15.2680 O.3   3401  FMN3401    -0.2175
     24  C4'       17.2890   -2.8030   17.6490 C.3   3401  FMN3401     0.2147
     25  O4'       17.8200   -3.0910   18.9820 O.3   3401  FMN3401    -0.2176
     26  C5'       16.0170   -3.6150   17.4340 C.3   3401  FMN3401     0.1892
     27  O5'       16.2730   -5.0150   17.3850 O.3   3401  FMN3401    -0.2674
     28  P         15.9970   -5.8340   15.9330 P.3   3401  FMN3401     0.5327
     29  O1P       17.1240   -5.4370   15.0110 O.2   3401  FMN3401    -0.2224
     30  O2P       16.0150   -7.2720   16.3740 O.3   3401  FMN3401    -0.1145
     31  O3P       14.6280   -5.3920   15.3760 O.3   3401  FMN3401    -0.1145
@<TRIPOS>BOND
     1    14    13    1
     2    12    11    1
     3    13    11    1
     4    13    15    2
     5    11    10    2
     6    15    16    1
     7    10     9    1
     8    29    28    2
     9    23    22    1
    10    31    28    1
    11    16     9    1
    12    16    17    1
    13    28    30    1
    14    28    27    1
    15    21    20    1
    16     9     8    2
    17    22    20    1
    18    22    24    1
    19    19    20    1
    20    19    17    1
    21    17    18    1
    22     8     7    2
    23    27    26    1
    24    26    24    1
    25    24    25    1
    26    18     7    1
    27    18     1    2
    28     7     5    1
    29     1     2    2
    30     5     6    2
    31     5     4    2
    32     2     4    2
    33     2     3    2
