@<TRIPOS>MOLECULE
3bm4_ADV_B_1.pdb
 36 39 0 0 0
SMALL
GASTEIGER

@<TRIPOS>ATOM
      1  PA         1.7150   16.2420   63.9080 P.3   401  ADV401      0.3820
      2  O5'        2.4770   16.0290   65.3100 O.3   401  ADV401     -0.2896
      3  C5'        2.7130   17.1590   66.1550 C.3   401  ADV401      0.1836
      4  C4'        3.7030   16.8230   67.2720 C.3   401  ADV401      0.1822
      5  O4'        3.8110   17.8960   68.2260 O.3   401  ADV401     -0.3135
      6  C3'        3.2600   15.6020   68.0780 C.3   401  ADV401      0.2184
      7  O3'        3.7170   14.4130   67.4290 O.3   401  ADV401     -0.2174
      8  C2'        4.0960   15.8460   69.3310 C.3   401  ADV401      0.2570
      9  O2'        5.4840   15.7060   69.0180 O.3   401  ADV401     -0.2130
     10  C1'        3.7590   17.3230   69.5460 C.3   401  ADV401      0.3186
     11  N9         2.3710   17.4290   70.0480 N.pl3 401  ADV401     -0.1439
     12  C8         1.2970   17.7610   69.3350 C.3   401  ADV401      0.3377
     13  N7         0.2220   17.7560   70.1200 N.2   401  ADV401     -0.2095
     14  C5         0.6120   17.4180   71.3450 C.2   401  ADV401      0.2526
     15  C6        -0.0410   17.2560   72.5600 C.2   401  ADV401      0.4393
     16  N6        -1.3530   17.4570   72.6540 N.pl3 401  ADV401      0.2180
     17  N1         0.6730   16.9050   73.6370 N.2   401  ADV401      0.0021
     18  C2         1.9800   16.7110   73.5570 C.3   401  ADV401      0.5254
     19  N3         2.6330   16.8570   72.4190 N.2   401  ADV401     -0.0055
     20  C4         1.9830   17.2080   71.3000 C.2   401  ADV401      0.3518
     21  CX         0.0370   16.6660   64.4340 C.3   401  ADV401      0.2353
     22  PB        -0.9310   15.1710   64.7480 P.3   401  ADV401      0.3820
     23  O1B       -0.6780   14.7110   66.1320 O.3   401  ADV401     -0.1392
     24  OR5       -2.4370   15.7320   64.6780 O.3   401  ADV401     -0.2896
     25  CR5       -2.9460   16.2280   63.4370 C.3   401  ADV401      0.1836
     26  CR4       -4.4090   16.6520   63.5780 C.3   401  ADV401      0.1808
     27  OR4       -5.1820   15.5530   64.0910 O.3   401  ADV401     -0.3237
     28  CR3       -4.4990   17.7410   64.6510 C.3   401  ADV401      0.2168
     29  OR3       -5.0350   18.9590   64.1270 O.3   401  ADV401     -0.2175
     30  CR2       -5.4230   17.1350   65.7070 C.3   401  ADV401      0.2433
     31  OR2       -6.7830   17.3510   65.3220 O.3   401  ADV401     -0.2148
     32  CR1       -5.0600   15.6630   65.5170 C.3   401  ADV401      0.3023
     33  OR1       -6.0290   14.8220   66.1490 O.3   401  ADV401     -0.1869
     34  O2A        2.2860   17.4190   63.2170 O.3   401  ADV401     -0.1392
     35  O2B       -0.7490   14.2060   63.6420 O.2   401  ADV401     -0.2548
     36  O1A        1.6630   14.9570   63.1750 O.2   401  ADV401     -0.2548
@<TRIPOS>BOND
     1    36     1    2
     2    34     1    1
     3    25    26    1
     4    25    24    1
     5    26    27    1
     6    26    28    1
     7    35    22    2
     8     1    21    1
     9     1     2    1
    10    27    32    1
    11    29    28    1
    12    21    22    1
    13    28    30    1
    14    24    22    1
    15    22    23    1
    16     2     3    1
    17    31    30    1
    18    32    30    1
    19    32    33    1
    20     3     4    1
    21     4     6    1
    22     4     5    1
    23     7     6    1
    24     6     8    1
    25     5    10    1
    26     9     8    1
    27     8    10    1
    28    12    11    1
    29    12    13    1
    30    10    11    1
    31    11    20    1
    32    13    14    2
    33    20    14    1
    34    20    19    2
    35    14    15    1
    36    19    18    1
    37    15    16    1
    38    15    17    2
    39    18    17    1
