@<TRIPOS>MOLECULE
3bm5_PLP_A_1.pdb
 15 15 0 0 0
SMALL
GASTEIGER

@<TRIPOS>ATOM
      1  N1        13.5840   36.0580   -3.9390 N.ar  342  PLP342     -0.2452
      2  C2        12.5010   36.1010   -4.7650 C.ar  342  PLP342      0.0978
      3  C2A       11.6500   34.8760   -4.9670 C.3   342  PLP342      0.0555
      4  C3        12.1630   37.2960   -5.4400 C.ar  342  PLP342      0.2049
      5  O3        11.0990   37.3630   -6.2710 O.3   342  PLP342     -0.2857
      6  C4        12.9710   38.4340   -5.2360 C.ar  342  PLP342      0.0182
      7  C4A       12.6750   39.7480   -5.9240 C.3   342  PLP342      0.0342
      8  C5        14.0860   38.3500   -4.3650 C.ar  342  PLP342      0.0261
      9  C6        14.3830   37.1360   -3.7250 C.ar  342  PLP342      0.0965
     10  C5A       14.8690   39.6050   -4.2180 C.3   342  PLP342      0.1815
     11  O4P       15.9960   39.5860   -3.4170 O.3   342  PLP342     -0.2653
     12  P         16.4830   41.1300   -3.5650 P.3   342  PLP342      0.5329
     13  O1P       15.5120   42.0270   -2.9080 O.3   342  PLP342     -0.1145
     14  O2P       17.8930   41.3320   -2.8300 O.3   342  PLP342     -0.1145
     15  O3P       16.5190   41.5510   -5.1160 O.2   342  PLP342     -0.2224
@<TRIPOS>BOND
     1     5     4    1
     2     7     6    1
     3     4     6   ar
     4     4     2   ar
     5     6     8   ar
     6    15    12    2
     7     3     2    1
     8     2     1   ar
     9     8    10    1
    10     8     9   ar
    11    10    11    1
    12     1     9   ar
    13    12    11    1
    14    12    13    1
    15    12    14    1
