@<TRIPOS>MOLECULE
3bm6_C9P_A_1.pdb
 30 32 0 0 0
SMALL
GASTEIGER

@<TRIPOS>ATOM
      1  C1        71.5070    6.0210   28.7170 C.ar    1  C9P1        0.0000
      2  N1        72.7500    5.5840   32.3770 N.pl3   1  C9P1        0.0000
      3  C16       75.1540    8.1210   26.9730 C.ar    1  C9P1        0.0000
      4  C15       74.2120    9.1680   26.5730 C.ar    1  C9P1        0.0000
      5  C14       74.2010   10.4560   27.2790 C.ar    1  C9P1        0.0000
      6  C13       75.1220   10.7060   28.3780 C.ar    1  C9P1        0.0000
      7  C12       76.0700    9.6680   28.7870 C.ar    1  C9P1        0.0000
      8  C8        76.8370    6.6020   30.1970 C.ar    1  C9P1        0.0000
      9  C9        75.6430    5.8430   30.4870 C.ar    1  C9P1        0.0000
     10  O1        72.0320    4.1360   27.1770 O.3     1  C9P1        0.0000
     11  C2        71.8550    5.4130   29.9850 C.ar    1  C9P1        0.0000
     12  C3        72.3830    6.2330   31.0760 C.ar    1  C9P1        0.0000
     13  C4        72.5640    7.6840   30.8560 C.ar    1  C9P1        0.0000
     14  O4        74.4930    4.6490   33.9880 O.2     1  C9P1        0.0000
     15  C10       75.5250    5.5890   31.8080 C.ar    1  C9P1        0.0000
     16  C5        72.2030    8.2580   29.6020 C.ar    1  C9P1        0.0000
     17  O5        76.9940    5.9460   27.6920 O.2     1  C9P1        0.0000
     18  C6        71.6800    7.4450   28.5420 C.ar    1  C9P1        0.0000
     19  C7        77.5650    6.8860   31.2900 C.ar    1  C9P1        0.0000
     20  O3        74.0440    3.4240   31.8950 O.2     1  C9P1        0.0000
     21  C01       73.1390    8.5260   31.9720 C.2     1  C9P1        0.0000
     22  O01       73.4990    8.1070   33.1370 O.co2   1  C9P1        0.0000
     23  S1        74.2020    4.6940   32.5780 S.O2    1  C9P1        0.0000
     24  O02       73.2930    9.7720   31.7290 O.co2   1  C9P1        0.0000
     25  O2        70.6700    5.9540   26.3240 O.3     1  C9P1        0.0000
     26  S2        77.2610    7.0850   28.5860 S.O2    1  C9P1        0.0000
     27  S3        76.8440    6.2470   32.7790 S.2     1  C9P1        0.0000
     28  O6        78.4720    7.8000   28.6040 O.2     1  C9P1        0.0000
     29  C11       76.0990    8.3500   28.0850 C.ar    1  C9P1        0.0000
     30  B         70.9690    5.1450   27.5240 B       1  C9P1        0.0000
@<TRIPOS>BOND
     1    25    30    1
     2     4     3   ar
     3     4     5   ar
     4     3    29   ar
     5    10    30    1
     6     5     6   ar
     7    30     1    1
     8    17    26    2
     9    29    26    1
    10    29     7   ar
    11     6     7   ar
    12    18     1   ar
    13    18    16   ar
    14    26    28    2
    15    26     8    1
    16     1    11   ar
    17    16    13   ar
    18    11    12   ar
    19     8     9   ar
    20     8    19   ar
    21     9    15   ar
    22    13    12   ar
    23    13    21    1
    24    12     2    1
    25    19    27   ar
    26    24    21   ar
    27    15    23    1
    28    15    27   ar
    29    20    23    2
    30    21    22   ar
    31     2    23    1
    32    23    14    2
