@<TRIPOS>MOLECULE
3bm8_PSY_A_1.pdb
 12 12 0 0 0
SMALL
GASTEIGER

@<TRIPOS>ATOM
      1  C1        47.6480   16.1380   23.0830 C.ar  501  PSY501      0.0002
      2  C2        46.5230   15.6800   23.8190 C.ar  501  PSY501      0.0032
      3  C3        47.7110   17.5210   22.7470 C.ar  501  PSY501      0.0032
      4  C4        45.4860   16.5800   24.2100 C.ar  501  PSY501      0.0398
      5  C5        46.6850   18.4270   23.1310 C.ar  501  PSY501      0.0398
      6  C6        45.5750   17.9570   23.8600 C.ar  501  PSY501      0.1714
      7  O1        44.5980   18.8760   24.2310 O.3   501  PSY501     -0.3605
      8  S         43.3370   19.3980   23.3640 S.3   501  PSY501      0.0303
      9  O2        42.6230   20.3770   24.1500 O.3   501  PSY501     -0.0616
     10  O3        43.7780   20.0330   22.1480 O.3   501  PSY501     -0.0616
     11  C7        42.3740   18.3780   23.0350 C.3   501  PSY501      0.1670
     12  C8        41.3400   18.7630   22.0890 C.3   501  PSY501      0.0287
@<TRIPOS>BOND
     1    12    11    1
     2    10     8    1
     3     3     1   ar
     4     3     5   ar
     5    11     8    1
     6     1     2   ar
     7     5     6   ar
     8     8     9    1
     9     8     7    1
    10     2     4   ar
    11     6     4   ar
    12     6     7    1
