@<TRIPOS>MOLECULE
3bm9_BXZ_A_1.pdb
 19 21 0 0 0
SMALL
GASTEIGER

@<TRIPOS>ATOM
      1  C1        -0.8720   37.4730   26.8170 C.ar    1  BXZ1        0.0423
      2  C2        -0.2700   36.4180   26.1150 C.ar    1  BXZ1        0.0080
      3  C3         0.8750   35.8090   26.6640 C.ar    1  BXZ1        0.0583
      4  C4         1.3600   36.2740   27.8710 C.ar    1  BXZ1        0.1800
      5  C5         0.7990   37.3110   28.5980 C.ar    1  BXZ1        0.0822
      6  C6        -0.3370   37.8990   28.0340 C.ar    1  BXZ1        0.1989
      7  O1        -0.9210   38.9260   28.7280 O.3     1  BXZ1       -0.2865
      8  O2         2.4600   35.5520   28.2130 O.2     1  BXZ1       -0.3533
      9  N1         2.7160   34.5960   27.2420 N.ar    1  BXZ1       -0.0769
     10  C7         1.7630   34.7520   26.3140 C.ar    1  BXZ1        0.1260
     11  C8         1.6880   33.9470   25.1060 C.ar    1  BXZ1        0.0605
     12  C9         0.4470   33.4380   24.7130 C.ar    1  BXZ1        0.0147
     13  C10        0.3660   32.6710   23.5520 C.ar    1  BXZ1        0.0737
     14  C11        1.4830   32.4040   22.7820 C.ar    1  BXZ1        0.2050
     15  C12        2.7200   32.9080   23.1580 C.ar    1  BXZ1        0.0846
     16  C13        2.8140   33.6780   24.3190 C.ar    1  BXZ1        0.2004
     17  O3         4.0380   34.1470   24.7000 O.3     1  BXZ1       -0.2864
     18  O4         1.3900   31.6780   21.6280 O.3     1  BXZ1       -0.2859
     19 BR1        -1.2840   31.9270   23.0210 Br      1  BXZ1       -0.0457
@<TRIPOS>BOND
     1    18    14    1
     2    14    15   ar
     3    14    13   ar
     4    19    13    1
     5    15    16   ar
     6    13    12   ar
     7    16    17    1
     8    16    11   ar
     9    12    11   ar
    10    11    10    1
    11     2     3   ar
    12     2     1   ar
    13    10     3   ar
    14    10     9   ar
    15     3     4   ar
    16     1     6   ar
    17     9     8   ar
    18     4     8   ar
    19     4     5   ar
    20     6     5   ar
    21     6     7    1
