@<TRIPOS>MOLECULE
3bmc_NAP_A_1.pdb
 48 52 0 0 0
SMALL
GASTEIGER

@<TRIPOS>ATOM
      1  PA        13.8870   -9.8720   11.7470 P.3   269  NAP269      0.2189
      2  O1A       14.4910  -10.8170   10.7700 O.2   269  NAP269     -0.5170
      3  O2A       13.5490  -10.5560   13.0060 O.3   269  NAP269     -0.4371
      4  O5B       14.8690   -8.6380   12.0060 O.3   269  NAP269     -0.3112
      5  C5B       15.3140   -7.8720   10.9100 C.3   269  NAP269      0.1813
      6  C4B       16.7800   -7.4920   11.0800 C.3   269  NAP269      0.1820
      7  O4B       16.9230   -6.6940   12.2250 O.3   269  NAP269     -0.3136
      8  C3B       17.7320   -8.6390   11.3370 C.3   269  NAP269      0.2157
      9  O3B       18.1150   -9.3100   10.1430 O.3   269  NAP269     -0.2175
     10  C2B       18.8800   -7.9470   12.0710 C.3   269  NAP269      0.2314
     11  O2B       20.0200   -7.7120   11.2590 O.3   269  NAP269     -0.2630
     12  C1B       18.2860   -6.6150   12.5260 C.3   269  NAP269      0.3158
     13  N9A       18.5940   -6.4720   13.9570 N.pl3 269  NAP269     -0.1439
     14  C8A       18.1900   -7.2640   15.0070 C.3   269  NAP269      0.3377
     15  N7A       18.7740   -6.7930   16.1420 N.2   269  NAP269     -0.2095
     16  C5A       19.5410   -5.7210   15.8290 C.2   269  NAP269      0.2526
     17  C6A       20.3490   -4.8650   16.5850 C.2   269  NAP269      0.4393
     18  N6A       20.4880   -4.9970   17.9000 N.pl3 269  NAP269      0.2180
     19  N1A       21.0100   -3.8380   15.9560 N.2   269  NAP269      0.0021
     20  C2A       20.8760   -3.6610   14.5860 C.3   269  NAP269      0.5254
     21  N3A       20.0860   -4.5070   13.8380 N.2   269  NAP269     -0.0055
     22  C4A       19.4300   -5.5170   14.4540 C.2   269  NAP269      0.3518
     23  O3        12.6190   -9.1060   11.1570 O.3   269  NAP269     -0.2703
     24  PN        11.4980   -9.5170   10.0830 P.3   269  NAP269      0.2189
     25  O1N       12.1490   -9.4980    8.7640 O.2   269  NAP269     -0.5170
     26  O2N       10.7860  -10.7170   10.5710 O.3   269  NAP269     -0.4371
     27  O5D       10.5170   -8.2480   10.1950 O.3   269  NAP269     -0.3112
     28  C5D       10.9460   -6.9670    9.7620 C.3   269  NAP269      0.1813
     29  C4D       10.1760   -5.8680   10.4940 C.3   269  NAP269      0.1799
     30  O4D        8.7640   -6.0680   10.4270 O.3   269  NAP269     -0.3327
     31  C3D       10.5560   -5.8080   11.9610 C.3   269  NAP269      0.2158
     32  O3D       10.5360   -4.4650   12.3730 O.3   269  NAP269     -0.2175
     33  C2D        9.4090   -6.5380   12.6040 C.3   269  NAP269      0.2309
     34  O2D        9.2740   -6.2460   13.9730 O.3   269  NAP269     -0.2158
     35  C1D        8.2200   -6.1450   11.7290 C.3   269  NAP269      0.2263
     36  N1N        7.2000   -7.1900   11.8320 N.pl3 269  NAP269     -0.2787
     37  C2N        7.4450   -8.4690   11.3620 C.3   269  NAP269      0.1244
     38  C3N        6.4820   -9.4760   11.4900 C.2   269  NAP269      0.0544
     39  C7N        6.7420  -10.8530   10.9760 C.2   269  NAP269      0.2818
     40  O7N        5.6970  -11.8000   11.0110 O.2   269  NAP269     -0.2670
     41  N7N        7.9540  -11.1550   10.5010 N.am  269  NAP269     -0.0839
     42  C4N        5.2660   -9.1840   12.0950 C.2   269  NAP269      0.0033
     43  C5N        5.0270   -7.8800   12.5680 C.2   269  NAP269      0.0157
     44  C6N        6.0060   -6.8910   12.4340 C.2   269  NAP269      0.0633
     45  P2B       21.2330   -8.7530   11.0760 P.3   269  NAP269      0.5328
     46  O1X       22.1550   -8.1800   10.0300 O.2   269  NAP269     -0.2224
     47  O2X       20.6840  -10.0720   10.5990 O.3   269  NAP269     -0.1145
     48  O3X       22.0090   -8.8890   12.3530 O.3   269  NAP269     -0.1145
@<TRIPOS>BOND
     1    25    24    2
     2    28    27    1
     3    28    29    1
     4    46    45    2
     5    24    27    1
     6    24    26    1
     7    24    23    1
     8     9     8    1
     9    30    29    1
    10    30    35    1
    11    29    31    1
    12    41    39   am
    13    47    45    1
    14     2     1    2
    15     5     6    1
    16     5     4    1
    17    39    40    2
    18    39    38    1
    19    45    11    1
    20    45    48    1
    21     6     8    1
    22     6     7    1
    23    23     1    1
    24    11    10    1
    25     8    10    1
    26    37    38    1
    27    37    36    1
    28    38    42    2
    29    35    36    1
    30    35    33    1
    31     1     4    1
    32     1     3    1
    33    36    44    1
    34    31    32    1
    35    31    33    1
    36    10    12    1
    37    42    43    1
    38     7    12    1
    39    44    43    2
    40    12    13    1
    41    33    34    1
    42    21    22    2
    43    21    20    1
    44    13    22    1
    45    13    14    1
    46    22    16    1
    47    20    19    1
    48    14    15    1
    49    16    15    2
    50    16    17    1
    51    19    17    2
    52    17    18    1
