@<TRIPOS>MOLECULE
3bmc_FOL_A_1.pdb
 32 34 0 0 0
SMALL
GASTEIGER

@<TRIPOS>ATOM
      1  N1         9.0740   -9.0800   14.7210 N.2   270  FOL270     -0.2672
      2  C2        10.3170   -9.4750   14.4070 C.1   270  FOL270      0.2609
      3  NA2       11.3610   -8.6280   14.4990 N.pl3 270  FOL270     -0.0220
      4  N3        10.5430  -10.7320   13.9930 N.2   270  FOL270     -0.2466
      5  C4         9.5290  -11.6290   13.8890 C.1   270  FOL270      0.2569
      6  O4         9.8240  -12.8980   13.4750 O.2   270  FOL270     -0.2052
      7  C4A        8.2250  -11.2400   14.2060 C.2   270  FOL270      0.2988
      8  N5         7.1550  -12.0880   14.1220 N.2   270  FOL270     -0.3839
      9  C6         5.8970  -11.6300   14.4420 C.2   270  FOL270      0.1356
     10  C7         5.7360  -10.3200   14.8840 C.3   270  FOL270      0.1931
     11  N8         6.7910   -9.4900   14.9600 N.2   270  FOL270     -0.1992
     12  C8A        8.0290   -9.9230   14.6260 C.1   270  FOL270      0.1401
     13  C9         4.7080  -12.5720   14.3680 C.3   270  FOL270      0.1683
     14  N10        5.5230  -13.6330   14.8530 N.pl3 270  FOL270     -0.2303
     15  C11        5.9960  -15.7330   18.3230 C.ar  270  FOL270      0.0551
     16  C12        6.8160  -15.8560   17.2220 C.ar  270  FOL270      0.0059
     17  C13        6.6080  -15.1220   16.0980 C.ar  270  FOL270      0.0162
     18  C14        5.5710  -14.2220   16.0650 C.ar  270  FOL270      0.0658
     19  C15        4.7130  -14.0480   17.1690 C.ar  270  FOL270      0.0162
     20  C16        4.9320  -14.8210   18.3250 C.ar  270  FOL270      0.0059
     21  C          6.4490  -16.6510   19.4160 C.2   270  FOL270      0.2652
     22  O          5.6880  -17.2910   20.1460 O.2   270  FOL270     -0.2684
     23  N          7.7880  -16.7020   19.4350 N.am  270  FOL270     -0.1918
     24  CA         8.6310  -17.4910   20.3060 C.3   270  FOL270      0.1986
     25  CB         8.8500  -18.7730   19.5160 C.3   270  FOL270      0.0451
     26  CG         8.2330  -19.9940   20.1830 C.3   270  FOL270      0.1164
     27  CD         8.7210  -21.1890   19.4000 C.2   270  FOL270      0.3649
     28  OE1        8.3300  -22.3490   19.7060 O.co2 270  FOL270     -0.2457
     29  OE2        9.5200  -20.9530   18.4560 O.co2 270  FOL270     -0.2457
     30  CT         9.9670  -16.8320   20.4350 C.2   270  FOL270      0.3842
     31  O1        10.8060  -17.3620   21.2140 O.co2 270  FOL270     -0.2437
     32  O2        10.1870  -15.7880   19.7550 O.co2 270  FOL270     -0.2437
@<TRIPOS>BOND
     1     6     5    2
     2     5     4    2
     3     5     7    1
     4     4     2    2
     5     8     7    2
     6     8     9    2
     7     7    12    1
     8    13     9    1
     9    13    14    1
    10     2     3    1
    11     2     1    2
    12     9    10    1
    13    12     1    2
    14    12    11    2
    15    14    18    1
    16    10    11    1
    17    18    17   ar
    18    18    19   ar
    19    17    16   ar
    20    19    20   ar
    21    16    15   ar
    22    15    20   ar
    23    15    21    1
    24    29    27   ar
    25    27    28   ar
    26    27    26    1
    27    21    23   am
    28    21    22    2
    29    23    24    1
    30    25    26    1
    31    25    24    1
    32    32    30   ar
    33    24    30    1
    34    30    31   ar
