@<TRIPOS>MOLECULE
3bmn_NAP_A_1.pdb
 48 52 0 0 0
SMALL
GASTEIGER

@<TRIPOS>ATOM
      1  PA        13.4420   -9.4690   11.9600 P.3   269  NAP269      0.2189
      2  O1A       13.1140  -10.0640   13.2670 O.3   269  NAP269     -0.4371
      3  O2A       13.9850  -10.3930   10.9450 O.2   269  NAP269     -0.5170
      4  O5B       14.3180   -8.1300   12.0430 O.3   269  NAP269     -0.3112
      5  C5B       14.8080   -7.5100   10.8860 C.3   269  NAP269      0.1813
      6  C4B       16.2080   -7.0800   11.2960 C.3   269  NAP269      0.1820
      7  O4B       16.1940   -6.4330   12.5490 O.3   269  NAP269     -0.3136
      8  C3B       17.1850   -8.2220   11.5570 C.3   269  NAP269      0.2157
      9  O3B       17.6520   -8.8640   10.3870 O.3   269  NAP269     -0.2175
     10  C2B       18.2410   -7.4690   12.3650 C.3   269  NAP269      0.2314
     11  O2B       19.4020   -7.1260   11.6340 O.3   269  NAP269     -0.2630
     12  C1B       17.5480   -6.1990   12.8760 C.3   269  NAP269      0.3158
     13  N9A       17.9980   -6.0710   14.2790 N.pl3 269  NAP269     -0.1439
     14  C8A       17.6850   -6.9060   15.3210 C.3   269  NAP269      0.3377
     15  N7A       18.3240   -6.4490   16.4210 N.2   269  NAP269     -0.2095
     16  C5A       19.0500   -5.3570   16.1080 C.2   269  NAP269      0.2526
     17  C6A       19.8760   -4.5340   16.8640 C.2   269  NAP269      0.4393
     18  N6A       20.1100   -4.7150   18.1660 N.pl3 269  NAP269      0.2180
     19  N1A       20.4720   -3.4800   16.2070 N.2   269  NAP269      0.0021
     20  C2A       20.2750   -3.2320   14.8630 C.3   269  NAP269      0.5254
     21  N3A       19.4540   -4.0590   14.1360 N.2   269  NAP269     -0.0055
     22  C4A       18.8560   -5.1100   14.7520 C.2   269  NAP269      0.3518
     23  O3        12.1090   -8.7410   11.4320 O.3   269  NAP269     -0.2703
     24  PN        11.0070   -9.0920   10.3260 P.3   269  NAP269      0.2189
     25  O1N       10.2290  -10.2700   10.7210 O.3   269  NAP269     -0.4371
     26  O2N       11.6480   -8.9360    9.0030 O.2   269  NAP269     -0.5170
     27  O5D        9.9990   -7.8750   10.6040 O.3   269  NAP269     -0.3112
     28  C5D       10.4000   -6.6170   10.1100 C.3   269  NAP269      0.1813
     29  C4D        9.5490   -5.5110   10.7300 C.3   269  NAP269      0.1799
     30  O4D        8.1680   -5.8290   10.6640 O.3   269  NAP269     -0.3327
     31  C3D        9.9410   -5.2480   12.1750 C.3   269  NAP269      0.2158
     32  O3D        9.7950   -3.8980   12.5960 O.3   269  NAP269     -0.2175
     33  C2D        8.9110   -6.1300   12.8360 C.3   269  NAP269      0.2309
     34  O2D        8.8680   -5.7330   14.1880 O.3   269  NAP269     -0.2158
     35  C1D        7.6700   -5.9620   11.9630 C.3   269  NAP269      0.2263
     36  N1N        6.7900   -7.1450   12.0590 N.pl3 269  NAP269     -0.2787
     37  C2N        7.1950   -8.3350   11.5420 C.3   269  NAP269      0.1244
     38  C3N        6.2620   -9.3470   11.7250 C.2   269  NAP269      0.0544
     39  C7N        6.6010  -10.7000   11.1960 C.2   269  NAP269      0.2818
     40  O7N        5.5450  -11.6160   11.3270 O.2   269  NAP269     -0.2670
     41  N7N        7.7950  -10.9430   10.6580 N.am  269  NAP269     -0.0839
     42  C4N        5.0420   -9.2290   12.3770 C.2   269  NAP269      0.0033
     43  C5N        4.6510   -7.9940   12.8930 C.2   269  NAP269      0.0157
     44  C6N        5.5880   -6.9950   12.7030 C.2   269  NAP269      0.0633
     45  P2B       20.6790   -8.0750   11.4060 P.3   269  NAP269      0.5328
     46  O1X       21.4950   -8.0930   12.6710 O.3   269  NAP269     -0.1145
     47  O2X       20.2950   -9.5220   11.1610 O.3   269  NAP269     -0.1145
     48  O3X       21.6430   -7.5840   10.3610 O.2   269  NAP269     -0.2224
@<TRIPOS>BOND
     1    26    24    2
     2    28    27    1
     3    28    29    1
     4    24    27    1
     5    24    25    1
     6    24    23    1
     7    48    45    2
     8     9     8    1
     9    41    39   am
    10    30    29    1
    11    30    35    1
    12    29    31    1
    13     5     6    1
    14     5     4    1
    15     3     1    2
    16    47    45    1
    17    39    40    2
    18    39    38    1
    19     6     8    1
    20     6     7    1
    21    45    11    1
    22    45    46    1
    23    23     1    1
    24    37    38    1
    25    37    36    1
    26     8    10    1
    27    11    10    1
    28    38    42    2
    29     1     4    1
    30     1     2    1
    31    35    36    1
    32    35    33    1
    33    36    44    1
    34    31    32    1
    35    31    33    1
    36    10    12    1
    37    42    43    1
    38     7    12    1
    39    44    43    2
    40    33    34    1
    41    12    13    1
    42    21    22    2
    43    21    20    1
    44    13    22    1
    45    13    14    1
    46    22    16    1
    47    20    19    1
    48    14    15    1
    49    16    15    2
    50    16    17    1
    51    19    17    2
    52    17    18    1
