@<TRIPOS>MOLECULE
3bmn_AX3_A_1.pdb
 12 13 0 0 0
SMALL
GASTEIGER

@<TRIPOS>ATOM
      1  CAC       11.9420  -13.8900   13.5380 C.3   270  AX3270      0.0243
      2  CAD       12.0640  -13.1830   14.8920 C.3   270  AX3270      0.0243
      3  CAL       11.4950  -12.4260   13.6930 C.3   270  AX3270      0.1058
      4  NAH       10.0550  -12.1400   13.8110 N.pl3 270  AX3270     -0.1524
      5  CAK        9.6710  -10.9340   14.2630 C.1   270  AX3270      0.2420
      6  NAG       10.5990   -9.9690   14.3640 N.2   270  AX3270     -0.2426
      7  NAF        8.4050  -10.6490   14.6240 N.2   270  AX3270     -0.2426
      8  CAI        8.1120   -9.4080   15.0620 C.1   270  AX3270      0.2632
      9  NAA        6.8650   -9.1300   15.4200 N.pl3 270  AX3270     -0.0220
     10  NAE        9.0280   -8.4370   15.1610 N.2   270  AX3270     -0.2413
     11  CAJ       10.2810   -8.7450   14.8060 C.1   270  AX3270      0.2632
     12  NAB       11.2640   -7.8680   14.8760 N.pl3 270  AX3270     -0.0220
@<TRIPOS>BOND
     1     1     3    1
     2     1     2    1
     3     3     4    1
     4     3     2    1
     5     4     5    1
     6     5     6    2
     7     5     7    2
     8     6    11    2
     9     7     8    2
    10    11    12    1
    11    11    10    2
    12     8    10    2
    13     8     9    1
