@<TRIPOS>MOLECULE
3bmo_NAP_A_1.pdb
 48 52 0 0 0
SMALL
GASTEIGER

@<TRIPOS>ATOM
      1  PA        13.8220   -9.7180   11.8680 P.3   273  NAP273      0.2189
      2  O1A       13.4550  -10.2520   13.1890 O.3   273  NAP273     -0.4371
      3  O2A       14.2530  -10.7100   10.8870 O.2   273  NAP273     -0.5170
      4  O5B       14.9320   -8.5980   12.1270 O.3   273  NAP273     -0.3112
      5  C5B       15.3590   -7.7720   11.0670 C.3   273  NAP273      0.1813
      6  C4B       16.8010   -7.3530   11.2680 C.3   273  NAP273      0.1820
      7  O4B       16.8530   -6.5610   12.4500 O.3   273  NAP273     -0.3136
      8  C3B       17.7870   -8.4830   11.5200 C.3   273  NAP273      0.2157
      9  O3B       18.1800   -9.1410   10.3240 O.3   273  NAP273     -0.2175
     10  C2B       18.8880   -7.7480   12.2640 C.3   273  NAP273      0.2314
     11  O2B       20.0300   -7.4900   11.4710 O.3   273  NAP273     -0.2630
     12  C1B       18.2080   -6.4110   12.7280 C.3   273  NAP273      0.3158
     13  N9A       18.4780   -6.1600   14.1470 N.pl3 273  NAP273     -0.1439
     14  C8A       18.0900   -6.9010   15.2190 C.3   273  NAP273      0.3377
     15  N7A       18.7350   -6.4380   16.3150 N.2   273  NAP273     -0.2095
     16  C5A       19.5280   -5.3890   15.9410 C.2   273  NAP273      0.2526
     17  C6A       20.4240   -4.5180   16.6280 C.2   273  NAP273      0.4393
     18  N6A       20.6640   -4.6260   17.9320 N.pl3 273  NAP273      0.2180
     19  N1A       21.0630   -3.5690   15.8860 N.2   273  NAP273      0.0021
     20  C2A       20.8500   -3.4280   14.5370 C.3   273  NAP273      0.5254
     21  N3A       19.9950   -4.2620   13.8450 N.2   273  NAP273     -0.0055
     22  C4A       19.3840   -5.2350   14.5540 C.2   273  NAP273      0.3518
     23  O3        12.6750   -8.8690   11.1810 O.3   273  NAP273     -0.2703
     24  PN        11.4960   -9.3040   10.1440 P.3   273  NAP273      0.2189
     25  O1N       10.8820  -10.5180   10.6670 O.3   273  NAP273     -0.4371
     26  O2N       12.1070   -9.2570    8.8020 O.2   273  NAP273     -0.5170
     27  O5D       10.4940   -8.0800   10.3360 O.3   273  NAP273     -0.3112
     28  C5D       10.8160   -6.8310    9.7370 C.3   273  NAP273      0.1813
     29  C4D       10.0630   -5.7380   10.4860 C.3   273  NAP273      0.1799
     30  O4D        8.6440   -6.0160   10.4360 O.3   273  NAP273     -0.3327
     31  C3D       10.4250   -5.6040   11.9810 C.3   273  NAP273      0.2158
     32  O3D       10.3750   -4.2700   12.4500 O.3   273  NAP273     -0.2175
     33  C2D        9.2920   -6.3940   12.6610 C.3   273  NAP273      0.2309
     34  O2D        9.0630   -6.0580   13.9890 O.3   273  NAP273     -0.2158
     35  C1D        8.0920   -6.1100   11.7220 C.3   273  NAP273      0.2263
     36  N1N        7.1360   -7.2350   11.8150 N.pl3 273  NAP273     -0.2787
     37  C2N        7.4340   -8.4820   11.2980 C.3   273  NAP273      0.1244
     38  C3N        6.4950   -9.4800   11.4650 C.2   273  NAP273      0.0544
     39  C7N        6.7970  -10.8050   10.8660 C.2   273  NAP273      0.2818
     40  O7N        5.7650  -11.6480   10.7910 O.2   273  NAP273     -0.2670
     41  N7N        8.0430  -11.1650   10.5110 N.am  273  NAP273     -0.0839
     42  C4N        5.2910   -9.2270   12.1700 C.2   273  NAP273      0.0033
     43  C5N        5.0450   -7.9730   12.6800 C.2   273  NAP273      0.0157
     44  C6N        5.9780   -6.9780   12.5120 C.2   273  NAP273      0.0633
     45  P2B       21.2470   -8.5500   11.2890 P.3   273  NAP273      0.5328
     46  O1X       21.9100   -8.7730   12.6520 O.3   273  NAP273     -0.1145
     47  O2X       20.6350   -9.8660   10.7950 O.3   273  NAP273     -0.1145
     48  O3X       22.1730   -7.8800   10.3080 O.2   273  NAP273     -0.2224
@<TRIPOS>BOND
     1    26    24    2
     2    28    27    1
     3    28    29    1
     4    24    27    1
     5    24    25    1
     6    24    23    1
     7    48    45    2
     8     9     8    1
     9    30    29    1
    10    30    35    1
    11    29    31    1
    12    41    39   am
    13    40    39    2
    14    47    45    1
    15    39    38    1
    16     3     1    2
    17     5     6    1
    18     5     4    1
    19    23     1    1
    20     6     8    1
    21     6     7    1
    22    45    11    1
    23    45    46    1
    24    37    38    1
    25    37    36    1
    26    38    42    2
    27    11    10    1
    28     8    10    1
    29    35    36    1
    30    35    33    1
    31    36    44    1
    32     1     4    1
    33     1     2    1
    34    31    32    1
    35    31    33    1
    36    42    43    1
    37    10    12    1
    38     7    12    1
    39    44    43    2
    40    33    34    1
    41    12    13    1
    42    21    20    1
    43    21    22    2
    44    13    22    1
    45    13    14    1
    46    20    19    1
    47    22    16    1
    48    14    15    1
    49    19    17    2
    50    16    15    2
    51    16    17    1
    52    17    18    1
