@<TRIPOS>MOLECULE
3bmo_AX4_A_1.pdb
 16 17 0 0 0
SMALL
GASTEIGER

@<TRIPOS>ATOM
      1  C4         9.3380  -11.2350   14.0190 C.2   274  AX4274      0.1607
      2  C5         8.1230  -10.7930   14.4520 C.3   274  AX4274      0.1458
      3  C6         8.0710   -9.4580   14.9370 C.2   274  AX4274      0.2178
      4  N1         9.2300   -8.7130   14.9500 N.2   274  AX4274     -0.3114
      5  N3        10.4770  -10.5070   14.0560 N.2   274  AX4274     -0.3231
      6  CAF        7.7880  -14.2000   15.1570 C.ar  274  AX4274      0.0062
      7  CAD        6.6020  -14.8180   15.5290 C.ar  274  AX4274     -0.0037
      8  CAL        5.5120  -14.7990   14.6520 C.ar  274  AX4274     -0.0218
      9  CAA        4.1730  -15.4310   15.0310 C.3   274  AX4274      0.0310
     10  CAE        5.6180  -14.1980   13.4090 C.ar  274  AX4274     -0.0037
     11  CAG        6.8150  -13.5970   13.0370 C.ar  274  AX4274      0.0062
     12  CAO        7.8950  -13.5860   13.9190 C.ar  274  AX4274      0.0315
     13  SAK        9.3700  -12.8680   13.4000 S.3   274  AX4274     -0.0584
     14  C2        10.4160   -9.2160   14.5310 C.1   274  AX4274      0.2426
     15  NAC       11.5130   -8.4350   14.5930 N.pl3 274  AX4274     -0.0232
     16  NAB        6.9340   -8.8900   15.3900 N.pl3 274  AX4274     -0.0965
@<TRIPOS>BOND
     1    11    10   ar
     2    11    12   ar
     3    13    12    1
     4    13     1    1
     5    10     8   ar
     6    12     6   ar
     7     1     5    2
     8     1     2    1
     9     5    14    2
    10     2     3    1
    11    14    15    1
    12    14     4    2
    13     8     9    1
    14     8     7   ar
    15     3     4    2
    16     3    16    1
    17     6     7   ar
