@<TRIPOS>MOLECULE
3bmq_AX5_A_1.pdb
 16 17 0 0 0
SMALL
GASTEIGER

@<TRIPOS>ATOM
      1  C4         9.3070  -11.3280   14.0270 C.2   270  AX5270      0.1570
      2  C5         8.1110  -10.8210   14.4490 C.3   270  AX5270      0.1455
      3  C6         8.1080   -9.4950   14.9060 C.2   270  AX5270      0.2178
      4  N1         9.2770   -8.7820   14.9720 N.2   270  AX5270     -0.3114
      5  N3        10.4860  -10.6150   14.0970 N.2   270  AX5270     -0.3234
      6  CAF        7.2280  -14.3560   15.3140 C.ar  270  AX5270     -0.0034
      7  CAD        6.5010  -15.0500   16.2840 C.ar  270  AX5270     -0.0003
      8  CAC        5.1740  -15.4270   16.0390 C.ar  270  AX5270     -0.0000
      9  CAE        4.5770  -15.0920   14.8280 C.ar  270  AX5270     -0.0003
     10  CAG        5.3100  -14.4130   13.8470 C.ar  270  AX5270     -0.0034
     11  CAN        6.6140  -14.0060   14.1000 C.ar  270  AX5270     -0.0109
     12  CAI        7.4210  -13.2560   13.0320 C.3   270  AX5270      0.0906
     13  SAL        9.1800  -13.0210   13.4020 S.3   270  AX5270     -0.0805
     14  C2        10.4580   -9.3000   14.5580 C.1   270  AX5270      0.2426
     15  NAB       11.5780   -8.5380   14.6450 N.pl3 270  AX5270     -0.0232
     16  NAA        6.9480   -9.0070   15.3590 N.pl3 270  AX5270     -0.0965
@<TRIPOS>BOND
     1    12    13    1
     2    12    11    1
     3    13     1    1
     4    10    11   ar
     5    10     9   ar
     6     1     5    2
     7     1     2    1
     8     5    14    2
     9    11     6   ar
    10     2     3    1
    11    14    15    1
    12    14     4    2
    13     9     8   ar
    14     3     4    2
    15     3    16    1
    16     6     7   ar
    17     8     7   ar
