@<TRIPOS>MOLECULE
3bmq_NAP_A_1.pdb
 48 52 0 0 0
SMALL
GASTEIGER

@<TRIPOS>ATOM
      1  PA        13.8520   -9.8650   11.8640 P.3   269  NAP269      0.2189
      2  O1A       14.2730  -10.8480   10.8320 O.2   269  NAP269     -0.5170
      3  O2A       13.4390  -10.3610   13.2120 O.3   269  NAP269     -0.4371
      4  O5B       14.9590   -8.7690   12.1260 O.3   269  NAP269     -0.3112
      5  C5B       15.3990   -7.9550   11.0560 C.3   269  NAP269      0.1813
      6  C4B       16.8290   -7.4970   11.3100 C.3   269  NAP269      0.1820
      7  O4B       16.9040   -6.6510   12.4610 O.3   269  NAP269     -0.3136
      8  C3B       17.8450   -8.6070   11.5160 C.3   269  NAP269      0.2157
      9  O3B       18.2180   -9.2440   10.3050 O.3   269  NAP269     -0.2175
     10  C2B       18.9360   -7.8110   12.2180 C.3   269  NAP269      0.2314
     11  O2B       20.0470   -7.6070   11.4030 O.3   269  NAP269     -0.2630
     12  C1B       18.2730   -6.4730   12.6900 C.3   269  NAP269      0.3158
     13  N9A       18.5690   -6.2800   14.1170 N.pl3 269  NAP269     -0.1439
     14  C8A       18.2370   -7.0110   15.2120 C.3   269  NAP269      0.3377
     15  N7A       18.8720   -6.5220   16.3140 N.2   269  NAP269     -0.2095
     16  C5A       19.6470   -5.4820   15.8730 C.2   269  NAP269      0.2526
     17  C6A       20.5300   -4.6010   16.5170 C.2   269  NAP269      0.4393
     18  N6A       20.7580   -4.7110   17.8480 N.pl3 269  NAP269      0.2180
     19  N1A       21.0880   -3.6450   15.7710 N.2   269  NAP269      0.0021
     20  C2A       20.9130   -3.4790   14.4130 C.3   269  NAP269      0.5254
     21  N3A       20.0580   -4.3480   13.7640 N.2   269  NAP269     -0.0055
     22  C4A       19.4550   -5.3000   14.4980 C.2   269  NAP269      0.3518
     23  O3        12.7480   -8.9270   11.1290 O.3   269  NAP269     -0.2703
     24  PN        11.5720   -9.4110   10.1200 P.3   269  NAP269      0.2189
     25  O1N       10.8940  -10.5860   10.6710 O.3   269  NAP269     -0.4371
     26  O2N       12.1390   -9.4210    8.7550 O.2   269  NAP269     -0.5170
     27  O5D       10.5430   -8.1640   10.3410 O.3   269  NAP269     -0.3112
     28  C5D       10.8450   -6.8910    9.7800 C.3   269  NAP269      0.1813
     29  C4D       10.0820   -5.8150   10.5660 C.3   269  NAP269      0.1799
     30  O4D        8.6860   -6.0970   10.4870 O.3   269  NAP269     -0.3327
     31  C3D       10.4540   -5.7010   12.0440 C.3   269  NAP269      0.2158
     32  O3D       10.4630   -4.3340   12.4290 O.3   269  NAP269     -0.2175
     33  C2D        9.3550   -6.4960   12.7160 C.3   269  NAP269      0.2309
     34  O2D        9.1180   -6.1660   14.0730 O.3   269  NAP269     -0.2158
     35  C1D        8.1760   -6.1680   11.7900 C.3   269  NAP269      0.2263
     36  N1N        7.2110   -7.2790   11.8610 N.pl3 269  NAP269     -0.2787
     37  C2N        7.4920   -8.5360   11.3020 C.3   269  NAP269      0.1244
     38  C3N        6.5640   -9.5430   11.4360 C.2   269  NAP269      0.0544
     39  C7N        6.8750  -10.8860   10.8420 C.2   269  NAP269      0.2818
     40  O7N        5.7860  -11.7120   10.7130 O.2   269  NAP269     -0.2670
     41  N7N        8.1200  -11.2040   10.4720 N.am  269  NAP269     -0.0839
     42  C4N        5.3730   -9.3480   12.1300 C.2   269  NAP269      0.0033
     43  C5N        5.1370   -8.0760   12.6480 C.2   269  NAP269      0.0157
     44  C6N        6.0630   -7.0680   12.5250 C.2   269  NAP269      0.0633
     45  P2B       21.2870   -8.7010   11.2090 P.3   269  NAP269      0.5328
     46  O1X       21.8870   -8.9660   12.5960 O.3   269  NAP269     -0.1145
     47  O2X       20.6430  -10.0120   10.7670 O.3   269  NAP269     -0.1145
     48  O3X       22.1580   -8.0090   10.2480 O.2   269  NAP269     -0.2224
@<TRIPOS>BOND
     1    26    24    2
     2    28    27    1
     3    28    29    1
     4    24    27    1
     5    24    25    1
     6    24    23    1
     7    48    45    2
     8     9     8    1
     9    41    39   am
    10    30    29    1
    11    30    35    1
    12    29    31    1
    13    40    39    2
    14    47    45    1
    15     2     1    2
    16    39    38    1
    17     5     6    1
    18     5     4    1
    19    23     1    1
    20    45    11    1
    21    45    46    1
    22    37    38    1
    23    37    36    1
    24     6     8    1
    25     6     7    1
    26    11    10    1
    27    38    42    2
    28     8    10    1
    29    35    36    1
    30    35    33    1
    31    36    44    1
    32     1     4    1
    33     1     3    1
    34    31    32    1
    35    31    33    1
    36    42    43    1
    37    10    12    1
    38     7    12    1
    39    44    43    2
    40    12    13    1
    41    33    34    1
    42    21    20    1
    43    21    22    2
    44    13    22    1
    45    13    14    1
    46    20    19    1
    47    22    16    1
    48    14    15    1
    49    19    17    2
    50    16    15    2
    51    16    17    1
    52    17    18    1
