@<TRIPOS>MOLECULE
3bmw_GLC_A_1.pdb
 11 11 0 0 0
SMALL
GASTEIGER

@<TRIPOS>ATOM
      1  C1        76.1560   30.9740   18.5600 C.3   687  GLC687      0.3022
      2  C2        74.8100   30.2510   18.4920 C.3   687  GLC687      0.2409
      3  C3        73.8020   30.8590   19.4720 C.3   687  GLC687      0.1899
      4  C4        74.3910   30.9600   20.8820 C.3   687  GLC687      0.0681
      5  C5        75.7620   31.6520   20.8310 C.3   687  GLC687      0.1534
      6  C6        76.4450   31.6520   22.1910 C.3   687  GLC687      0.2116
      7  O1        75.9990   32.2810   18.0400 O.3   687  GLC687     -0.1869
      8  O2        74.3360   30.3200   17.1610 O.3   687  GLC687     -0.2149
      9  O3        72.6210   30.0760   19.5120 O.3   687  GLC687     -0.2201
     10  O5        76.6240   31.0140   19.9010 O.3   687  GLC687     -0.3263
     11  O6        77.5910   32.4710   22.1100 O.3   687  GLC687     -0.2177
@<TRIPOS>BOND
     1     8     2    1
     2     7     1    1
     3     2     1    1
     4     2     3    1
     5     1    10    1
     6     3     9    1
     7     3     4    1
     8    10     5    1
     9     5     4    1
    10     5     6    1
    11    11     6    1
