@<TRIPOS>MOLECULE
3bmw_G6D_A_1.pdb
 10 10 0 0 0
SMALL
GASTEIGER

@<TRIPOS>ATOM
      1  C1        43.3270   12.0060    4.2220 C.3   693  G6D693      0.3021
      2  O2        42.3250   13.3270    6.0140 O.3   693  G6D693     -0.2149
      3  C2        42.5540   11.9860    5.5430 C.3   693  G6D693      0.2409
      4  C3A       43.2290   11.1650    6.6460 C.3   693  G6D693      0.1898
      5  O3A       42.2370   11.0000    7.6640 O.3   693  G6D693     -0.2201
      6  C4A       43.7630    9.8090    6.1540 C.3   693  G6D693      0.0653
      7  C5A       44.5830   10.0470    4.8730 C.3   693  G6D693      0.1206
      8  O5        43.7720   10.6880    3.8710 O.3   693  G6D693     -0.3290
      9  C6A       45.1530    8.7660    4.2650 C.3   693  G6D693      0.0322
     10  O1        44.4360   12.9120    4.3060 O.3   693  G6D693     -0.1869
@<TRIPOS>BOND
     1     8     1    1
     2     8     7    1
     3     1    10    1
     4     1     3    1
     5     9     7    1
     6     7     6    1
     7     3     2    1
     8     3     4    1
     9     6     4    1
    10     4     5    1
