@<TRIPOS>MOLECULE
3bmw_ACI_A_1.pdb
 11 11 0 0 0
SMALL
GASTEIGER

@<TRIPOS>ATOM
      1  C1        43.3640    8.0230    7.8340 C.3   694  ACI694      0.1247
      2  C2        44.1220    6.7300    8.1620 C.3   694  ACI694      0.1995
      3  C3        44.3300    5.9350    6.8680 C.3   694  ACI694      0.1837
      4  C4        42.9850    5.3710    6.4170 C.3   694  ACI694      0.0383
      5  C5        41.8760    6.3780    6.6330 C.3   694  ACI694      0.0372
      6  C6        40.4560    5.9600    6.3450 C.3   694  ACI694      0.1822
      7  C7        42.0960    7.6290    7.0940 C.3   694  ACI694      0.0244
      8  N1        44.1680    8.9820    7.0590 N.3   694  ACI694     -0.1301
      9  O2        45.3520    7.0060    8.8570 O.3   694  ACI694     -0.2189
     10  O3        45.2840    4.8690    7.0000 O.3   694  ACI694     -0.2204
     11  O6        39.9970    5.1570    7.4370 O.3   694  ACI694     -0.2204
@<TRIPOS>BOND
     1     6     5    1
     2     6    11    1
     3     4     5    1
     4     4     3    1
     5     5     7    1
     6     3    10    1
     7     3     2    1
     8     8     1    1
     9     7     1    1
    10     1     2    1
    11     2     9    1
