@<TRIPOS>MOLECULE
3bmy_CXZ_A_1.pdb
 27 30 0 0 0
SMALL
GASTEIGER

@<TRIPOS>ATOM
      1  C1        -0.4850    4.5650   21.9250 C.ar    1  CXZ1        0.0193
      2  C2         0.5220    5.3270   22.5790 C.ar    1  CXZ1        0.0416
      3  C3         1.8270    5.1250   22.1290 C.ar    1  CXZ1        0.1769
      4  C4         2.1590    4.2460   21.1210 C.ar    1  CXZ1        0.0593
      5  C5         1.1510    3.5140   20.5020 C.ar    1  CXZ1        0.0208
      6  C6        -0.1740    3.6530   20.8940 C.ar    1  CXZ1        0.0656
      7  N1        -1.0830    2.8710   20.2320 N.pl3   1  CXZ1       -0.2361
      8  C7        -0.7560    1.5420   19.6840 C.3     1  CXZ1        0.1295
      9  C8        -1.3900    1.2910   18.3290 C.3     1  CXZ1        0.0958
     10  N2        -0.6190    1.9400   17.2350 N.3     1  CXZ1       -0.2669
     11  C9        -1.3690    1.9210   15.9050 C.3     1  CXZ1        0.1047
     12  C10       -0.4980    2.5780   14.8400 C.3     1  CXZ1        0.1595
     13  O1        -0.1870    3.9180   15.1990 O.3     1  CXZ1       -0.3508
     14  C11        0.5700    3.9580   16.4120 C.3     1  CXZ1        0.1595
     15  C12       -0.2000    3.3940   17.5500 C.3     1  CXZ1        0.1047
     16  C13        3.5570    4.3440   20.9910 C.ar    1  CXZ1        0.1260
     17  N3         4.0630    5.2240   21.8760 N.ar    1  CXZ1       -0.0769
     18  O2         2.9650    5.7120   22.5900 O.2     1  CXZ1       -0.3534
     19  C14        4.3700    3.6220   20.0190 C.ar    1  CXZ1        0.0609
     20  C15        4.0200    2.2960   19.6970 C.ar    1  CXZ1        0.0194
     21  C16        4.7540    1.5790   18.7640 C.ar    1  CXZ1        0.0967
     22  C17        5.8560    2.1680   18.1410 C.ar    1  CXZ1        0.2093
     23  C18        6.2200    3.4910   18.4440 C.ar    1  CXZ1        0.0849
     24  C19        5.4730    4.2090   19.3860 C.ar    1  CXZ1        0.2005
     25  O3         5.8090    5.4970   19.6780 O.3     1  CXZ1       -0.2864
     26  O4         6.6010    1.4940   17.2060 O.3     1  CXZ1       -0.2856
     27 CL          4.2800   -0.0360   18.4130 Cl      1  CXZ1       -0.0789
@<TRIPOS>BOND
     1    12    13    1
     2    12    11    1
     3    13    14    1
     4    11    10    1
     5    14    15    1
     6    26    22    1
     7    10    15    1
     8    10     9    1
     9    22    23   ar
    10    22    21   ar
    11     9     8    1
    12    27    21    1
    13    23    24   ar
    14    21    20   ar
    15    24    25    1
    16    24    19   ar
    17     8     7    1
    18    20    19   ar
    19    19    16    1
    20     7     6    1
    21     5     6   ar
    22     5     4   ar
    23     6     1   ar
    24    16     4   ar
    25    16    17   ar
    26     4     3   ar
    27    17    18   ar
    28     1     2   ar
    29     3     2   ar
    30     3    18   ar
