@<TRIPOS>MOLECULE
3bmz_PG4_A_1.pdb
 13 12 0 0 0
SMALL
GASTEIGER

@<TRIPOS>ATOM
      1  O1       -25.0660   44.5090   22.5030 O.3   901  PG4901     -0.2176
      2  C1       -24.9300   45.9350   22.5180 C.3   901  PG4901      0.2140
      3  C2       -24.7620   46.4320   23.9500 C.3   901  PG4901      0.1777
      4  O2       -23.3740   46.4710   24.2890 O.3   901  PG4901     -0.3483
      5  C3       -22.8450   47.7770   24.5220 C.3   901  PG4901      0.1742
      6  C4       -22.4300   48.4140   23.1990 C.3   901  PG4901      0.1742
      7  O3       -21.3310   47.7120   22.6180 O.3   901  PG4901     -0.3484
      8  C5       -20.0920   47.9450   23.2870 C.3   901  PG4901      0.1742
      9  C6       -18.9510   48.0110   22.2840 C.3   901  PG4901      0.1742
     10  O4       -18.2080   46.7950   22.3300 O.3   901  PG4901     -0.3483
     11  C7       -18.7130   45.8320   21.4090 C.3   901  PG4901      0.1777
     12  C8       -18.0530   44.4790   21.6130 C.3   901  PG4901      0.2140
     13  O5       -18.9110   43.4620   21.0850 O.3   901  PG4901     -0.2176
@<TRIPOS>BOND
     1    13    12    1
     2    11    12    1
     3    11    10    1
     4     9    10    1
     5     9     8    1
     6     1     2    1
     7     2     3    1
     8     7     6    1
     9     7     8    1
    10     6     5    1
    11     3     4    1
    12     4     5    1
