@<TRIPOS>MOLECULE
3bn1_AKG_A_1.pdb
 10 9 0 0 0
SMALL
GASTEIGER

@<TRIPOS>ATOM
      1  C1       -10.4390    3.8650   46.7230 C.2   374  AKG374      0.4219
      2  O1       -11.5800    4.3860   46.5960 O.co2 374  AKG374     -0.2373
      3  O2       -10.3050    2.6840   47.1270 O.co2 374  AKG374     -0.2373
      4  C2        -9.2330    4.6570   46.4080 C.2   374  AKG374      0.2526
      5  O5        -8.1330    4.1980   46.6440 O.2   374  AKG374     -0.2843
      6  C3        -9.4380    6.0100   45.7580 C.3   374  AKG374      0.0881
      7  C4        -8.1370    6.7770   45.6620 C.3   374  AKG374      0.1224
      8  C5        -8.4530    8.2320   45.4410 C.2   374  AKG374      0.3653
      9  O3        -7.4820    9.0190   45.2770 O.co2 374  AKG374     -0.2456
     10  O4        -9.7640    8.6520   45.3640 O.co2 374  AKG374     -0.2456
@<TRIPOS>BOND
     1     9     8   ar
     2    10     8   ar
     3     8     7    1
     4     7     6    1
     5     6     4    1
     6     4     5    2
     7     4     1    1
     8     2     1   ar
     9     1     3   ar
