@<TRIPOS>MOLECULE
3bnf_HEM_A_1.pdb
 43 50 0 0 0
SMALL
GASTEIGER

@<TRIPOS>ATOM
      1 FE         27.4310   56.5620   17.0060 Fe    508  HEM508      0.0000
      2  CHA       25.2410   54.1360   18.1310 C.2   508  HEM508      0.0000
      3  CHB       29.0800   54.3550   15.0750 C.2   508  HEM508      0.0000
      4  CHC       29.0740   59.1960   15.5650 C.2   508  HEM508      0.0000
      5  CHD       26.2960   58.6370   19.4070 C.2   508  HEM508      0.0000
      6  NA        27.1720   54.6350   16.6600 N.ar  508  HEM508      0.0000
      7  C1A       26.2770   53.7690   17.2690 C.ar  508  HEM508      0.0000
      8  C2A       26.5230   52.4160   16.8000 C.ar  508  HEM508      0.0000
      9  C3A       27.5690   52.5010   15.9440 C.ar  508  HEM508      0.0000
     10  C4A       28.0100   53.8590   15.8280 C.ar  508  HEM508      0.0000
     11  CMA       28.2400   51.3590   15.2130 C.3   508  HEM508      0.0000
     12  CAA       25.7850   51.1300   17.2570 C.3   508  HEM508      0.0000
     13  CBA       24.4650   50.8920   16.5390 C.3   508  HEM508      0.0000
     14  CGA       24.6790   50.7830   15.0590 C.2   508  HEM508      0.0000
     15  O1A       25.1520   49.7090   14.6020 O.co2 508  HEM508      0.0000
     16  O2A       24.3930   51.8120   14.3730 O.co2 508  HEM508      0.0000
     17  NB        28.9110   56.7530   15.6130 N.2   508  HEM508      0.0000
     18  C1B       29.3830   55.7020   14.8600 C.2   508  HEM508      0.0000
     19  C2B       30.1440   56.2860   13.7370 C.2   508  HEM508      0.0000
     20  C3B       30.1230   57.6290   13.8780 C.2   508  HEM508      0.0000
     21  C4B       29.3060   57.9390   15.0490 C.2   508  HEM508      0.0000
     22  CMB       30.8330   55.4470   12.6540 C.3   508  HEM508      0.0000
     23  CAB       30.6750   58.7260   12.9640 C.3   508  HEM508      0.0000
     24  CBB       30.0410   58.9090   11.7460 C.3   508  HEM508      0.0000
     25  NC        27.6820   58.5560   17.4590 N.ar  508  HEM508      0.0000
     26  C1C       28.3780   59.4770   16.7290 C.ar  508  HEM508      0.0000
     27  C2C       28.3380   60.7640   17.4180 C.ar  508  HEM508      0.0000
     28  C3C       27.5320   60.6320   18.4810 C.ar  508  HEM508      0.0000
     29  C4C       27.1310   59.2310   18.5160 C.ar  508  HEM508      0.0000
     30  CMC       29.0510   62.0580   16.9700 C.3   508  HEM508      0.0000
     31  CAC       27.1510   61.6870   19.5290 C.2   508  HEM508      0.0000
     32  CBC       26.9630   63.0120   19.2880 C.2   508  HEM508      0.0000
     33  ND        25.9970   56.4210   18.4980 N.2   508  HEM508      0.0000
     34  C1D       25.6910   57.4490   19.3760 C.2   508  HEM508      0.0000
     35  C2D       24.6210   57.0480   20.2670 C.2   508  HEM508      0.0000
     36  C3D       24.2340   55.6600   19.8170 C.2   508  HEM508      0.0000
     37  C4D       25.1660   55.3540   18.7560 C.2   508  HEM508      0.0000
     38  CMD       23.9220   57.8500   21.3890 C.3   508  HEM508      0.0000
     39  CAD       23.1850   54.7230   20.4400 C.3   508  HEM508      0.0000
     40  CBD       21.7580   55.1420   20.0730 C.3   508  HEM508      0.0000
     41  CGD       21.3740   54.5990   18.7390 C.2   508  HEM508      0.0000
     42  O1D       22.1760   53.8670   18.1210 O.co2 508  HEM508      0.0000
     43  O2D       20.2560   54.9210   18.2430 O.co2 508  HEM508      0.0000
@<TRIPOS>BOND
     1    24    23    1
     2    22    19    1
     3    23    20    1
     4    19    20    2
     5    19    18    1
     6    20    21    1
     7    16    14   ar
     8    15    14   ar
     9    18     3    1
    10    18    17    2
    11    21     4    2
    12    21    17    1
    13    14    13    1
    14     3    10    2
    15    11     9    1
    16     4    26    1
    17    17     1    1
    18    10     9   ar
    19    10     6   ar
    20     9     8   ar
    21    13    12    1
    22     6     1    1
    23     6     7   ar
    24    26    27   ar
    25    26    25   ar
    26     8    12    1
    27     8     7   ar
    28    30    27    1
    29     1    25    1
    30     1    33    1
    31     7     2    2
    32    27    28   ar
    33    25    29   ar
    34    42    41   ar
    35     2    37    1
    36    43    41   ar
    37    28    29   ar
    38    28    31    1
    39    33    37    2
    40    33    34    1
    41    29     5    1
    42    41    40    1
    43    37    36    1
    44    32    31    2
    45    34     5    2
    46    34    35    1
    47    36    35    2
    48    36    39    1
    49    40    39    1
    50    35    38    1
