@<TRIPOS>MOLECULE
3bng_HEM_A_1.pdb
 43 50 0 0 0
SMALL
GASTEIGER

@<TRIPOS>ATOM
      1 FE         27.4820   56.7690   17.5350 Fe    513  HEM513      0.0000
      2  CHA       25.4140   54.2520   18.6330 C.2   513  HEM513      0.0000
      3  CHB       29.0850   54.6040   15.4940 C.2   513  HEM513      0.0000
      4  CHC       28.9620   59.4380   15.9440 C.2   513  HEM513      0.0000
      5  CHD       26.3000   58.8950   19.9400 C.2   513  HEM513      0.0000
      6  NA        27.2990   54.8340   17.1550 N.ar  513  HEM513      0.0000
      7  C1A       26.4210   53.9600   17.7760 C.ar  513  HEM513      0.0000
      8  C2A       26.6510   52.6360   17.2400 C.ar  513  HEM513      0.0000
      9  C3A       27.6720   52.7110   16.3620 C.ar  513  HEM513      0.0000
     10  C4A       28.0980   54.0940   16.3080 C.ar  513  HEM513      0.0000
     11  CMA       28.3190   51.5750   15.5570 C.3   513  HEM513      0.0000
     12  CAA       25.8530   51.3860   17.6820 C.3   513  HEM513      0.0000
     13  CBA       24.5100   51.3310   16.9250 C.3   513  HEM513      0.0000
     14  CGA       24.7150   51.2320   15.4380 C.2   513  HEM513      0.0000
     15  O1A       25.1040   50.1390   14.9580 O.co2 513  HEM513      0.0000
     16  O2A       24.5030   52.2460   14.7230 O.co2 513  HEM513      0.0000
     17  NB        28.7750   56.9810   16.0230 N.2   513  HEM513      0.0000
     18  C1B       29.2820   55.9340   15.2450 C.2   513  HEM513      0.0000
     19  C2B       30.0220   56.5040   14.1340 C.2   513  HEM513      0.0000
     20  C3B       29.9940   57.8420   14.2760 C.2   513  HEM513      0.0000
     21  C4B       29.2230   58.1630   15.4700 C.2   513  HEM513      0.0000
     22  CMB       30.7090   55.6700   13.0320 C.3   513  HEM513      0.0000
     23  CAB       30.5560   58.9350   13.3330 C.2   513  HEM513      0.0000
     24  CBB       29.7660   59.2790   12.2620 C.2   513  HEM513      0.0000
     25  NC        27.5640   58.8010   17.8590 N.ar  513  HEM513      0.0000
     26  C1C       28.3130   59.6970   17.1310 C.ar  513  HEM513      0.0000
     27  C2C       28.3260   60.9600   17.8320 C.ar  513  HEM513      0.0000
     28  C3C       27.5770   60.8130   18.9350 C.ar  513  HEM513      0.0000
     29  C4C       27.0920   59.4590   18.9700 C.ar  513  HEM513      0.0000
     30  CMC       29.0760   62.2180   17.3270 C.3   513  HEM513      0.0000
     31  CAC       27.2900   61.8670   20.0350 C.3   513  HEM513      0.0000
     32  CBC       26.9520   63.1840   19.7820 C.3   513  HEM513      0.0000
     33  ND        26.1030   56.5900   19.0120 N.2   513  HEM513      0.0000
     34  C1D       25.7570   57.6300   19.8890 C.2   513  HEM513      0.0000
     35  C2D       24.6650   57.1810   20.7330 C.2   513  HEM513      0.0000
     36  C3D       24.3690   55.7620   20.3060 C.2   513  HEM513      0.0000
     37  C4D       25.3060   55.4640   19.2450 C.2   513  HEM513      0.0000
     38  CMD       23.9900   58.0000   21.8550 C.3   513  HEM513      0.0000
     39  CAD       23.3010   54.8380   20.9390 C.3   513  HEM513      0.0000
     40  CBD       21.9190   55.2890   20.4350 C.3   513  HEM513      0.0000
     41  CGD       21.4860   54.7810   19.0620 C.2   513  HEM513      0.0000
     42  O1D       22.2900   54.1240   18.3070 O.co2 513  HEM513      0.0000
     43  O2D       20.3090   55.0720   18.7030 O.co2 513  HEM513      0.0000
@<TRIPOS>BOND
     1    24    23    2
     2    22    19    1
     3    23    20    1
     4    19    20    2
     5    19    18    1
     6    20    21    1
     7    16    14   ar
     8    15    14   ar
     9    18     3    1
    10    18    17    2
    11    14    13    1
    12    21     4    2
    13    21    17    1
    14     3    10    2
    15    11     9    1
    16     4    26    1
    17    17     1    1
    18    10     9   ar
    19    10     6   ar
    20     9     8   ar
    21    13    12    1
    22    26    27   ar
    23    26    25   ar
    24     6     1    1
    25     6     7   ar
    26     8    12    1
    27     8     7   ar
    28    30    27    1
    29     1    25    1
    30     1    33    1
    31     7     2    2
    32    27    28   ar
    33    25    29   ar
    34    42    41   ar
    35     2    37    1
    36    43    41   ar
    37    28    29   ar
    38    28    31    1
    39    29     5    1
    40    33    37    2
    41    33    34    1
    42    41    40    1
    43    37    36    1
    44    32    31    1
    45    34     5    2
    46    34    35    1
    47    36    35    2
    48    36    39    1
    49    40    39    1
    50    35    38    1
