@<TRIPOS>MOLECULE
3bnh_HEM_A_1.pdb
 43 50 0 0 0
SMALL
GASTEIGER

@<TRIPOS>ATOM
      1 FE         27.5950   57.0040   16.8690 Fe    510  HEM510      0.0000
      2  CHA       25.4830   54.4870   18.0650 C.2   510  HEM510      0.0000
      3  CHB       29.2230   54.7670   14.9440 C.2   510  HEM510      0.0000
      4  CHC       29.2360   59.6090   15.3970 C.2   510  HEM510      0.0000
      5  CHD       26.4080   59.0850   19.2490 C.2   510  HEM510      0.0000
      6  NA        27.3820   55.0190   16.5780 N.ar  510  HEM510      0.0000
      7  C1A       26.4890   54.1550   17.1760 C.ar  510  HEM510      0.0000
      8  C2A       26.7650   52.8070   16.6990 C.ar  510  HEM510      0.0000
      9  C3A       27.7820   52.8990   15.8390 C.ar  510  HEM510      0.0000
     10  C4A       28.2010   54.2830   15.7430 C.ar  510  HEM510      0.0000
     11  CMA       28.4290   51.7570   15.0390 C.3   510  HEM510      0.0000
     12  CAA       25.9930   51.5450   17.1450 C.3   510  HEM510      0.0000
     13  CBA       24.6520   51.4220   16.4050 C.3   510  HEM510      0.0000
     14  CGA       24.8710   51.2650   14.9210 C.2   510  HEM510      0.0000
     15  O1A       25.2190   50.1420   14.4660 O.co2 510  HEM510      0.0000
     16  O2A       24.6860   52.2740   14.1920 O.co2 510  HEM510      0.0000
     17  NB        29.0610   57.1470   15.4830 N.2   510  HEM510      0.0000
     18  C1B       29.4820   56.1090   14.6900 C.2   510  HEM510      0.0000
     19  C2B       30.1990   56.6630   13.5480 C.2   510  HEM510      0.0000
     20  C3B       30.1820   58.0170   13.6940 C.2   510  HEM510      0.0000
     21  C4B       29.4430   58.3350   14.8990 C.2   510  HEM510      0.0000
     22  CMB       30.8120   55.8150   12.4150 C.3   510  HEM510      0.0000
     23  CAB       30.6870   59.1180   12.7590 C.3   510  HEM510      0.0000
     24  CBB       29.9040   59.3080   11.6540 C.3   510  HEM510      0.0000
     25  NC        27.7830   59.0380   17.2460 N.ar  510  HEM510      0.0000
     26  C1C       28.5640   59.9260   16.5480 C.ar  510  HEM510      0.0000
     27  C2C       28.5470   61.2060   17.2540 C.ar  510  HEM510      0.0000
     28  C3C       27.7180   61.0570   18.3190 C.ar  510  HEM510      0.0000
     29  C4C       27.2510   59.6810   18.3340 C.ar  510  HEM510      0.0000
     30  CMC       29.3140   62.4650   16.8000 C.3   510  HEM510      0.0000
     31  CAC       27.3510   62.1130   19.4230 C.2   510  HEM510      0.0000
     32  CBC       27.1900   63.4450   19.1520 C.2   510  HEM510      0.0000
     33  ND        26.1680   56.7840   18.3890 N.2   510  HEM510      0.0000
     34  C1D       25.8430   57.8330   19.2280 C.2   510  HEM510      0.0000
     35  C2D       24.7430   57.4350   20.0970 C.2   510  HEM510      0.0000
     36  C3D       24.4010   55.9940   19.7300 C.2   510  HEM510      0.0000
     37  C4D       25.3490   55.6950   18.6740 C.2   510  HEM510      0.0000
     38  CMD       24.0800   58.3160   21.1680 C.3   510  HEM510      0.0000
     39  CAD       23.3240   55.0810   20.3440 C.3   510  HEM510      0.0000
     40  CBD       21.9220   55.5730   19.9360 C.3   510  HEM510      0.0000
     41  CGD       21.4830   55.0070   18.6090 C.2   510  HEM510      0.0000
     42  O1D       22.3140   54.3650   17.9100 O.co2 510  HEM510      0.0000
     43  O2D       20.2950   55.2030   18.2210 O.co2 510  HEM510      0.0000
@<TRIPOS>BOND
     1    24    23    1
     2    22    19    1
     3    23    20    1
     4    19    20    2
     5    19    18    1
     6    20    21    1
     7    16    14   ar
     8    15    14   ar
     9    18     3    1
    10    18    17    2
    11    21     4    2
    12    21    17    1
    13    14    13    1
    14     3    10    2
    15    11     9    1
    16     4    26    1
    17    17     1    1
    18    10     9   ar
    19    10     6   ar
    20     9     8   ar
    21    13    12    1
    22    26    25   ar
    23    26    27   ar
    24     6     1    1
    25     6     7   ar
    26     8    12    1
    27     8     7   ar
    28    30    27    1
    29     1    25    1
    30     1    33    1
    31     7     2    2
    32    25    29   ar
    33    27    28   ar
    34    42    41   ar
    35     2    37    1
    36    43    41   ar
    37    28    29   ar
    38    28    31    1
    39    29     5    1
    40    33    37    2
    41    33    34    1
    42    41    40    1
    43    37    36    1
    44    32    31    2
    45    34     5    2
    46    34    35    1
    47    36    35    2
    48    36    39    1
    49    40    39    1
    50    35    38    1
