@<TRIPOS>MOLECULE
3bnj_HEM_A_1.pdb
 43 50 0 0 0
SMALL
GASTEIGER

@<TRIPOS>ATOM
      1 FE         27.0920   56.4870   16.7350 Fe    513  HEM513      0.0000
      2  CHA       25.0350   54.0240   17.8560 C.2   513  HEM513      0.0000
      3  CHB       28.7570   54.2380   14.8090 C.2   513  HEM513      0.0000
      4  CHC       28.7080   59.0500   15.2260 C.2   513  HEM513      0.0000
      5  CHD       25.8980   58.6080   19.0830 C.2   513  HEM513      0.0000
      6  NA        26.9260   54.5270   16.3980 N.ar  513  HEM513      0.0000
      7  C1A       26.0460   53.6710   17.0030 C.ar  513  HEM513      0.0000
      8  C2A       26.2950   52.3330   16.5360 C.ar  513  HEM513      0.0000
      9  C3A       27.3460   52.3860   15.7010 C.ar  513  HEM513      0.0000
     10  C4A       27.7410   53.7680   15.5830 C.ar  513  HEM513      0.0000
     11  CMA       27.9910   51.2250   14.9340 C.3   513  HEM513      0.0000
     12  CAA       25.5160   51.1060   17.0030 C.3   513  HEM513      0.0000
     13  CBA       24.1800   50.9660   16.2720 C.3   513  HEM513      0.0000
     14  CGA       24.3940   50.8310   14.7810 C.2   513  HEM513      0.0000
     15  O1A       24.8540   49.7330   14.3590 O.co2 513  HEM513      0.0000
     16  O2A       24.1380   51.8280   14.0300 O.co2 513  HEM513      0.0000
     17  NB        28.5000   56.6070   15.3570 N.2   513  HEM513      0.0000
     18  C1B       28.9750   55.5690   14.5870 C.2   513  HEM513      0.0000
     19  C2B       29.7330   56.1000   13.4880 C.2   513  HEM513      0.0000
     20  C3B       29.7080   57.4380   13.5980 C.2   513  HEM513      0.0000
     21  C4B       28.9220   57.7800   14.7670 C.2   513  HEM513      0.0000
     22  CMB       30.4160   55.2260   12.4160 C.3   513  HEM513      0.0000
     23  CAB       30.2780   58.4930   12.6530 C.3   513  HEM513      0.0000
     24  CBB       29.5080   58.7290   11.5310 C.3   513  HEM513      0.0000
     25  NC        27.2490   58.4490   17.0890 N.ar  513  HEM513      0.0000
     26  C1C       28.0340   59.3360   16.3760 C.ar  513  HEM513      0.0000
     27  C2C       28.0370   60.6080   17.0650 C.ar  513  HEM513      0.0000
     28  C3C       27.2410   60.4760   18.1400 C.ar  513  HEM513      0.0000
     29  C4C       26.7320   59.1340   18.1590 C.ar  513  HEM513      0.0000
     30  CMC       28.8120   61.8550   16.6210 C.3   513  HEM513      0.0000
     31  CAC       26.9010   61.5070   19.2410 C.2   513  HEM513      0.0000
     32  CBC       26.6500   62.8170   18.9730 C.2   513  HEM513      0.0000
     33  ND        25.6950   56.3550   18.1720 N.2   513  HEM513      0.0000
     34  C1D       25.3510   57.3740   19.0410 C.2   513  HEM513      0.0000
     35  C2D       24.2830   56.9430   19.8910 C.2   513  HEM513      0.0000
     36  C3D       23.9880   55.5420   19.4970 C.2   513  HEM513      0.0000
     37  C4D       24.9140   55.2500   18.4370 C.2   513  HEM513      0.0000
     38  CMD       23.6120   57.7660   20.9890 C.3   513  HEM513      0.0000
     39  CAD       22.9320   54.6480   20.1290 C.3   513  HEM513      0.0000
     40  CBD       21.5190   55.0650   19.7050 C.3   513  HEM513      0.0000
     41  CGD       21.1110   54.5110   18.3690 C.2   513  HEM513      0.0000
     42  O1D       21.8890   53.7550   17.7230 O.co2 513  HEM513      0.0000
     43  O2D       19.9610   54.8340   17.9650 O.co2 513  HEM513      0.0000
@<TRIPOS>BOND
     1    24    23    1
     2    22    19    1
     3    23    20    1
     4    19    20    2
     5    19    18    1
     6    20    21    1
     7    16    14   ar
     8    15    14   ar
     9    18     3    1
    10    18    17    2
    11    21     4    2
    12    21    17    1
    13    14    13    1
    14     3    10    2
    15    11     9    1
    16     4    26    1
    17    17     1    1
    18    10     9   ar
    19    10     6   ar
    20     9     8   ar
    21    13    12    1
    22    26    27   ar
    23    26    25   ar
    24     6     1    1
    25     6     7   ar
    26     8    12    1
    27     8     7   ar
    28    30    27    1
    29     1    25    1
    30     1    33    1
    31     7     2    2
    32    27    28   ar
    33    25    29   ar
    34    42    41   ar
    35     2    37    1
    36    43    41   ar
    37    28    29   ar
    38    28    31    1
    39    29     5    1
    40    33    37    2
    41    33    34    1
    42    41    40    1
    43    37    36    1
    44    32    31    2
    45    34     5    2
    46    34    35    1
    47    36    35    2
    48    36    39    1
    49    40    39    1
    50    35    38    1
