@<TRIPOS>MOLECULE
3bnk_FMN_A_1.pdb
 31 33 0 0 0
SMALL
GASTEIGER

@<TRIPOS>ATOM
      1  N1       -15.6240    6.5430   11.2870 N.2   1001  FMN1001    -0.2887
      2  C2       -14.9370    6.3520   12.4550 C.1   1001  FMN1001     0.3669
      3  O2       -15.2140    7.0880   13.3930 O.2   1001  FMN1001    -0.1744
      4  N3       -13.9730    5.3460   12.5420 N.2   1001  FMN1001    -0.2300
      5  C4       -13.7240    4.5310   11.4420 C.1   1001  FMN1001     0.2513
      6  O4       -12.9160    3.6080   11.5130 O.2   1001  FMN1001    -0.2057
      7  C4A      -14.4330    4.7310   10.2480 C.2   1001  FMN1001     0.2706
      8  N5       -14.1830    3.9390    9.1460 N.2   1001  FMN1001    -0.3841
      9  C5A      -14.8870    4.1320    7.9740 C.2   1001  FMN1001     0.1452
     10  C6       -14.6250    3.3070    6.8800 C.2   1001  FMN1001     0.0252
     11  C7       -15.3340    3.4770    5.6850 C.2   1001  FMN1001    -0.0375
     12  C7M      -15.3280    2.3390    4.6990 C.3   1001  FMN1001     0.0268
     13  C8       -16.2990    4.4940    5.5960 C.3   1001  FMN1001     0.0417
     14  C8M      -17.2090    4.6070    4.4030 C.3   1001  FMN1001     0.0091
     15  C9       -16.5510    5.3250    6.6920 C.2   1001  FMN1001    -0.0049
     16  C9A      -15.8570    5.1490    7.8940 C.2   1001  FMN1001     0.0795
     17  N10      -16.1040    5.9650    9.0110 N.pl3 1001  FMN1001    -0.2545
     18  C10      -15.3900    5.7460   10.1770 C.2   1001  FMN1001     0.2449
     19  C1'      -17.1780    7.0160    9.0160 C.3   1001  FMN1001     0.1336
     20  C2'      -18.4870    6.4560    9.5850 C.3   1001  FMN1001     0.2048
     21  O2'      -18.6170    5.1100    9.1800 O.3   1001  FMN1001    -0.2185
     22  C3'      -19.6830    7.2730    9.0930 C.3   1001  FMN1001     0.2165
     23  O3'      -19.5500    8.6340    9.4650 O.3   1001  FMN1001    -0.2175
     24  C4'      -21.0560    6.7550    9.5280 C.3   1001  FMN1001     0.2147
     25  O4'      -22.0250    7.4380    8.7480 O.3   1001  FMN1001    -0.2176
     26  C5'      -21.3310    6.9810   11.0140 C.3   1001  FMN1001     0.1892
     27  O5'      -22.6720    6.6340   11.2760 O.3   1001  FMN1001    -0.2674
     28  P        -23.3670    6.7880   12.7220 P.3   1001  FMN1001     0.5327
     29  O1P      -23.4670    8.2760   12.9240 O.3   1001  FMN1001    -0.1145
     30  O2P      -22.5220    6.2210   13.8260 O.3   1001  FMN1001    -0.1145
     31  O3P      -24.7060    6.0850   12.6530 O.2   1001  FMN1001    -0.2224
@<TRIPOS>BOND
     1    14    13    1
     2    12    11    1
     3    13    11    1
     4    13    15    1
     5    11    10    2
     6    15    16    2
     7    10     9    1
     8    16     9    1
     9    16    17    1
    10     9     8    2
    11    25    24    1
    12    17    19    1
    13    17    18    1
    14    19    20    1
    15    22    23    1
    16    22    24    1
    17    22    20    1
    18     8     7    2
    19    21    20    1
    20    24    26    1
    21    18     7    1
    22    18     1    2
    23     7     5    1
    24    26    27    1
    25    27    28    1
    26     1     2    2
    27     5     6    2
    28     5     4    2
    29     2     4    2
    30     2     3    2
    31    31    28    2
    32    28    29    1
    33    28    30    1
