@<TRIPOS>MOLECULE
3bnm_SPJ_A_1.pdb
 16 15 0 0 0
SMALL
GASTEIGER

@<TRIPOS>ATOM
      1  N1B       97.5340   38.0200   55.6190 N.3   802  SPJ802     -0.1329
      2  C1C       96.3980   37.1180   55.8540 C.3   802  SPJ802      0.0933
      3  C1A       96.6990   36.2440   57.0730 C.3   802  SPJ802      0.0205
      4  C1D       96.1700   36.2550   54.6100 C.3   802  SPJ802      0.0378
      5  C1E       94.9230   35.3800   54.7560 C.3   802  SPJ802      0.0902
      6  N1F       94.8010   34.4900   53.5920 N.3   802  SPJ802     -0.2180
      7  C1G       95.9450   33.5670   53.5740 C.3   802  SPJ802      0.0887
      8  C1H       95.9210   32.7050   52.3100 C.3   802  SPJ802      0.0203
      9  C1I       97.1980   31.8660   52.2330 C.3   802  SPJ802      0.0203
     10  C1J       97.2550   31.0280   50.9540 C.3   802  SPJ802      0.0887
     11  N1K       98.5630   30.3600   50.8730 N.3   802  SPJ802     -0.2180
     12  C1L       98.4140   28.9060   51.0270 C.3   802  SPJ802      0.0902
     13  C1M       98.0450   28.5560   52.4700 C.3   802  SPJ802      0.0378
     14  C1N       97.7900   27.0540   52.6150 C.3   802  SPJ802      0.0933
     15  C1P       99.0290   26.2420   52.2320 C.3   802  SPJ802      0.0205
     16  N1O       97.4170   26.7490   54.0040 N.3   802  SPJ802     -0.1329
@<TRIPOS>BOND
     1    11    10    1
     2    11    12    1
     3    10     9    1
     4    12    13    1
     5    15    14    1
     6     9     8    1
     7     8     7    1
     8    13    14    1
     9    14    16    1
    10     7     6    1
    11     6     5    1
    12     4     5    1
    13     4     2    1
    14     1     2    1
    15     2     3    1
