@<TRIPOS>MOLECULE
3bnu_SPZ_A_1.pdb
 16 15 0 0 0
SMALL
GASTEIGER

@<TRIPOS>ATOM
      1  N1B       14.3070   15.3980   89.0710 N.3   802  SPZ802     -0.1329
      2  C1C       13.0560   15.6380   89.8030 C.3   802  SPZ802      0.0933
      3  C1A       13.0850   14.8310   91.1030 C.3   802  SPZ802      0.0205
      4  C1D       12.9150   17.1350   90.0890 C.3   802  SPZ802      0.0378
      5  C1E       11.6090   17.4490   90.8240 C.3   802  SPZ802      0.0902
      6  N1F       11.5610   18.8820   91.1490 N.3   802  SPZ802     -0.2180
      7  C1G       10.3110   19.1900   91.8580 C.3   802  SPZ802      0.0887
      8  C1H       10.3190   20.6490   92.3210 C.3   802  SPZ802      0.0203
      9  C1I       11.4320   20.9000   93.3400 C.3   802  SPZ802      0.0203
     10  C1J       11.4520   22.3660   93.7800 C.3   802  SPZ802      0.0887
     11  N1K       12.5300   22.5840   94.7560 N.3   802  SPZ802     -0.2180
     12  C1L       12.2110   21.9100   96.0230 C.3   802  SPZ802      0.0902
     13  C1M       13.3590   22.1110   97.0140 C.3   802  SPZ802      0.0378
     14  C1N       13.0510   21.4750   98.3720 C.3   802  SPZ802      0.0933
     15  C1P       12.7950   19.9720   98.2400 C.3   802  SPZ802      0.0205
     16  N1O       11.8700   22.1230   98.9590 N.3   802  SPZ802     -0.1329
@<TRIPOS>BOND
     1     1     2    1
     2     2     4    1
     3     2     3    1
     4     4     5    1
     5     5     6    1
     6     6     7    1
     7     7     8    1
     8     8     9    1
     9     9    10    1
    10    10    11    1
    11    11    12    1
    12    12    13    1
    13    13    14    1
    14    15    14    1
    15    14    16    1
