@<TRIPOS>MOLECULE
3bnx_FPP_A_1.pdb
 24 23 0 0 0
SMALL
GASTEIGER

@<TRIPOS>ATOM
      1  C1        -0.7970  -36.7900   20.5130 C.3   400  FPP400      0.1747
      2  O1        -2.0230  -37.3940   20.0680 O.3   400  FPP400     -0.3089
      3  C2        -0.8600  -35.2620   20.3510 C.2   400  FPP400     -0.0024
      4  C3        -0.0330  -34.4670   21.0420 C.2   400  FPP400     -0.0454
      5  C4         1.0030  -35.0560   21.9930 C.3   400  FPP400      0.0261
      6  C5        -0.1310  -32.9630   20.8880 C.3   400  FPP400      0.0264
      7  C6         1.1990  -32.3880   20.4090 C.3   400  FPP400      0.0297
      8  C7         1.1030  -32.0910   18.9300 C.2   400  FPP400     -0.0342
      9  C8         1.7790  -32.7940   18.0410 C.2   400  FPP400     -0.0478
     10  C10        2.6900  -33.9390   18.4670 C.3   400  FPP400      0.0260
     11  C9         1.6420  -32.4540   16.5850 C.3   400  FPP400      0.0263
     12  C11        0.7940  -33.5240   15.9170 C.3   400  FPP400      0.0297
     13  C12       -0.3580  -32.8870   15.1830 C.2   400  FPP400     -0.0342
     14  C13       -1.5980  -33.3370   15.3140 C.2   400  FPP400     -0.0478
     15  C14       -2.6940  -32.6740   14.5540 C.3   400  FPP400      0.0260
     16  C15       -1.9240  -34.5160   16.2150 C.3   400  FPP400      0.0260
     17  PA        -1.8770  -38.9920   20.3080 P.3   400  FPP400      0.2233
     18  O1A       -0.6940  -39.5050   19.5700 O.2   400  FPP400     -0.5169
     19  O2A       -1.6660  -39.2630   21.8810 O.3   400  FPP400     -0.4370
     20  O3A       -3.2460  -39.7500   19.8280 O.3   400  FPP400     -0.2261
     21  PB        -3.0800  -40.3810   18.3120 P.3   400  FPP400      0.5373
     22  O1B       -1.7080  -40.1850   17.7930 O.3   400  FPP400     -0.1143
     23  O2B       -3.3980  -41.9600   18.3770 O.3   400  FPP400     -0.1143
     24  O3B       -4.1230  -39.6730   17.3090 O.2   400  FPP400     -0.2221
@<TRIPOS>BOND
     1    15    14    1
     2    13    14    2
     3    13    12    1
     4    14    16    1
     5    12    11    1
     6    11     9    1
     7    24    21    2
     8    22    21    1
     9     9    10    1
    10     9     8    2
    11    21    23    1
    12    21    20    1
    13     8     7    1
    14    18    17    2
    15    20    17    1
    16     2    17    1
    17     2     1    1
    18    17    19    1
    19     3     1    1
    20     3     4    2
    21     7     6    1
    22     6     4    1
    23     4     5    1
