@<TRIPOS>MOLECULE
3bny_FPF_A_1.pdb
 25 24 0 0 0
SMALL
GASTEIGER

@<TRIPOS>ATOM
      1  C1        -1.0010  -36.7120   20.7920 C.3   400  FPF400      0.2044
      2  O1        -0.0780  -37.4470   19.9850 O.3   400  FPF400     -0.3065
      3  C2        -0.3460  -35.4400   21.2690 C.2   400  FPF400      0.1400
      4  F          0.6130  -35.2590   22.0420 F     400  FPF400     -0.2069
      5  C3        -0.7400  -34.2840   20.7960 C.2   400  FPF400     -0.0178
      6  C4        -1.8830  -34.2210   19.8140 C.3   400  FPF400      0.0284
      7  C5        -0.0510  -33.0160   21.2320 C.3   400  FPF400      0.0287
      8  C6         0.8420  -32.5350   19.9320 C.3   400  FPF400      0.0298
      9  C7         0.7080  -32.1310   18.4860 C.2   400  FPF400     -0.0342
     10  C8         1.3710  -32.7780   17.5600 C.2   400  FPF400     -0.0478
     11  C10        2.2450  -33.9470   17.9340 C.3   400  FPF400      0.0260
     12  C9         1.2630  -32.3500   16.1190 C.3   400  FPF400      0.0263
     13  C11        1.1210  -33.5860   15.2280 C.3   400  FPF400      0.0297
     14  C12       -0.1440  -34.3220   15.5880 C.2   400  FPF400     -0.0342
     15  C13       -1.3110  -33.7790   15.3370 C.2   400  FPF400     -0.0478
     16  C14       -2.5770  -34.5270   15.6690 C.3   400  FPF400      0.0260
     17  C15       -1.3860  -32.4050   14.7210 C.3   400  FPF400      0.0260
     18  P1        -0.9550  -38.3340   18.9660 P.3   400  FPF400      0.2234
     19  O1A       -1.4230  -37.4840   17.8490 O.2   400  FPF400     -0.5169
     20  O2A       -0.0490  -39.5320   18.3860 O.3   400  FPF400     -0.4370
     21  O3A       -2.2240  -38.9470   19.7430 O.3   400  FPF400     -0.2261
     22  P2        -2.8740  -40.0530   18.7700 P.3   400  FPF400      0.5373
     23  O1B       -2.0340  -41.2710   18.7760 O.3   400  FPF400     -0.1143
     24  O2B       -4.3540  -40.4200   19.2880 O.3   400  FPF400     -0.1143
     25  O3B       -2.9590  -39.4670   17.2730 O.2   400  FPF400     -0.2221
@<TRIPOS>BOND
     1    17    15    1
     2    13    14    1
     3    13    12    1
     4    15    14    2
     5    15    16    1
     6    12    10    1
     7    25    22    2
     8    10    11    1
     9    10     9    2
    10    19    18    2
    11    20    18    1
    12     9     8    1
    13    22    23    1
    14    22    24    1
    15    22    21    1
    16    18    21    1
    17    18     2    1
    18     6     5    1
    19     8     7    1
    20     2     1    1
    21     1     3    1
    22     5     7    1
    23     5     3    2
    24     3     4    1
