@<TRIPOS>MOLECULE
3bnz_UMP_A_1.pdb
 20 21 0 0 0
SMALL
GASTEIGER

@<TRIPOS>ATOM
      1  N1       -27.5450   34.0000  -14.0050 N.am  317  UMP317     -0.1790
      2  C2       -26.9770   32.9850  -13.2370 C.1   317  UMP317      0.2844
      3  N3       -27.5980   32.5200  -12.1100 N.2   317  UMP317     -0.2452
      4  C4       -28.8020   33.0680  -11.6910 C.1   317  UMP317      0.2182
      5  C5       -29.3880   34.1030  -12.4520 C.2   317  UMP317      0.1242
      6  C6       -28.7320   34.5630  -13.6110 C.2   317  UMP317      0.0928
      7  O2       -25.9350   32.4480  -13.5260 O.2   317  UMP317     -0.1918
      8  O4       -29.3360   32.6280  -10.6570 O.2   317  UMP317     -0.2085
      9  C1'      -26.8770   34.5100  -15.2070 C.3   317  UMP317      0.2090
     10  C2'      -26.7130   33.4930  -16.3330 C.3   317  UMP317      0.0874
     11  C3'      -26.4530   34.4430  -17.4880 C.3   317  UMP317      0.1857
     12  C4'      -27.0280   35.7860  -17.0590 C.3   317  UMP317      0.1774
     13  O3'      -25.0710   34.6180  -17.6970 O.3   317  UMP317     -0.2203
     14  O4'      -27.6030   35.5810  -15.7800 O.3   317  UMP317     -0.3339
     15  C5'      -28.0140   36.3520  -18.0810 C.3   317  UMP317      0.1858
     16  O5'      -29.2240   35.6200  -18.2080 O.3   317  UMP317     -0.2675
     17  P        -29.7530   35.0730  -19.6480 P.3   317  UMP317      0.5327
     18  OP1      -31.2330   35.3560  -19.7590 O.3   317  UMP317     -0.1145
     19  OP2      -28.9680   35.7310  -20.7540 O.2   317  UMP317     -0.2224
     20  OP3      -29.5140   33.5880  -19.7570 O.3   317  UMP317     -0.1145
@<TRIPOS>BOND
     1    19    17    2
     2    18    17    1
     3    20    17    1
     4    17    16    1
     5    16    15    1
     6    15    12    1
     7    13    11    1
     8    11    12    1
     9    11    10    1
    10    12    14    1
    11    10     9    1
    12    14     9    1
    13     9     1    1
    14     1     6    1
    15     1     2   am
    16     6     5    2
    17     7     2    2
    18     2     3    2
    19     5     4    1
    20     3     4    2
    21     4     8    2
