@<TRIPOS>MOLECULE
3bnz_C16_A_1.pdb
 20 22 0 0 0
SMALL
GASTEIGER

@<TRIPOS>ATOM
      1  N41      -25.2280   44.1360   -8.1780 N.1   318  C16318     -0.1908
      2  C39      -25.5910   43.1090   -8.3960 C.1   318  C16318      0.1004
      3  C32      -26.0300   41.9050   -8.3090 C.ar  318  C16318      0.0685
      4  C30      -25.9380   41.2510   -7.0870 C.ar  318  C16318      0.0116
      5  C28      -26.3850   39.9340   -7.0050 C.ar  318  C16318      0.0160
      6  C34      -26.5430   41.2470   -9.4310 C.ar  318  C16318      0.0116
      7  C36      -26.9870   39.9290   -9.3140 C.ar  318  C16318      0.0160
      8  C26      -26.9390   39.2210   -8.0930 C.ar  318  C16318      0.0613
      9  N19      -27.3430   37.9300   -7.9560 N.am  318  C16318     -0.2011
     10  C21      -28.6190   37.4150   -7.9700 C.2   318  C16318      0.2589
     11  O23      -29.7590   38.0090   -8.1340 O.2   318  C16318     -0.2691
     12  C6       -28.5930   35.9480   -7.7770 C.ar  318  C16318      0.0584
     13  C4       -29.5680   34.9580   -7.7140 C.ar  318  C16318      0.0047
     14  C2       -29.1080   33.6480   -7.5120 C.ar  318  C16318     -0.0002
     15  C15      -26.4420   36.9420   -7.7570 C.2   318  C16318      0.2586
     16  O17      -25.1510   37.0240   -7.6770 O.2   318  C16318     -0.2692
     17  C8       -27.1430   35.6530   -7.6380 C.ar  318  C16318      0.0547
     18  C10      -26.7190   34.2790   -7.4290 C.ar  318  C16318     -0.0173
     19  C13      -25.2370   34.0500   -7.3140 C.3   318  C16318      0.0312
     20  C1       -27.7370   33.3150   -7.3730 C.ar  318  C16318     -0.0041
@<TRIPOS>BOND
     1     6     7   ar
     2     6     3   ar
     3     7     8   ar
     4     2     3    1
     5     2     1    3
     6     3     4   ar
     7    11    10    2
     8     8     9    1
     9     8     5   ar
    10    10     9   am
    11    10    12    1
    12     9    15   am
    13    12    13   ar
    14    12    17   ar
    15    15    16    2
    16    15    17    1
    17    13    14   ar
    18    17    18   ar
    19    14    20   ar
    20    18    20   ar
    21    18    19    1
    22     4     5   ar
