@<TRIPOS>MOLECULE
3bo5_SAH_A_1.pdb
 26 28 0 0 0
SMALL
GASTEIGER

@<TRIPOS>ATOM
      1  N         20.3870   12.4830   18.6330 N.3   305  SAH305     -0.1208
      2  CA        21.0120   11.1210   18.6380 C.3   305  SAH305      0.1952
      3  CB        20.8230   10.3940   19.9910 C.3   305  SAH305      0.0422
      4  CG        21.8570   10.9250   21.0000 C.3   305  SAH305      0.0597
      5  SD        23.5480   10.4340   20.5540 S.3   305  SAH305     -0.1375
      6  C         20.4250   10.3110   17.4600 C.2   305  SAH305      0.3819
      7  O         19.7270   10.8570   16.6110 O.co2 305  SAH305     -0.2441
      8  OXT       20.6870    9.0650   17.4180 O.co2 305  SAH305     -0.2441
      9  C5'       24.3840   12.0260   20.6950 C.3   305  SAH305      0.0899
     10  C4'       24.1830   12.9600   19.5040 C.3   305  SAH305      0.1630
     11  O4'       22.8940   13.5790   19.5420 O.3   305  SAH305     -0.3153
     12  C3'       25.1370   14.1180   19.4910 C.3   305  SAH305      0.2168
     13  O3'       26.3990   13.7410   18.8740 O.3   305  SAH305     -0.2175
     14  C2'       24.4150   15.1710   18.7020 C.3   305  SAH305      0.2569
     15  O2'       24.3370   14.8400   17.3030 O.3   305  SAH305     -0.2130
     16  C1'       23.0020   14.9780   19.2160 C.3   305  SAH305      0.3185
     17  N9        22.7410   15.7060   20.4740 N.pl3 305  SAH305     -0.1439
     18  C8        22.4520   15.1770   21.7290 C.3   305  SAH305      0.3377
     19  N7        22.1950   16.1710   22.5570 N.2   305  SAH305     -0.2095
     20  C5        22.2670   17.3380   21.8840 C.2   305  SAH305      0.2526
     21  C6        22.1170   18.6710   22.3220 C.2   305  SAH305      0.4393
     22  N6        21.7510   19.0640   23.5440 N.pl3 305  SAH305      0.2180
     23  N1        22.3330   19.6310   21.3380 N.2   305  SAH305      0.0021
     24  C2        22.6670   19.2990   20.0620 C.3   305  SAH305      0.5254
     25  N3        22.8000   18.0110   19.5840 N.2   305  SAH305     -0.0055
     26  C4        22.6530   17.0780   20.5660 C.2   305  SAH305      0.3518
@<TRIPOS>BOND
     1     7     6   ar
     2    15    14    1
     3     8     6   ar
     4     6     2    1
     5     1     2    1
     6     2     3    1
     7    14    16    1
     8    14    12    1
     9    13    12    1
    10    16    11    1
    11    16    17    1
    12    12    10    1
    13    10    11    1
    14    10     9    1
    15    25    24    1
    16    25    26    2
    17     3     4    1
    18    24    23    1
    19    17    26    1
    20    17    18    1
    21     5     9    1
    22     5     4    1
    23    26    20    1
    24    23    21    2
    25    18    19    1
    26    20    21    1
    27    20    19    2
    28    21    22    1
