@<TRIPOS>MOLECULE
3bo7_III_G_1.pdb
 31 30 0 0 0
SMALL
GASTEIGER

@<TRIPOS>ATOM
      1  N         50.1500   75.4360    6.1390 N.3     1  DAL1       -0.1231
      2  CA        49.2640   76.1120    5.1870 C.3     1  DAL1        0.1679
      3  CB        48.9750   75.1990    3.9810 C.3     1  DAL1        0.0304
      4  C         49.8330   77.4520    4.7130 C.2     1  DAL1        0.2434
      5  O         51.0300   77.5460    4.3820 O.2     1  DAL1       -0.2733
      6  N         48.9830   78.4840    4.6730 N.am    2  MLE2       -0.2701
      7  CN        47.5400   78.3080    4.8090 C.3     2  MLE2        0.1153
      8  CA        49.4910   79.8630    4.5010 C.3     2  MLE2        0.1520
      9  CB        49.1090   80.4830    3.1390 C.3     2  MLE2        0.0292
     10  CG        49.6630   79.7760    1.8910 C.3     2  MLE2        0.0021
     11  CD1       48.9030   80.1950    0.6390 C.3     2  MLE2        0.0001
     12  CD2       51.1520   80.0170    1.6690 C.3     2  MLE2        0.0001
     13  C         49.0860   80.7590    5.6590 C.2     2  MLE2        0.2441
     14  O         48.0950   81.4900    5.5440 O.2     2  MLE2       -0.2731
     15  N         49.8230   80.7000    6.7780 N.am    3  MLE3       -0.2699
     16  CN        51.0530   79.9200    6.8830 C.3     3  MLE3        0.1153
     17  CA        49.3990   81.4240    7.9980 C.3     3  MLE3        0.1520
     18  CB        49.1650   80.4690    9.1840 C.3     3  MLE3        0.0292
     19  CG        47.9840   79.5070    9.0010 C.3     3  MLE3        0.0021
     20  CD1       47.8500   78.6000   10.2190 C.3     3  MLE3        0.0001
     21  CD2       46.6530   80.1940    8.6990 C.3     3  MLE3        0.0001
     22  C         50.2780   82.5950    8.4160 C.2     3  MLE3        0.2441
     23  O         51.4670   82.6390    8.0700 O.2     3  MLE3       -0.2731
     24  N         49.6890   83.5540    9.1450 N.am    4  MVA4       -0.2710
     25  CN        48.2530   83.5590    9.4200 C.3     4  MVA4        0.1153
     26  CA        50.4500   84.6710    9.7390 C.3     4  MVA4        0.1401
     27  CB        50.5600   85.9650    8.9200 C.3     4  MVA4        0.0258
     28  CG1       51.8840   86.6510    9.2080 C.3     4  MVA4        0.0022
     29  CG2       50.3910   85.8030    7.4190 C.3     4  MVA4        0.0022
     30  C         49.8060   85.0520   11.0410 C.2     4  MVA4        0.2269
     31  O         50.4870   85.4610   11.9670 O.2     4  MVA4       -0.2865
@<TRIPOS>BOND
     1    11    10    1
     2    12    10    1
     3    10     9    1
     4     9     8    1
     5     3     2    1
     6     5     4    2
     7     8     6    1
     8     8    13    1
     9     6     4   am
    10     6     7    1
    11     4     2    1
    12     2     1    1
    13    14    13    2
    14    13    15   am
    15    15    16    1
    16    15    17    1
    17    29    27    1
    18    17    22    1
    19    17    18    1
    20    23    22    2
    21    22    24   am
    22    21    19    1
    23    27    28    1
    24    27    26    1
    25    19    18    1
    26    19    20    1
    27    24    25    1
    28    24    26    1
    29    26    30    1
    30    30    31    2
