@<TRIPOS>MOLECULE
3bom_HEM_A_1.pdb
 43 50 0 0 0
SMALL
GASTEIGER

@<TRIPOS>ATOM
      1  CHA       29.1030    3.0810   32.6510 C.2   143  HEM143      0.0000
      2  CHB       24.7280    3.4040   34.6580 C.2   143  HEM143      0.0000
      3  CHC       22.8260    4.3550   30.3280 C.2   143  HEM143      0.0000
      4  CHD       27.1970    4.0840   28.2880 C.2   143  HEM143      0.0000
      5  C1A       28.0960    3.0970   33.5790 C.2   143  HEM143      0.0000
      6  C2A       28.2460    2.8520   35.0090 C.2   143  HEM143      0.0000
      7  C3A       27.0230    2.9440   35.5450 C.2   143  HEM143      0.0000
      8  C4A       26.0740    3.2310   34.4860 C.2   143  HEM143      0.0000
      9  CMA       26.6080    2.7660   37.0210 C.3   143  HEM143      0.0000
     10  CAA       29.5810    2.5680   35.7520 C.3   143  HEM143      0.0000
     11  CBA       30.2650    3.9140   35.9810 C.3   143  HEM143      0.0000
     12  CGA       31.5610    3.7560   36.7390 C.2   143  HEM143      0.0000
     13  O1A       32.5790    3.3750   36.1140 O.co2 143  HEM143      0.0000
     14  O2A       31.5680    4.0160   37.9660 O.co2 143  HEM143      0.0000
     15  C1B       23.8210    3.6780   33.6660 C.ar  143  HEM143      0.0000
     16  C2B       22.3950    3.7960   33.8440 C.ar  143  HEM143      0.0000
     17  C3B       21.8610    4.0700   32.6410 C.ar  143  HEM143      0.0000
     18  C4B       22.9530    4.1280   31.6740 C.ar  143  HEM143      0.0000
     19  CMB       21.6440    3.6410   35.1950 C.3   143  HEM143      0.0000
     20  CAB       20.3620    4.2760   32.3370 C.2   143  HEM143      0.0000
     21  CBB       19.9600    5.0690   31.3390 C.2   143  HEM143      0.0000
     22  C1C       23.8290    4.2690   29.3980 C.2   143  HEM143      0.0000
     23  C2C       23.6390    4.2730   27.9640 C.2   143  HEM143      0.0000
     24  C3C       24.8630    4.2050   27.4090 C.2   143  HEM143      0.0000
     25  C4C       25.8370    4.1650   28.4780 C.2   143  HEM143      0.0000
     26  CMC       22.2560    4.3360   27.2690 C.3   143  HEM143      0.0000
     27  CAC       25.2740    4.1610   25.9210 C.2   143  HEM143      0.0000
     28  CBC       24.4530    3.7780   24.9330 C.2   143  HEM143      0.0000
     29  C1D       28.1120    3.7080   29.2370 C.ar  143  HEM143      0.0000
     30  C2D       29.4770    3.3320   28.9740 C.ar  143  HEM143      0.0000
     31  C3D       30.0550    3.0090   30.3400 C.ar  143  HEM143      0.0000
     32  C4D       28.9890    3.2340   31.2870 C.ar  143  HEM143      0.0000
     33  CMD       30.2070    3.2500   27.6160 C.3   143  HEM143      0.0000
     34  CAD       31.4870    2.5360   30.6230 C.3   143  HEM143      0.0000
     35  CBD       31.4690    1.0100   30.5390 C.3   143  HEM143      0.0000
     36  CGD       32.8340    0.4360   30.2280 C.2   143  HEM143      0.0000
     37  O1D       33.0070   -0.7930   30.3700 O.co2 143  HEM143      0.0000
     38  O2D       33.7480    1.1950   29.8210 O.co2 143  HEM143      0.0000
     39  NA        26.7620    3.3370   33.2990 N.2   143  HEM143      0.0000
     40  NB        24.1510    3.9040   32.3430 N.ar  143  HEM143      0.0000
     41  NC        25.1730    4.2130   29.6860 N.2   143  HEM143      0.0000
     42  ND        27.8510    3.6460   30.6010 N.ar  143  HEM143      0.0000
     43 FE         26.0120    3.9120   31.4980 Fe    143  HEM143      0.0000
@<TRIPOS>BOND
     1    28    27    2
     2    27    24    1
     3    26    23    1
     4    24    23    2
     5    24    25    1
     6    33    30    1
     7    23    22    1
     8     4    25    1
     9     4    29    2
    10    25    41    2
    11    30    29   ar
    12    30    31   ar
    13    29    42   ar
    14    22    41    1
    15    22     3    2
    16    41    43    1
    17    38    36   ar
    18    36    37   ar
    19    36    35    1
    20     3    18    1
    21    31    34    1
    22    31    32   ar
    23    35    34    1
    24    42    32   ar
    25    42    43    1
    26    32     1    2
    27    21    20    2
    28    43    40    1
    29    43    39    1
    30    18    40   ar
    31    18    17   ar
    32    20    17    1
    33    40    15   ar
    34    17    16   ar
    35     1     5    1
    36    39     5    2
    37    39     8    1
    38     5     6    1
    39    15    16   ar
    40    15     2    1
    41    16    19    1
    42     8     2    2
    43     8     7    1
    44     6     7    2
    45     6    10    1
    46     7     9    1
    47    10    11    1
    48    11    12    1
    49    13    12   ar
    50    12    14   ar
