@<TRIPOS>MOLECULE
3bos_CDP_A_1.pdb
 25 26 0 0 0
SMALL
GASTEIGER

@<TRIPOS>ATOM
      1  O3B       53.7920   62.8660   15.4660 O.3   300  CDP300     -0.1143
      2  PB        54.8100   63.8980   15.0780 P.3   300  CDP300      0.5373
      3  O1B       54.3400   65.3100   15.2830 O.2   300  CDP300     -0.2221
      4  O2B       56.2060   63.6330   15.6310 O.3   300  CDP300     -0.1143
      5  O3A       54.9950   63.7270   13.4770 O.3   300  CDP300     -0.2261
      6  PA        54.3360   62.7200   12.4330 P.3   300  CDP300      0.2231
      7  O1A       54.6230   61.2740   12.7250 O.3   300  CDP300     -0.4370
      8  O2A       52.8970   63.1110   12.2430 O.2   300  CDP300     -0.5169
      9  O5'       55.1870   62.9900   11.0760 O.3   300  CDP300     -0.3111
     10  C5'       54.8800   64.0870   10.2390 C.3   300  CDP300      0.1813
     11  C4'       55.0750   63.6540    8.7820 C.3   300  CDP300      0.1799
     12  O4'       56.4600   63.4600    8.5190 O.3   300  CDP300     -0.3320
     13  C3'       54.3720   62.3440    8.4530 C.3   300  CDP300      0.2158
     14  O3'       53.8510   62.3710    7.1270 O.3   300  CDP300     -0.2175
     15  C2'       55.4840   61.3220    8.5380 C.3   300  CDP300      0.2319
     16  O2'       55.2040   60.1470    7.7740 O.3   300  CDP300     -0.2157
     17  C1'       56.6550   62.1410    8.0330 C.3   300  CDP300      0.2400
     18  N1        57.9860   61.7090    8.4900 N.am  300  CDP300     -0.1778
     19  C2        58.7510   60.8380    7.6810 C.1   300  CDP300      0.2756
     20  O2        58.2640   60.3620    6.6320 O.2   300  CDP300     -0.1925
     21  N3        59.9810   60.4550    8.1010 N.2   300  CDP300     -0.3024
     22  C4        60.4880   60.9280    9.2460 C.2   300  CDP300      0.2346
     23  N4        61.7240   60.5450    9.6180 N.pl3 300  CDP300     -0.0921
     24  C5        59.7580   61.8160   10.0370 C.2   300  CDP300      0.0687
     25  C6        58.4950   62.1990    9.6260 C.2   300  CDP300      0.0836
@<TRIPOS>BOND
     1    20    19    2
     2    14    13    1
     3    19    21    2
     4    19    18   am
     5    16    15    1
     6    17    18    1
     7    17    12    1
     8    17    15    1
     9    21    22    2
    10    13    15    1
    11    13    11    1
    12    18    25    1
    13    12    11    1
    14    11    10    1
    15    22    23    1
    16    22    24    1
    17    25    24    2
    18    10     9    1
    19     9     6    1
    20     8     6    2
    21     6     7    1
    22     6     5    1
    23     5     2    1
    24     2     3    2
    25     2     1    1
    26     2     4    1
