@<TRIPOS>MOLECULE
3boy_HIS_A_1.pdb
 11 11 0 0 0
SMALL
GASTEIGER

@<TRIPOS>ATOM
      1  N         -1.9800   16.2590   29.9450 N.3   1001  HIS1001    -0.1204
      2  CA        -1.6920   14.8840   29.6750 C.3   1001  HIS1001     0.1999
      3  C         -2.1930   13.9090   30.7090 C.2   1001  HIS1001     0.3822
      4  O         -3.1220   14.2960   31.4170 O.co2 1001  HIS1001    -0.2440
      5  CB        -0.1890   14.7670   29.4170 C.3   1001  HIS1001     0.0740
      6  CG         0.2070   15.4330   28.1370 C.2   1001  HIS1001     0.0651
      7  ND1        0.1680   16.8030   27.9670 N.2   1001  HIS1001    -0.2310
      8  CD2        0.5790   14.9130   26.9440 C.3   1001  HIS1001     0.1683
      9  CE1        0.5110   17.0950   26.7230 C.2   1001  HIS1001     0.1939
     10  NE2        0.7560   15.9690   26.0810 N.2   1001  HIS1001    -0.2440
     11  OXT       -1.6910   12.7910   30.8570 O.co2 1001  HIS1001    -0.2440
@<TRIPOS>BOND
     1    10     9    2
     2    10     8    1
     3     9     7    1
     4     8     6    1
     5     7     6    2
     6     6     5    1
     7     5     2    1
     8     2     1    1
     9     2     3    1
    10     3    11   ar
    11     3     4   ar
