@<TRIPOS>MOLECULE
3bpb_SMZ_A_1.pdb
 11 10 0 0 0
SMALL
GASTEIGER

@<TRIPOS>ATOM
      1  C2         1.3550   11.9310   -1.8660 C.3   500  SMZ500      0.1944
      2  O2         0.3670    9.7640   -1.6290 O.co2 500  SMZ500     -0.2441
      3  C4         3.3800   11.2350   -0.4040 C.3   500  SMZ500      0.0255
      4  C5         4.4900   12.2340   -0.7970 C.3   500  SMZ500      0.1140
      5  O1         1.1830   10.3380   -3.6040 O.co2 500  SMZ500     -0.2441
      6  C1         0.9500   10.5640   -2.4020 C.2   500  SMZ500      0.3819
      7  N2         0.1310   12.7500   -1.8640 N.3   500  SMZ500     -0.1208
      8  C3         1.9500   11.8270   -0.4440 C.3   500  SMZ500      0.0324
      9  N6         5.8140   11.5740   -0.7150 N.pl3 500  SMZ500     -0.2165
     10  C7         6.8740   11.9850    0.0000 C.2   500  SMZ500      0.2043
     11  N8         7.9680   11.2550   -0.0550 N.2   500  SMZ500     -0.1271
@<TRIPOS>BOND
     1     5     6   ar
     2     6     1    1
     3     6     2   ar
     4     1     7    1
     5     1     8    1
     6     4     9    1
     7     4     3    1
     8     9    10    1
     9     8     3    1
    10    11    10    2
