@<TRIPOS>MOLECULE
3bpc_KDB_A_1.pdb
 13 13 0 0 0
SMALL
GASTEIGER

@<TRIPOS>ATOM
      1  C2        28.7740   -4.5620    5.2000 C.3   217  KDB217      0.2400
      2  C1        28.3620   -6.0390    5.1780 C.2   217  KDB217      0.3956
      3  O1B       27.4240   -6.3390    4.4480 O.co2 217  KDB217     -0.2426
      4  O1A       29.0090   -6.8250    5.8970 O.co2 217  KDB217     -0.2426
      5  C3        27.8110   -3.8400    5.9070 C.2   217  KDB217      0.0099
      6  C4        28.0900   -2.9440    6.9630 C.2   217  KDB217     -0.0251
      7  C5        29.3930   -2.6770    7.4020 C.3   217  KDB217      0.0581
      8  C6        30.4350   -3.1740    6.4000 C.3   217  KDB217      0.1534
      9  O6        30.0580   -4.4700    5.8640 O.3   217  KDB217     -0.3407
     10  C7        31.8440   -3.4630    6.9520 C.3   217  KDB217      0.2120
     11  O7        31.7400   -4.4240    7.9910 O.3   217  KDB217     -0.2177
     12  C8        32.5530   -2.2280    7.4890 C.3   217  KDB217      0.2173
     13  O8        32.3540   -1.1000    6.6210 O.3   217  KDB217     -0.2175
@<TRIPOS>BOND
     1     3     2   ar
     2     2     1    1
     3     2     4   ar
     4     1     9    1
     5     1     5    1
     6     9     8    1
     7     5     6    2
     8     8    10    1
     9     8     7    1
    10    13    12    1
    11    10    12    1
    12    10    11    1
    13     6     7    1
