@<TRIPOS>MOLECULE
3bpc_KDA_B_1.pdb
 19 19 0 0 0
SMALL
GASTEIGER

@<TRIPOS>ATOM
      1  C1        30.8900   -0.5030    0.3010 C.2   212  KDA212      0.4152
      2  O1A       31.9250   -1.1340   -0.0190 O.co2 212  KDA212     -0.2402
      3  O1B       30.7850    0.7460    0.4000 O.co2 212  KDA212     -0.2402
      4  C2        29.6150   -1.3150    0.6130 C.3   212  KDA212      0.2866
      5  C3        28.7110   -1.1790   -0.6350 C.3   212  KDA212      0.1036
      6  C4        27.5380   -2.1790   -0.5610 C.3   212  KDA212      0.1901
      7  O4        26.9130   -2.1990   -1.8450 O.3   212  KDA212     -0.2201
      8  C5        27.9460   -3.6030   -0.1290 C.3   212  KDA212      0.2118
      9  O5        28.7660   -4.2730   -1.1320 O.3   212  KDA212     -0.2177
     10  C6        28.7940   -3.5310    1.1580 C.3   212  KDA212      0.1837
     11  O6        29.9400   -2.6730    0.9050 O.3   212  KDA212     -0.3230
     12  C7        29.3460   -4.8600    1.6590 C.3   212  KDA212      0.2143
     13  O7        28.2640   -5.7930    1.7670 O.3   212  KDA212     -0.2176
     14  C8        29.9660   -4.6830    3.0460 C.3   212  KDA212      0.2174
     15  O8        28.8810   -4.0780    3.8190 O.3   212  KDA212     -0.2175
     16  O2        28.9190   -0.7200    1.7570 O.3   212  KDA212     -0.3211
     17  C9        29.7800   -0.7750    2.8330 C.3   212  KDA212      0.1714
     18  C10       29.7190    0.0600    3.9430 C.2   212  KDA212      0.0057
     19  C11       28.7330    1.0070    4.0930 C.2   212  KDA212     -0.0023
@<TRIPOS>BOND
     1     7     6    1
     2     9     8    1
     3     5     6    1
     4     5     4    1
     5     6     8    1
     6     8    10    1
     7     2     1   ar
     8     1     3   ar
     9     1     4    1
    10     4    11    1
    11     4    16    1
    12    11    10    1
    13    10    12    1
    14    12    13    1
    15    12    14    1
    16    16    17    1
    17    17    18    1
    18    14    15    1
    19    18    19    2
