@<TRIPOS>MOLECULE
3bpf_E64_A_1.pdb
 25 24 0 0 0
SMALL
GASTEIGER

@<TRIPOS>ATOM
      1  C1       -53.3400   -3.4470  -20.2120 C.2   242  E64242      0.3680
      2  O1       -52.5410   -2.5240  -20.4830 O.co2 242  E64242     -0.2455
      3  O2       -53.7020   -4.3650  -20.9820 O.co2 242  E64242     -0.2455
      4  C2       -53.9250   -3.4600  -18.8010 C.3   242  E64242      0.1564
      5  C3       -55.3670   -2.9530  -18.7870 C.3   242  E64242      0.2403
      6  O3       -55.4430   -1.7200  -19.4770 O.3   242  E64242     -0.2126
      7  C4       -55.7750   -2.7260  -17.3440 C.2   242  E64242      0.2728
      8  O4       -56.7380   -3.3080  -16.8510 O.2   242  E64242     -0.2706
      9  N1       -55.0070   -1.8710  -16.6860 N.am  242  E64242     -0.1956
     10  C6       -55.2400   -1.5410  -15.2740 C.3   242  E64242      0.1728
     11  C7       -53.9500   -0.9560  -14.6900 C.3   242  E64242      0.0311
     12  C8       -53.6150   -1.6230  -13.3540 C.3   242  E64242      0.0022
     13  C9       -53.6200   -3.1640  -13.4540 C.3   242  E64242      0.0001
     14  C10      -52.2840   -1.0670  -12.8160 C.3   242  E64242      0.0001
     15  C11      -56.3610   -0.5180  -15.1640 C.2   242  E64242      0.2612
     16  O5       -56.2910    0.5740  -15.7310 O.2   242  E64242     -0.2715
     17  N2       -57.3850   -0.9200  -14.4210 N.am  242  E64242     -0.2040
     18  C12      -58.5740   -0.0870  -14.1820 C.3   242  E64242      0.1153
     19  C13      -59.5830   -0.2980  -15.3140 C.3   242  E64242      0.0271
     20  C14      -61.0180   -0.3260  -14.7690 C.3   242  E64242      0.0487
     21  C15      -61.7120    1.0360  -14.9470 C.3   242  E64242      0.2205
     22  N3       -61.9110    1.3100  -16.3840 N.pl3 242  E64242     -0.0865
     23  C16      -63.1090    1.2450  -16.9780 C.cat 242  E64242      0.5346
     24  N4       -64.2040    0.9210  -16.2860 N.pl3 242  E64242      0.1354
     25  N5       -63.2150    1.5040  -18.2850 N.pl3 242  E64242      0.1354
@<TRIPOS>BOND
     1     3     1   ar
     2     2     1   ar
     3     1     4    1
     4     6     5    1
     5     4     5    1
     6     5     7    1
     7    25    23    1
     8     7     8    2
     9     7     9   am
    10    23    22    2
    11    23    24    1
    12     9    10    1
    13    22    21    1
    14    16    15    2
    15    19    20    1
    16    19    18    1
    17    10    15    1
    18    10    11    1
    19    15    17   am
    20    21    20    1
    21    11    12    1
    22    17    18    1
    23    13    12    1
    24    12    14    1
