@<TRIPOS>MOLECULE
3bpm_III_C_1.pdb
 30 29 0 0 0
SMALL
GASTEIGER

@<TRIPOS>ATOM
      1  C        -12.7460   18.3970  -61.8160 C.2     1  ACE1        0.2423
      2  O        -13.1550   19.1990  -60.9530 O.2     1  ACE1       -0.2733
      3  CH3      -12.2680   18.9600  -63.1560 C.3     1  ACE1        0.0964
      4  N        -12.6660   17.0410  -61.7370 N.am    2  LEU2       -0.1978
      5  CA       -13.0460   16.2150  -60.5710 C.3     2  LEU2        0.1727
      6  C        -11.9510   16.4020  -59.5470 C.2     2  LEU2        0.2616
      7  O        -10.7980   16.0420  -59.7790 O.2     2  LEU2       -0.2715
      8  CB       -12.9590   14.6910  -60.8640 C.3     2  LEU2        0.0311
      9  CG       -14.2710   13.8530  -60.7950 C.3     2  LEU2        0.0022
     10  CD1      -14.0010   12.4750  -60.1650 C.3     2  LEU2        0.0001
     11  CD2      -15.4970   14.5780  -60.1820 C.3     2  LEU2        0.0001
     12  N        -12.3290   16.9530  -58.4200 N.am    3  LEU3       -0.1963
     13  CA       -11.3610   17.1700  -57.3680 C.3     3  LEU3        0.1728
     14  C        -11.5700   16.0340  -56.3850 C.2     3  LEU3        0.2612
     15  O        -12.6890   15.6930  -56.0020 O.2     3  LEU3       -0.2715
     16  CB       -11.6050   18.5240  -56.7210 C.3     3  LEU3        0.0311
     17  CG       -11.0840   19.6510  -57.6360 C.3     3  LEU3        0.0022
     18  CD1      -10.6250   19.1610  -59.0100 C.3     3  LEU3        0.0001
     19  CD2      -12.0730   20.8370  -57.7640 C.3     3  LEU3        0.0001
     20  N        -10.4470   15.4490  -56.0290 N.am    4  ARG4       -0.2031
     21  CA       -10.3970   14.3540  -55.0790 C.3     4  ARG4        0.1283
     22  C         -9.8620   14.9790  -53.7560 C.3     4  ARG4        0.2036
     23  O        -10.0420   14.0190  -52.7020 O.3     4  ARG4       -0.2185
     24  CB        -9.5320   13.1780  -55.6490 C.3     4  ARG4        0.0281
     25  CG       -10.1580   12.5030  -56.9220 C.3     4  ARG4        0.0488
     26  CD        -9.2920   11.3880  -57.5220 C.3     4  ARG4        0.2205
     27  NE       -10.1770   10.3550  -58.0990 N.pl3   4  ARG4       -0.0865
     28  CZ        -9.8340    9.5430  -59.1090 C.cat   4  ARG4        0.5346
     29  NH1      -10.7230    8.6490  -59.5430 N.pl3   4  ARG4        0.1354
     30  NH2       -8.6350    9.5910  -59.6980 N.pl3   4  ARG4        0.1354
@<TRIPOS>BOND
     1     3     1    1
     2     1     4   am
     3     1     2    2
     4     4     5    1
     5     8     9    1
     6     8     5    1
     7     9    11    1
     8     9    10    1
     9     5     6    1
    10     7     6    2
    11    30    28    1
    12     6    12   am
    13    29    28    1
    14    28    27    2
    15    18    17    1
    16    12    13    1
    17    27    26    1
    18    19    17    1
    19    17    16    1
    20    26    25    1
    21    13    16    1
    22    13    14    1
    23    25    24    1
    24    14    20   am
    25    14    15    2
    26    20    21    1
    27    24    21    1
    28    21    22    1
    29    22    23    1
