@<TRIPOS>MOLECULE
3bpr_OLP_A_1.pdb
 24 26 0 0 0
SMALL
GASTEIGER

@<TRIPOS>ATOM
      1  CAH       17.4720   17.7280   55.0390 C.ar  900  OLP900      0.0280
      2  CAQ       18.6150   17.1260   55.5510 C.ar  900  OLP900      0.0590
      3 CL         19.5170   16.0920   54.5270 Cl    900  OLP900     -0.0822
      4  CAF       19.0330   17.3230   56.8650 C.ar  900  OLP900      0.0115
      5  CAE       18.2760   18.1460   57.6910 C.ar  900  OLP900      0.0022
      6  CAG       17.1300   18.7620   57.1800 C.ar  900  OLP900      0.0166
      7  CAR       16.7020   18.5560   55.8550 C.ar  900  OLP900      0.0740
      8  N6        15.5790   19.1690   55.4110 N.pl3 900  OLP900     -0.1814
      9  C6        14.7240   18.6680   54.5020 C.2   900  OLP900      0.2383
     10  N1        14.9140   17.4630   53.9200 N.2   900  OLP900     -0.3081
     11  C5        13.6100   19.4060   54.1170 C.2   900  OLP900      0.1693
     12  N7        13.1510   20.5970   54.4920 N.2   900  OLP900     -0.2402
     13  C8        12.0250   20.8210   53.8120 C.3   900  OLP900      0.2220
     14  N9        11.7910   19.7830   53.0070 N.pl3 900  OLP900     -0.2624
     15  CAW       10.6190   19.7150   52.1220 C.3   900  OLP900      0.0770
     16  CAB       11.0050   19.3280   50.6800 C.3   900  OLP900      0.0216
     17  CAA        9.5940   18.7580   52.7300 C.3   900  OLP900      0.0216
     18  C4        12.7410   18.8760   53.1560 C.2   900  OLP900      0.2197
     19  N3        12.9780   17.6630   52.6160 N.2   900  OLP900     -0.3099
     20  C2        14.0740   16.9520   52.9850 C.1   900  OLP900      0.2228
     21  N2        14.3270   15.7380   52.4450 N.pl3 900  OLP900     -0.1489
     22  CAK       15.6080   15.0060   52.6530 C.3   900  OLP900      0.1617
     23  CAJ       15.4510   13.7720   53.5860 C.3   900  OLP900      0.2063
     24  OAC       14.1110   13.2310   53.5810 O.3   900  OLP900     -0.2184
@<TRIPOS>BOND
     1    16    15    1
     2    15    17    1
     3    15    14    1
     4    21    22    1
     5    21    20    1
     6    19    20    2
     7    19    18    2
     8    22    23    1
     9    20    10    2
    10    14    18    1
    11    14    13    1
    12    18    11    1
    13    24    23    1
    14    13    12    1
    15    10     9    2
    16    11    12    2
    17    11     9    1
    18     9     8    1
    19     3     2    1
    20     1     2   ar
    21     1     7   ar
    22     8     7    1
    23     2     4   ar
    24     7     6   ar
    25     4     5   ar
    26     6     5   ar
