@<TRIPOS>MOLECULE
3bpt_QUE_A_1.pdb
 22 24 0 0 0
SMALL
GASTEIGER

@<TRIPOS>ATOM
      1  C1        43.4970   -0.0470   16.1950 C.ar  501  QUE501      0.0843
      2  C2        42.5060    0.0450   15.2200 C.ar  501  QUE501      0.2050
      3  C3        42.9240    0.2080   13.8230 C.ar  501  QUE501      0.1158
      4  C4        44.3720    0.2450   13.5040 C.ar  501  QUE501      0.1549
      5  C5        45.2820    0.1500   14.5410 C.ar  501  QUE501      0.0798
      6  C6        44.8490    0.0010   15.8540 C.ar  501  QUE501      0.2020
      7  C9        41.9410    0.3260   12.7170 C.ar  501  QUE501      0.2433
      8  C10       42.4690    0.4810   11.3480 C.ar  501  QUE501      0.2685
      9  C11       43.9550    0.4710   11.1010 C.ar  501  QUE501      0.1872
     10  C14       44.6420    0.7080    9.7840 C.ar  501  QUE501      0.0413
     11  C15       46.0400    0.8720    9.7570 C.ar  501  QUE501      0.0066
     12  C16       46.7180    1.1290    8.5710 C.ar  501  QUE501      0.0455
     13  C17       46.0330    1.2380    7.3670 C.ar  501  QUE501      0.2343
     14  C18       44.5500    1.0780    7.3920 C.ar  501  QUE501      0.2344
     15  C19       43.9110    0.8220    8.6030 C.ar  501  QUE501      0.0485
     16  O12       44.8080    0.3870   12.2220 O.2   501  QUE501     -0.4498
     17  O13       40.6840    0.2740   12.8810 O.2   501  QUE501     -0.2828
     18  O23       43.8170    1.1890    6.2520 O.3   501  QUE501     -0.2831
     19  O24       46.7140    1.5080    6.2070 O.3   501  QUE501     -0.2831
     20  O27       41.5250    0.6100   10.3900 O.3   501  QUE501     -0.2798
     21  O29       45.7930   -0.0940   16.8450 O.3   501  QUE501     -0.2864
     22  O30       41.1880   -0.0060   15.5340 O.3   501  QUE501     -0.2862
@<TRIPOS>BOND
     1    19    13    1
     2    18    14    1
     3    13    14   ar
     4    13    12   ar
     5    14    15   ar
     6    12    11   ar
     7    15    10   ar
     8    11    10   ar
     9    10     9    1
    10    20     8    1
    11     9     8   ar
    12     9    16   ar
    13     8     7   ar
    14    16     4   ar
    15     7    17    2
    16     7     3   ar
    17     4     3   ar
    18     4     5   ar
    19     3     2   ar
    20     5     6   ar
    21     2    22    1
    22     2     1   ar
    23     6     1   ar
    24     6    21    1
