@<TRIPOS>MOLECULE
3bpw_XMP_A_1.pdb
 24 26 0 0 0
SMALL
GASTEIGER

@<TRIPOS>ATOM
      1  P          6.7150  -31.4430  -26.1370 P.3   1000  XMP1000     0.5327
      2  O1P        7.7610  -32.4290  -26.6080 O.3   1000  XMP1000    -0.1145
      3  O2P        5.5680  -31.2940  -27.1020 O.2   1000  XMP1000    -0.2224
      4  O5'        7.5890  -30.0820  -26.0790 O.3   1000  XMP1000    -0.2675
      5  O3P        6.2960  -31.5380  -24.6850 O.3   1000  XMP1000    -0.1145
      6  C5'        7.4210  -29.0040  -25.1770 C.3   1000  XMP1000     0.1859
      7  C4'        8.4490  -27.9580  -25.6130 C.3   1000  XMP1000     0.1801
      8  O4'        7.9080  -26.6920  -25.2630 O.3   1000  XMP1000    -0.3326
      9  C1'        8.6080  -26.2630  -24.0620 C.3   1000  XMP1000     0.2293
     10  N9         7.5600  -25.8610  -23.1020 N.pl3 1000  XMP1000    -0.2353
     11  C4         7.3080  -24.5780  -22.8500 C.2   1000  XMP1000     0.2316
     12  N3         7.9280  -23.4410  -23.2460 N.2   1000  XMP1000    -0.2901
     13  N1         6.4100  -22.1300  -21.9860 N.2   1000  XMP1000    -0.2311
     14  C2         7.4550  -22.2340  -22.8350 C.1   1000  XMP1000     0.3668
     15  O2         7.9950  -21.1810  -23.2830 O.2   1000  XMP1000    -0.1744
     16  C6         5.7740  -23.2250  -21.5050 C.1   1000  XMP1000     0.2388
     17  O6         4.7980  -23.1570  -20.7360 O.2   1000  XMP1000    -0.2068
     18  C5         6.2500  -24.5490  -21.9470 C.2   1000  XMP1000     0.2183
     19  N7         5.8660  -25.8150  -21.7350 N.2   1000  XMP1000    -0.2322
     20  C8         6.6780  -26.6370  -22.4420 C.3   1000  XMP1000     0.2246
     21  C2'        9.4990  -27.4040  -23.5730 C.3   1000  XMP1000     0.2310
     22  O2'       10.6730  -26.8770  -22.9120 O.3   1000  XMP1000    -0.2158
     23  C3'        9.8020  -28.0910  -24.9000 C.3   1000  XMP1000     0.2158
     24  O3'       10.8250  -27.3620  -25.6110 O.3   1000  XMP1000    -0.2175
@<TRIPOS>BOND
     1     3     1    2
     2     2     1    1
     3     1     4    1
     4     1     5    1
     5     4     6    1
     6     7     8    1
     7     7     6    1
     8     7    23    1
     9    24    23    1
    10     8     9    1
    11    23    21    1
    12     9    21    1
    13     9    10    1
    14    21    22    1
    15    15    14    2
    16    12    11    2
    17    12    14    2
    18    10    11    1
    19    10    20    1
    20    11    18    1
    21    14    13    2
    22    20    19    1
    23    13    16    2
    24    18    19    2
    25    18    16    1
    26    16    17    2
