@<TRIPOS>MOLECULE
3bpx_SAL_A_1.pdb
 10 10 0 0 0
SMALL
GASTEIGER

@<TRIPOS>ATOM
      1  C1'       24.8420    0.4420   25.6710 C.2   257  SAL257      0.3909
      2  O1'       25.1230   -0.4450   24.8750 O.co2 257  SAL257     -0.2404
      3  O2'       25.2740    1.5530   25.3550 O.co2 257  SAL257     -0.2404
      4  C1        24.0780    0.2140   26.8680 C.ar  257  SAL257      0.1186
      5  C2        23.5570   -1.0900   27.2620 C.ar  257  SAL257      0.2020
      6  C3        22.7860   -1.3070   28.4720 C.ar  257  SAL257      0.0422
      7  C4        22.5290   -0.1850   29.3120 C.ar  257  SAL257      0.0033
      8  C5        23.0090    1.1360   28.9930 C.ar  257  SAL257      0.0004
      9  C6        23.7790    1.3200   27.7720 C.ar  257  SAL257      0.0098
     10  O2        23.7600   -2.2090   26.5140 O.3   257  SAL257     -0.2863
@<TRIPOS>BOND
     1     2     1   ar
     2     3     1   ar
     3     1     4    1
     4    10     5    1
     5     4     5   ar
     6     4     9   ar
     7     5     6   ar
     8     9     8   ar
     9     6     7   ar
    10     8     7   ar
