@<TRIPOS>MOLECULE
3bpz_CMP_A_1.pdb
 22 25 0 0 0
SMALL
GASTEIGER

@<TRIPOS>ATOM
      1  P         52.9620    8.2610   40.7230 P.3   641  CMP641      0.2141
      2  O1P       54.0900    7.4170   40.1910 O.2   641  CMP641     -0.5172
      3  O2P       53.0030    9.7270   40.5920 O.3   641  CMP641     -0.4373
      4  O5'       51.5920    7.7490   40.0370 O.3   641  CMP641     -0.3114
      5  C5'       51.2180    6.3780   40.2350 C.3   641  CMP641      0.1812
      6  C4'       51.0590    6.2520   41.7440 C.3   641  CMP641      0.1793
      7  O4'       50.7560    4.9440   42.2000 O.3   641  CMP641     -0.3136
      8  C3'       52.3650    6.5090   42.4700 C.3   641  CMP641      0.1884
      9  O3'       52.7160    7.8740   42.2740 O.3   641  CMP641     -0.3111
     10  C2'       52.0440    6.0520   43.8700 C.3   641  CMP641      0.2541
     11  O2'       51.2910    7.0520   44.5790 O.3   641  CMP641     -0.2131
     12  C1'       51.1130    4.8590   43.5770 C.3   641  CMP641      0.3185
     13  N9        51.7800    3.5660   43.8130 N.pl3 641  CMP641     -0.1439
     14  C8        52.7500    3.0070   43.0550 C.3   641  CMP641      0.3377
     15  N7        53.1110    1.8030   43.6040 N.2   641  CMP641     -0.2095
     16  C5        52.3780    1.6200   44.7170 C.2   641  CMP641      0.2526
     17  C6        52.2570    0.5900   45.7730 C.2   641  CMP641      0.4393
     18  N6        53.0210   -0.5290   45.7260 N.pl3 641  CMP641      0.2180
     19  N1        51.3460    0.8130   46.7460 N.2   641  CMP641      0.0021
     20  C2        50.5660    1.9160   46.7990 C.3   641  CMP641      0.5254
     21  N3        50.6150    2.8940   45.8710 N.2   641  CMP641     -0.0055
     22  C4        51.4960    2.7850   44.8440 C.2   641  CMP641      0.3518
@<TRIPOS>BOND
     1     4     5    1
     2     4     1    1
     3     2     1    2
     4     5     6    1
     5     3     1    1
     6     1     9    1
     7     6     7    1
     8     6     8    1
     9     7    12    1
    10     9     8    1
    11     8    10    1
    12    14    15    1
    13    14    13    1
    14    12    13    1
    15    12    10    1
    16    15    16    2
    17    13    22    1
    18    10    11    1
    19    16    22    1
    20    16    17    1
    21    22    21    2
    22    18    17    1
    23    17    19    2
    24    21    20    1
    25    19    20    1
