@<TRIPOS>MOLECULE
3bq1_DG3_P_1.pdb
 30 32 0 0 0
SMALL
GASTEIGER

@<TRIPOS>ATOM
      1  PG        30.8810   21.0940  -15.7050 P.3    11  DG311       0.5373
      2  O1G       31.2030   19.6620  -15.2730 O.3    11  DG311      -0.1143
      3  O2G       31.9250   22.1750  -15.4400 O.2    11  DG311      -0.2221
      4  O3G       29.4980   21.5310  -15.2660 O.3    11  DG311      -0.1143
      5  O3B       30.7740   21.0270  -17.3180 O.3    11  DG311      -0.2258
      6  PB        31.9690   20.5340  -18.2700 P.3    11  DG311       0.2277
      7  O1B       31.4360   20.3750  -19.6710 O.2    11  DG311      -0.5168
      8  O2B       33.1090   21.5000  -18.0710 O.3    11  DG311      -0.4368
      9  O3A       32.4720   19.0910  -17.7190 O.3    11  DG311      -0.2700
     10  PA        31.7790   17.6120  -17.7590 P.3    11  DG311       0.2189
     11  O1A       30.4540   17.6980  -17.0110 O.3    11  DG311      -0.4371
     12  O2A       32.8660   16.6800  -17.2400 O.2    11  DG311      -0.5170
     13  O5'       31.5560   17.1410  -19.2970 O.3    11  DG311      -0.3113
     14  C5'       32.6900   16.9830  -20.1530 C.3    11  DG311       0.1785
     15  C4'       32.4870   16.1170  -21.4140 C.3    11  DG311       0.1471
     16  O4'       31.9670   14.8020  -21.1670 O.3    11  DG311      -0.3374
     17  C3'       31.5630   16.7630  -22.4290 C.3    11  DG311       0.0366
     18  C2'       30.7700   15.6140  -23.0250 C.3    11  DG311       0.0536
     19  C1'       30.8650   14.5000  -22.0060 C.3    11  DG311       0.1954
     20  N9        29.6600   14.4560  -21.1450 N.pl3  11  DG311      -0.2375
     21  C8        29.4950   15.0060  -19.9180 C.3    11  DG311       0.2245
     22  N7        28.2530   14.7450  -19.4100 N.2    11  DG311      -0.2322
     23  C5        27.6010   14.0140  -20.3330 C.2    11  DG311       0.2182
     24  C6        26.2610   13.4000  -20.4600 C.1    11  DG311       0.2372
     25  O6        25.4010   13.5010  -19.5450 O.2    11  DG311      -0.2069
     26  N1        26.0070   12.7220  -21.5910 N.2    11  DG311      -0.2485
     27  C2        26.9060   12.5900  -22.5900 C.1    11  DG311       0.2531
     28  N2        26.5810   11.8990  -23.7010 N.pl3  11  DG311      -0.0226
     29  N3        28.1420   13.1320  -22.5480 N.2    11  DG311      -0.3074
     30  C4        28.5330   13.8310  -21.4630 C.2    11  DG311       0.2299
@<TRIPOS>BOND
     1    28    27    1
     2    18    17    1
     3    18    19    1
     4    27    29    2
     5    27    26    2
     6    29    30    2
     7    17    15    1
     8    19    16    1
     9    19    20    1
    10    26    24    2
    11    30    20    1
    12    30    23    1
    13    15    16    1
    14    15    14    1
    15    20    21    1
    16    24    23    1
    17    24    25    2
    18    23    22    2
    19    14    13    1
    20    21    22    1
    21     7     6    2
    22    13    10    1
    23     6     8    1
    24     6     9    1
    25     6     5    1
    26    10     9    1
    27    10    12    2
    28    10    11    1
    29     5     1    1
    30     1     3    2
    31     1     2    1
    32     1     4    1
