@<TRIPOS>MOLECULE
3bqc_EMO_A_1.pdb
 20 22 0 0 0
SMALL
GASTEIGER

@<TRIPOS>ATOM
      1  C1        17.2750  -55.2520  -46.7350 C.ar  400  EMO400      0.2020
      2  O1        17.5810  -54.8170  -47.9680 O.3   400  EMO400     -0.2864
      3  C2        17.1170  -56.6000  -46.4770 C.ar  400  EMO400      0.0841
      4  C3        16.8190  -57.0170  -45.1860 C.ar  400  EMO400      0.1990
      5  O3        16.6520  -58.3280  -44.9400 O.3   400  EMO400     -0.2865
      6  C4        16.7100  -56.0910  -44.1530 C.ar  400  EMO400      0.0455
      7  C5        16.8650  -54.7230  -44.4290 C.ar  400  EMO400      0.0483
      8  C6        16.7320  -53.7680  -43.4080 C.2   400  EMO400      0.1960
      9  O6        16.4610  -54.1460  -42.2520 O.2   400  EMO400     -0.2866
     10  C7        16.8940  -52.3970  -43.7010 C.ar  400  EMO400      0.0448
     11  C8        16.7690  -51.4310  -42.6790 C.ar  400  EMO400     -0.0008
     12  C9        16.9290  -50.0660  -42.9330 C.ar  400  EMO400     -0.0186
     13  C10       16.7870  -49.0010  -41.8050 C.3   400  EMO400      0.0311
     14  C16       17.2270  -49.6490  -44.2210 C.ar  400  EMO400      0.0379
     15  C17       17.3440  -50.5950  -45.2510 C.ar  400  EMO400      0.1985
     16  O17       17.6240  -50.1390  -46.4930 O.3   400  EMO400     -0.2865
     17  C18       17.1940  -51.9750  -45.0100 C.ar  400  EMO400      0.0810
     18  C19       17.3120  -52.9400  -46.0350 C.2   400  EMO400      0.2019
     19  O19       17.5610  -52.6180  -47.2040 O.2   400  EMO400     -0.2864
     20  C20       17.1490  -54.3020  -45.7280 C.ar  400  EMO400      0.0812
@<TRIPOS>BOND
     1     2     1    1
     2    19    18    2
     3     1     3   ar
     4     1    20   ar
     5    16    15    1
     6     3     4   ar
     7    18    20    1
     8    18    17    1
     9    20     7   ar
    10    15    17   ar
    11    15    14   ar
    12     4     5    1
    13     4     6   ar
    14    17    10   ar
    15     7     6   ar
    16     7     8    1
    17    14    12   ar
    18    10     8    1
    19    10    11   ar
    20     8     9    2
    21    12    11   ar
    22    12    13    1
