@<TRIPOS>MOLECULE
3bqd_DAY_A_1.pdb
 36 41 0 0 0
SMALL
GASTEIGER

@<TRIPOS>ATOM
      1  C1        38.1420   31.6110    9.9440 C.2   301  DAY301     -0.0277
      2  O1        38.3530   28.4230   11.2960 O.3   301  DAY301     -0.2231
      3  C2        37.8450   32.8480    9.5150 C.2   301  DAY301     -0.0057
      4  C3        38.2240   33.2600    8.1260 C.3   301  DAY301      0.1316
      5  C4        39.0030   32.2150    7.2770 C.2   301  DAY301     -0.0054
      6  C5        39.3060   30.9660    7.7730 C.2   301  DAY301     -0.0255
      7  C6        40.4680   30.2300    6.9850 C.2   301  DAY301     -0.0300
      8  C7        41.1150   29.0380    7.6490 C.2   301  DAY301     -0.0309
      9  C8        40.6080   28.5240    9.0420 C.3   301  DAY301      0.0248
     10  C9        40.0170   29.7340    9.9410 C.3   301  DAY301      0.0419
     11  C10       38.8500   30.4950    9.1820 C.3   301  DAY301      0.0390
     12  C11       39.5070   29.2590   11.3730 C.3   301  DAY301      0.1530
     13  C12       40.5510   28.4780   12.1480 C.3   301  DAY301      0.0357
     14  C13       41.1880   27.2840   11.3080 C.3   301  DAY301      0.0351
     15  C14       41.7200   27.8560    9.9030 C.3   301  DAY301      0.0070
     16  C15       42.5320   26.6100    9.3350 C.3   301  DAY301      0.0033
     17  C16       43.0420   25.9020   10.5710 C.3   301  DAY301      0.0350
     18  C17       42.5010   26.7130   11.8330 C.3   301  DAY301      0.1795
     19  C18       40.0960   26.1200   10.9890 C.3   301  DAY301      0.0030
     20  C19       37.5760   29.6320    8.7720 C.3   301  DAY301      0.0088
     21  C20       42.2520   25.7520   13.0780 C.2   301  DAY301      0.2109
     22  C21       41.7310   26.2440   14.4560 C.3   301  DAY301      0.2484
     23  N1        37.5740   34.5120    7.7400 N.pl3 301  DAY301     -0.2302
     24  O2        43.4710   27.7710   12.1700 O.3   301  DAY301     -0.2181
     25  O3        42.4750   24.5520   12.9800 O.2   301  DAY301     -0.2907
     26  O4        41.2720   25.1960   15.2950 O.3   301  DAY301     -0.2118
     27  C22       37.1130   34.0970   10.2160 C.3   301  DAY301      0.1354
     28  N2        37.2200   34.9760    8.9150 N.3   301  DAY301     -0.1251
     29  C23       37.7090   34.5830    5.4750 C.ar  301  DAY301      0.0159
     30  C24       37.5950   35.2410    6.7120 C.ar  301  DAY301      0.0642
     31  C25       37.6920   35.1850    4.2520 C.ar  301  DAY301      0.0013
     32  C26       37.5650   36.6330    3.9300 C.ar  301  DAY301      0.0001
     33  C27       37.4310   36.6720    6.5250 C.ar  301  DAY301      0.0159
     34  C29       37.4230   37.4170    5.1480 C.ar  301  DAY301      0.0013
     35  C28       40.9330   30.6630    5.7050 C.3   301  DAY301      0.0304
     36  C30       44.5620   25.9160   10.4890 C.3   301  DAY301      0.0030
@<TRIPOS>BOND
     1    32    31   ar
     2    32    34   ar
     3    31    29   ar
     4    34    33   ar
     5    29    30   ar
     6    35     7    1
     7    33    30   ar
     8    30    23    1
     9     7     8    2
    10     7     6    1
    11     5     6    2
    12     5     4    1
    13     8     9    1
    14    23     4    1
    15    23    28    1
    16     6    11    1
    17     4     3    1
    18    20    11    1
    19    28    27    1
    20     9    15    1
    21     9    10    1
    22    11    10    1
    23    11     1    1
    24    16    15    1
    25    16    17    1
    26     3     1    2
    27     3    27    1
    28    15    14    1
    29    10    12    1
    30    36    17    1
    31    17    18    1
    32    19    14    1
    33     2    12    1
    34    14    18    1
    35    14    13    1
    36    12    13    1
    37    18    24    1
    38    18    21    1
    39    25    21    2
    40    21    22    1
    41    22    26    1
