@<TRIPOS>MOLECULE
3bqf_SSM_A_1.pdb
 14 13 0 0 0
SMALL
GASTEIGER

@<TRIPOS>ATOM
      1  C2       -30.9840   18.7550   -0.8580 C.3   400  SSM400      0.0964
      2  C        -29.7110   18.5040   -0.0820 C.2   400  SSM400      0.2423
      3  O        -29.7220   17.7530    0.9130 O.2   400  SSM400     -0.2733
      4  N        -28.5800   19.1360   -0.4740 N.am  400  SSM400     -0.1977
      5  CA       -27.2860   18.9550    0.2200 C.3   400  SSM400      0.1737
      6  CB       -26.5760   20.3280    0.3140 C.3   400  SSM400      0.0454
      7  CG       -25.1230   20.2580    0.1990 C.3   400  SSM400      0.0941
      8  SD       -24.6450   21.7140   -0.8060 S.O   400  SSM400      0.0428
      9  OD1      -25.2770   22.8920   -0.2820 O.2   400  SSM400     -0.2559
     10  CE       -22.8690   21.7580   -0.7100 C.3   400  SSM400      0.1061
     11  C3       -27.5190   18.4120    1.5600 C.2   400  SSM400      0.2613
     12  O3       -27.5270   19.1510    2.5180 O.2   400  SSM400     -0.2715
     13  N2       -27.7540   17.1360    1.6870 N.am  400  SSM400     -0.2021
     14  C1       -28.0270   16.5780    3.0110 C.3   400  SSM400      0.1386
@<TRIPOS>BOND
     1     1     2    1
     2     8    10    1
     3     8     9    2
     4     8     7    1
     5     4     2   am
     6     4     5    1
     7     2     3    2
     8     7     6    1
     9     5     6    1
    10     5    11    1
    11    11    13   am
    12    11    12    2
    13    13    14    1
