@<TRIPOS>MOLECULE
3bqm_BQM_B_1.pdb
 32 34 0 0 0
SMALL
GASTEIGER

@<TRIPOS>ATOM
      1  F6        19.9490  -14.3100  -30.3440 F       1  BQM1       -0.1658
      2  C12       18.7280  -14.7590  -30.4970 C.3     1  BQM1        0.4190
      3  F4        17.8520  -14.0050  -29.8980 F       1  BQM1       -0.1658
      4  F5        18.5920  -14.6080  -31.7900 F       1  BQM1       -0.1658
      5  C11       18.6880  -16.2320  -30.1010 C.ar    1  BQM1        0.0813
      6  C9        19.5250  -16.6920  -29.0620 C.ar    1  BQM1        0.0758
      7  C10       20.3540  -15.7230  -28.2400 C.3     1  BQM1        0.4186
      8  F3        21.5280  -15.4160  -28.7310 F       1  BQM1       -0.1659
      9  F2        19.6670  -14.6040  -28.0850 F       1  BQM1       -0.1659
     10  F1        20.4590  -16.1440  -26.9950 F       1  BQM1       -0.1659
     11  C13       17.8770  -17.1500  -30.8130 C.ar    1  BQM1        0.0333
     12  S         16.8000  -16.6930  -32.0740 S.3     1  BQM1       -0.0869
     13  C14       16.1410  -18.0710  -32.8470 C.ar    1  BQM1        0.0308
     14  C19       15.1130  -18.8280  -32.2740 C.ar    1  BQM1        0.0245
     15  C18       14.6110  -19.9430  -32.9490 C.ar    1  BQM1        0.0896
     16  N2        13.6210  -20.6880  -32.4060 N.pl3   1  BQM1       -0.1280
     17  C17       15.1300  -20.3170  -34.1880 C.ar    1  BQM1        0.0181
     18  C16       16.1520  -19.5650  -34.7580 C.ar    1  BQM1        0.0019
     19  C15       16.6480  -18.4450  -34.0910 C.ar    1  BQM1        0.0066
     20  C20       17.9030  -18.5010  -30.4530 C.ar    1  BQM1        0.0064
     21  C21       18.7200  -18.9570  -29.4200 C.ar    1  BQM1        0.0005
     22  C8        19.5160  -18.0600  -28.7100 C.ar    1  BQM1        0.0040
     23  C7        20.3930  -18.5760  -27.6230 C.2     1  BQM1        0.0046
     24  C6        20.6190  -19.8770  -27.4140 C.2     1  BQM1        0.0579
     25  C1        21.5410  -20.2940  -26.3370 C.2     1  BQM1        0.2493
     26  O1        22.3060  -19.4680  -25.8790 O.2     1  BQM1       -0.2699
     27  N1        21.5400  -21.5470  -25.8750 N.am    1  BQM1       -0.2709
     28  C5        22.4370  -21.9220  -24.7800 C.3     1  BQM1        0.1258
     29  C4        23.3450  -23.0120  -25.3330 C.3     1  BQM1        0.1637
     30  O2        22.5340  -24.0880  -25.8200 O.3     1  BQM1       -0.3501
     31  C3        21.6260  -23.7070  -26.8580 C.3     1  BQM1        0.1637
     32  C2        20.6760  -22.6220  -26.3520 C.3     1  BQM1        0.1258
@<TRIPOS>BOND
     1    18    17   ar
     2    18    19   ar
     3    17    15   ar
     4    19    13   ar
     5    15    16    1
     6    15    14   ar
     7    13    14   ar
     8    13    12    1
     9    12    11    1
    10     4     2    1
    11    11    20   ar
    12    11     5   ar
    13     2     1    1
    14     2     5    1
    15     2     3    1
    16    20    21   ar
    17     5     6   ar
    18    21    22   ar
    19     6    22   ar
    20     6     7    1
    21     8     7    1
    22    22    23    1
    23     7     9    1
    24     7    10    1
    25    23    24    2
    26    24    25    1
    27    31    32    1
    28    31    30    1
    29    32    27    1
    30    25    26    2
    31    25    27   am
    32    27    28    1
    33    30    29    1
    34    29    28    1
