@<TRIPOS>MOLECULE
3bqn_BQN_B_1.pdb
 39 42 0 0 0
SMALL
GASTEIGER

@<TRIPOS>ATOM
      1  F6       -16.4800   14.1720   -6.0020 F       1  BQN1       -0.1658
      2  C12      -17.7030   14.6230   -5.7750 C.3     1  BQN1        0.4190
      3  F4       -18.5800   13.8670   -6.3770 F       1  BQN1       -0.1658
      4  F5       -17.8700   14.4780   -4.4710 F       1  BQN1       -0.1658
      5  C11      -17.7770   16.0890   -6.1920 C.ar    1  BQN1        0.0813
      6  C9       -17.0390   16.5820   -7.2980 C.ar    1  BQN1        0.0758
      7  C10      -16.2440   15.6510   -8.1910 C.3     1  BQN1        0.4186
      8  F3       -15.0300   15.3760   -7.7680 F       1  BQN1       -0.1659
      9  F2       -16.9400   14.5360   -8.3230 F       1  BQN1       -0.1659
     10  F1       -16.1880   16.1090   -9.4230 F       1  BQN1       -0.1659
     11  C13      -18.5370   16.9850   -5.4240 C.ar    1  BQN1        0.0334
     12  S        -19.4660   16.4980   -4.0820 S.3     1  BQN1       -0.0839
     13  C14      -20.3990   17.8290   -3.5760 C.ar    1  BQN1        0.0634
     14  C19      -21.4770   18.2930   -4.3330 C.ar    1  BQN1        0.1449
     15  O3       -21.8030   17.6580   -5.5100 O.3     1  BQN1       -0.4701
     16  C20      -23.0700   17.8350   -6.1600 C.3     1  BQN1        0.2336
     17  C21      -22.9720   18.9430   -7.1870 C.ar    1  BQN1        0.0403
     18  C25      -21.7480   19.2700   -7.7660 C.ar    1  BQN1        0.0025
     19  C24      -21.6960   20.2970   -8.7080 C.ar    1  BQN1        0.0205
     20  C23      -22.8710   20.9690   -9.0510 C.ar    1  BQN1        0.0989
     21  N2       -24.0360   20.6300   -8.4770 N.ar    1  BQN1       -0.2425
     22  C22      -24.1150   19.6460   -7.5650 C.ar    1  BQN1        0.0982
     23  C18      -22.2140   19.3960   -3.8910 C.ar    1  BQN1        0.0374
     24  C17      -21.8700   20.0360   -2.7040 C.ar    1  BQN1        0.0031
     25  C16      -20.7930   19.5720   -1.9520 C.ar    1  BQN1        0.0007
     26  C15      -20.0600   18.4700   -2.3890 C.ar    1  BQN1        0.0095
     27  C26      -18.5800   18.3390   -5.7660 C.ar    1  BQN1        0.0064
     28  C27      -17.8710   18.8190   -6.8580 C.ar    1  BQN1        0.0005
     29  C8       -17.1120   17.9480   -7.6350 C.ar    1  BQN1        0.0040
     30  C7       -16.3410   18.4940   -8.7910 C.2     1  BQN1        0.0046
     31  C6       -15.9980   19.7810   -8.9150 C.2     1  BQN1        0.0579
     32  C1       -15.1820   20.2170  -10.0710 C.2     1  BQN1        0.2493
     33  O1       -14.4270   19.4050  -10.5810 O.2     1  BQN1       -0.2699
     34  N1       -15.2430   21.4760  -10.5150 N.am    1  BQN1       -0.2709
     35  C5       -16.0540   22.5330   -9.9050 C.3     1  BQN1        0.1258
     36  C4       -15.0780   23.6440   -9.5100 C.3     1  BQN1        0.1637
     37  O2       -14.2470   24.0100  -10.6240 O.3     1  BQN1       -0.3501
     38  C3       -13.4870   22.9190  -11.1400 C.3     1  BQN1        0.1637
     39  C2       -14.4670   21.8870  -11.6850 C.3     1  BQN1        0.1258
@<TRIPOS>BOND
     1    39    38    1
     2    39    34    1
     3    38    37    1
     4    37    36    1
     5    33    32    2
     6    34    32   am
     7    34    35    1
     8    32    31    1
     9    35    36    1
    10    10     7    1
    11    20    19   ar
    12    20    21   ar
    13    31    30    2
    14    30    29    1
    15    19    18   ar
    16    21    22   ar
    17     9     7    1
    18     7     8    1
    19     7     6    1
    20    18    17   ar
    21    29     6   ar
    22    29    28   ar
    23    22    17   ar
    24     6     5   ar
    25    17    16    1
    26    28    27   ar
    27     3     2    1
    28     5     2    1
    29     5    11   ar
    30    16    15    1
    31     1     2    1
    32     2     4    1
    33    27    11   ar
    34    15    14    1
    35    11    12    1
    36    14    23   ar
    37    14    13   ar
    38    12    13    1
    39    23    24   ar
    40    13    26   ar
    41    24    25   ar
    42    26    25   ar
