@<TRIPOS>MOLECULE
3bqr_4RB_A_1.pdb
 24 26 0 0 0
SMALL
GASTEIGER

@<TRIPOS>ATOM
      1  C1G        3.8150   45.4150   33.1080 C.ar  401  4RB401      0.0018
      2  C1E        4.9840   46.1230   32.9030 C.ar  401  4RB401      0.0066
      3  C1R        5.8840   46.3400   33.9540 C.ar  401  4RB401      0.0798
      4  C1Q        7.1930   47.1070   33.6660 C.2   401  4RB401      0.3878
      5  O1D        8.0400   47.1610   34.5930 O.co2 401  4RB401     -0.2406
      6  O1B        7.3420   47.5480   32.5140 O.co2 401  4RB401     -0.2406
      7  C1F        5.5950   45.7910   35.2010 C.ar  401  4RB401      0.0066
      8  C1H        4.4140   45.0830   35.4050 C.ar  401  4RB401      0.0018
      9  C1S        3.4950   44.8760   34.3430 C.ar  401  4RB401      0.0193
     10  C1U        2.2560   44.1740   34.4620 C.ar  401  4RB401      0.1036
     11  C1K        1.1400   44.2640   33.7210 C.ar  401  4RB401      0.1197
     12  N1N        0.2000   43.4020   34.1840 N.ar  401  4RB401     -0.2234
     13  C1V        0.7350   42.7580   35.1880 C.ar  401  4RB401      0.1640
     14  C1J        0.2190   41.7760   36.0030 C.ar  401  4RB401      0.0418
     15  C1I        1.0200   41.2840   37.0050 C.ar  401  4RB401      0.0407
     16  N1X        2.0270   43.2160   35.4100 N.ar  401  4RB401     -0.2095
     17  N1O        2.7640   42.7330   36.3180 N.ar  401  4RB401     -0.1472
     18  C1T        2.3120   41.7690   37.1260 C.ar  401  4RB401      0.1678
     19  N1P        3.0460   41.2310   38.0870 N.pl3 401  4RB401     -0.2180
     20  C1W        4.4730   41.3200   38.1940 C.3   401  4RB401      0.1270
     21  C1L        4.6760   42.6580   38.9100 C.3   401  4RB401      0.0243
     22  C1A        5.9710   42.7330   39.6790 C.3   401  4RB401      0.0019
     23  C1M        5.1510   41.2120   36.8110 C.3   401  4RB401      0.2035
     24  O1C        5.1020   39.8570   36.2760 O.3   401  4RB401     -0.2185
@<TRIPOS>BOND
     1     6     4   ar
     2     2     1   ar
     3     2     3   ar
     4     1     9   ar
     5     4     3    1
     6     4     5   ar
     7    11    12   ar
     8    11    10   ar
     9     3     7   ar
    10    12    13   ar
    11     9    10    1
    12     9     8   ar
    13    10    16   ar
    14    13    16   ar
    15    13    14   ar
    16     7     8   ar
    17    16    17   ar
    18    14    15   ar
    19    24    23    1
    20    17    18   ar
    21    23    20    1
    22    15    18   ar
    23    18    19    1
    24    19    20    1
    25    20    21    1
    26    21    22    1
