@<TRIPOS>MOLECULE
3bqz_MGR_A_1.pdb
 25 27 0 0 0
SMALL
GASTEIGER

@<TRIPOS>ATOM
      1  C1        14.5140   80.7770   -7.2370 C.3   200  MGR200      0.0667
      2  C2        13.7670   80.7610   -5.9160 C.ar  200  MGR200     -0.0143
      3  C3        13.0890   79.5560   -5.6650 C.ar  200  MGR200     -0.0036
      4  C4        12.3240   79.3720   -4.5080 C.ar  200  MGR200     -0.0003
      5  C5        12.2140   80.4110   -3.5920 C.ar  200  MGR200     -0.0000
      6  C6        12.8690   81.6170   -3.8390 C.ar  200  MGR200     -0.0003
      7  C7        13.6280   81.8000   -5.0010 C.ar  200  MGR200     -0.0036
      8  C8        13.9680   81.6740   -8.3410 C.ar  200  MGR200     -0.0142
      9  C9        12.6210   82.0300   -8.3890 C.ar  200  MGR200     -0.0024
     10  C10       12.1370   82.8840   -9.3830 C.ar  200  MGR200      0.0142
     11  C11       12.9900   83.4370  -10.3490 C.ar  200  MGR200      0.0479
     12  C12       14.3470   83.1050  -10.2870 C.ar  200  MGR200      0.0142
     13  C13       14.8210   82.2530   -9.2960 C.ar  200  MGR200     -0.0024
     14  C14       15.7180   79.9030   -7.3540 C.ar  200  MGR200     -0.0142
     15  C15       16.0490   79.3700   -8.6050 C.ar  200  MGR200     -0.0024
     16  C16       17.1530   78.5600   -8.7840 C.ar  200  MGR200      0.0142
     17  C17       17.9270   78.2120   -7.6850 C.ar  200  MGR200      0.0479
     18  C18       17.5760   78.6940   -6.4230 C.ar  200  MGR200      0.0142
     19  C19       16.4670   79.5130   -6.2480 C.ar  200  MGR200     -0.0024
     20  C22       13.4450   84.8450  -12.3260 C.3   200  MGR200      0.1122
     21  C23       11.1240   84.6670  -11.4090 C.3   200  MGR200      0.1122
     22  C24       19.8370   77.0400   -6.7210 C.3   200  MGR200      0.1122
     23  C25       19.3920   76.9050   -9.1690 C.3   200  MGR200      0.1122
     24  N2        12.5310   84.2880  -11.3240 N.pl3 200  MGR200     -0.3041
     25  N3        19.0130   77.4170   -7.8590 N.pl3 200  MGR200     -0.3041
@<TRIPOS>BOND
     1    20    24    1
     2    21    24    1
     3    24    11    1
     4    11    12   ar
     5    11    10   ar
     6    12    13   ar
     7    10     9   ar
     8    13     8   ar
     9    23    25    1
    10    16    15   ar
    11    16    17   ar
    12    15    14   ar
    13     9     8   ar
    14     8     1    1
    15    25    17    1
    16    25    22    1
    17    17    18   ar
    18    14     1    1
    19    14    19   ar
    20     1     2    1
    21    18    19   ar
    22     2     3   ar
    23     2     7   ar
    24     3     4   ar
    25     7     6   ar
    26     4     5   ar
    27     6     5   ar
