@<TRIPOS>MOLECULE
3br0_MGR_A_1.pdb
 25 27 0 0 0
SMALL
GASTEIGER

@<TRIPOS>ATOM
      1  C1        27.2960   27.7640    7.4140 C.3   200  MGR200      0.0667
      2  C2        27.7290   28.3960    6.1150 C.ar  200  MGR200     -0.0143
      3  C3        29.0930   28.3930    5.8010 C.ar  200  MGR200     -0.0036
      4  C4        29.5500   28.9630    4.6160 C.ar  200  MGR200     -0.0003
      5  C5        28.6440   29.5500    3.7390 C.ar  200  MGR200     -0.0000
      6  C6        27.2870   29.5600    4.0490 C.ar  200  MGR200     -0.0003
      7  C7        26.8270   28.9890    5.2360 C.ar  200  MGR200     -0.0036
      8  C8        26.7090   28.6600    8.4830 C.ar  200  MGR200     -0.0142
      9  C9        27.1700   29.9630    8.6880 C.ar  200  MGR200     -0.0024
     10  C10       26.5940   30.7770    9.6710 C.ar  200  MGR200      0.0142
     11  C11       25.5300   30.3110   10.4560 C.ar  200  MGR200      0.0479
     12  C12       25.0650   29.0120   10.2380 C.ar  200  MGR200      0.0142
     13  C13       25.6350   28.2120    9.2570 C.ar  200  MGR200     -0.0024
     14  C14       27.4730   26.2650    7.5900 C.ar  200  MGR200     -0.0142
     15  C15       28.0910   25.7630    8.7350 C.ar  200  MGR200     -0.0024
     16  C16       28.2840   24.4020    8.9050 C.ar  200  MGR200      0.0142
     17  C17       27.8880   23.5080    7.9140 C.ar  200  MGR200      0.0479
     18  C18       27.2890   24.0070    6.7530 C.ar  200  MGR200      0.0142
     19  C19       27.0920   25.3770    6.5870 C.ar  200  MGR200     -0.0024
     20  C22       23.8400   30.5720   12.2280 C.3   200  MGR200      0.1122
     21  C23       25.3990   32.4430   11.6890 C.3   200  MGR200      0.1122
     22  C24       27.6800   21.2190    7.0680 C.3   200  MGR200      0.1122
     23  C25       28.7100   21.6480    9.3010 C.3   200  MGR200      0.1122
     24  N2        24.9450   31.0860   11.4230 N.pl3 200  MGR200     -0.3041
     25  N3        28.0890   22.1700    8.0900 N.pl3 200  MGR200     -0.3041
@<TRIPOS>BOND
     1     5     6   ar
     2     5     4   ar
     3     6     7   ar
     4     4     3   ar
     5     7     2   ar
     6     3     2   ar
     7     2     1    1
     8    19    18   ar
     9    19    14   ar
    10    18    17   ar
    11    22    25    1
    12     1    14    1
    13     1     8    1
    14    14    15   ar
    15    17    25    1
    16    17    16   ar
    17    25    23    1
    18     8     9   ar
    19     8    13   ar
    20     9    10   ar
    21    15    16   ar
    22    13    12   ar
    23    10    11   ar
    24    12    11   ar
    25    11    24    1
    26    24    21    1
    27    24    20    1
