@<TRIPOS>MOLECULE
3br1_DEQ_A_1.pdb
 34 37 0 0 0
SMALL
GASTEIGER

@<TRIPOS>ATOM
      1  C1       -70.7660  -49.6640    7.4290 C.2   201  DEQ201      0.0142
      2  C2       -70.8800  -50.8810    6.7650 C.2   201  DEQ201     -0.0030
      3  C3       -72.0810  -51.5700    6.7700 C.2   201  DEQ201     -0.0213
      4  C4       -73.1670  -51.0340    7.4460 C.3   201  DEQ201      0.0549
      5  C5       -71.8510  -49.1040    8.1210 C.2   201  DEQ201      0.0489
      6  C6       -73.0650  -49.8100    8.1210 C.2   201  DEQ201      0.0126
      7  C7       -74.1610  -49.2730    8.7960 C.2   201  DEQ201      0.0875
      8  C8       -74.0160  -48.0600    9.4490 C.2   201  DEQ201      0.0282
      9  C9       -72.8010  -47.3950    9.4300 C.2   201  DEQ201      0.0304
     10  N1       -71.7420  -47.9130    8.7700 N.pl3 201  DEQ201     -0.2905
     11  C10      -64.2910  -44.6210    2.0360 C.2   201  DEQ201      0.0126
     12  C11      -64.0950  -44.4110    3.4170 C.2   201  DEQ201      0.0489
     13  N2       -62.8960  -44.7170    3.9910 N.pl3 201  DEQ201     -0.2905
     14  C12      -61.8860  -45.2280    3.2470 C.2   201  DEQ201      0.0304
     15  C13      -62.0390  -45.4480    1.8870 C.2   201  DEQ201      0.0282
     16  C14      -63.2410  -45.1480    1.2660 C.2   201  DEQ201      0.0875
     17  C15      -65.5280  -44.3030    1.4560 C.3   201  DEQ201      0.0549
     18  C16      -66.5620  -43.7810    2.2250 C.2   201  DEQ201     -0.0213
     19  C17      -66.3770  -43.5710    3.5870 C.2   201  DEQ201     -0.0030
     20  C18      -65.1570  -43.8820    4.1760 C.2   201  DEQ201      0.0142
     21  C19      -62.6690  -44.5150    5.4350 C.3   201  DEQ201      0.0952
     22  C20      -63.2350  -45.7080    6.2040 C.3   201  DEQ201      0.0218
     23  C21      -63.0820  -45.5000    7.7040 C.3   201  DEQ201      0.0018
     24  C22      -64.0440  -46.3760    8.5010 C.3   201  DEQ201      0.0001
     25  C23      -65.3530  -45.6760    8.8750 C.3   201  DEQ201      0.0000
     26  C24      -66.5710  -46.3190    8.2170 C.3   201  DEQ201      0.0000
     27  C25      -67.1690  -47.4340    9.0750 C.3   201  DEQ201      0.0001
     28  C26      -68.2630  -46.9240   10.0140 C.3   201  DEQ201      0.0018
     29  C27      -69.5620  -47.7190    9.8840 C.3   201  DEQ201      0.0218
     30  C28      -70.4700  -47.1610    8.7850 C.3   201  DEQ201      0.0952
     31  C30      -72.7280  -46.0780   10.1670 C.3   201  DEQ201      0.0474
     32  C29      -60.5480  -45.5770    3.8460 C.3   201  DEQ201      0.0474
     33  N4       -75.3720  -49.8850    8.8500 N.pl3 201  DEQ201     -0.1283
     34  N3       -63.3280  -45.3890   -0.0680 N.pl3 201  DEQ201     -0.1283
@<TRIPOS>BOND
     1    34    16    1
     2    16    15    1
     3    16    11    2
     4    17    11    1
     5    17    18    1
     6    15    14    2
     7    11    12    1
     8    18    19    2
     9    14    32    1
    10    14    13    1
    11    12    13    1
    12    12    20    2
    13    19    20    1
    14    13    21    1
    15    21    22    1
    16    22    23    1
    17     2     3    2
    18     2     1    1
    19     3     4    1
    20     1     5    2
    21     4     6    1
    22    23    24    1
    23     5     6    1
    24     5    10    1
    25     6     7    2
    26    26    25    1
    27    26    27    1
    28    24    25    1
    29    10    30    1
    30    10     9    1
    31    30    29    1
    32     7    33    1
    33     7     8    1
    34    27    28    1
    35     9     8    2
    36     9    31    1
    37    29    28    1
