@<TRIPOS>MOLECULE
3br2_DEQ_A_1.pdb
 34 37 0 0 0
SMALL
GASTEIGER

@<TRIPOS>ATOM
      1  C1        14.1840   35.2480    7.6150 C.2   201  DEQ201      0.0142
      2  C2        13.8090   33.9930    7.1550 C.2   201  DEQ201     -0.0030
      3  C3        12.5600   33.4850    7.4650 C.2   201  DEQ201     -0.0213
      4  C4        11.6870   34.2360    8.2390 C.3   201  DEQ201      0.0549
      5  C5        13.3170   36.0250    8.3980 C.2   201  DEQ201      0.0489
      6  C6        12.0520   35.5010    8.7090 C.2   201  DEQ201      0.0126
      7  C7        11.1730   36.2550    9.4870 C.2   201  DEQ201      0.0875
      8  C8        11.5740   37.5040    9.9320 C.2   201  DEQ201      0.0282
      9  C9        12.8320   37.9850    9.6040 C.2   201  DEQ201      0.0304
     10  N1        13.6840   37.2540    8.8480 N.pl3 201  DEQ201     -0.2905
     11  C10       21.8910   40.4660    1.7460 C.2   201  DEQ201      0.0126
     12  C11       21.9570   40.7170    3.1300 C.2   201  DEQ201      0.0489
     13  N2        23.1290   40.5360    3.8100 N.pl3 201  DEQ201     -0.2905
     14  C12       24.2380   40.1100    3.1620 C.2   201  DEQ201      0.0304
     15  C13       24.2140   39.8540    1.8010 C.2   201  DEQ201      0.0282
     16  C14       23.0420   40.0280    1.0800 C.2   201  DEQ201      0.0875
     17  C15       20.6840   40.6550    1.0550 C.3   201  DEQ201      0.0549
     18  C16       19.5420   41.0920    1.7190 C.2   201  DEQ201     -0.0213
     19  C17       19.5940   41.3460    3.0840 C.2   201  DEQ201     -0.0030
     20  C18       20.7870   41.1580    3.7800 C.2   201  DEQ201      0.0142
     21  C19       23.2250   40.7820    5.2670 C.3   201  DEQ201      0.0952
     22  C20       22.8230   39.5090    6.0190 C.3   201  DEQ201      0.0218
     23  C21       22.2030   39.7730    7.3920 C.3   201  DEQ201      0.0018
     24  C22       20.9580   38.9140    7.6050 C.3   201  DEQ201      0.0001
     25  C23       20.2460   39.2290    8.9230 C.3   201  DEQ201      0.0000
     26  C24       18.7690   38.8120    8.8900 C.3   201  DEQ201      0.0000
     27  C25       18.3320   38.0840   10.1640 C.3   201  DEQ201      0.0001
     28  C26       16.8150   38.0910   10.3540 C.3   201  DEQ201      0.0018
     29  C27       16.0990   37.1390    9.3930 C.3   201  DEQ201      0.0218
     30  C28       15.0180   37.8150    8.5330 C.3   201  DEQ201      0.0952
     31  C30       13.1990   39.3530   10.1260 C.3   201  DEQ201      0.0474
     32  C29       25.5510   39.8950    3.8710 C.3   201  DEQ201      0.0474
     33  N4         9.9330   35.8310    9.8320 N.pl3 201  DEQ201     -0.1283
     34  N3        23.0770   39.7600   -0.2500 N.pl3 201  DEQ201     -0.1283
@<TRIPOS>BOND
     1    34    16    1
     2    17    18    1
     3    17    11    1
     4    16    11    2
     5    16    15    1
     6    18    19    2
     7    11    12    1
     8    15    14    2
     9    19    20    1
    10    12    20    2
    11    12    13    1
    12    14    13    1
    13    14    32    1
    14    13    21    1
    15    21    22    1
    16    22    23    1
    17     2     3    2
    18     2     1    1
    19    23    24    1
    20     3     4    1
    21    24    25    1
    22     1     5    2
    23     4     6    1
    24     5     6    1
    25     5    10    1
    26    30    10    1
    27    30    29    1
    28     6     7    2
    29    10     9    1
    30    26    25    1
    31    26    27    1
    32    29    28    1
    33     7    33    1
    34     7     8    1
    35     9     8    2
    36     9    31    1
    37    27    28    1
