@<TRIPOS>MOLECULE
3br3_ET_A_1.pdb
 24 27 0 0 0
SMALL
GASTEIGER

@<TRIPOS>ATOM
      1  C1        35.0340   -7.5820   11.2230 C.2   205  ET205      -0.0010
      2  C2        35.6410   -6.5500   11.9350 C.2   205  ET205       0.0175
      3  C3        37.0230   -6.4120   11.9240 C.2   205  ET205       0.0868
      4  C4        37.7980   -7.3050   11.1940 C.2   205  ET205       0.0158
      5  N5        38.0050   -9.2330    9.7390 N.pl3 205  ET205      -0.3018
      6  C6        37.3990  -10.2680    9.0190 C.2   205  ET205       0.0482
      7  C7        35.4180  -11.4640    8.3100 C.ar  205  ET205       0.0193
      8  C8        34.0430  -11.6250    8.3020 C.ar  205  ET205       0.0891
      9  C9        33.2440  -10.7430    9.0230 C.ar  205  ET205       0.0180
     10  C10       33.8270   -9.7060    9.7460 C.ar  205  ET205       0.0012
     11  C11       36.0120  -10.4230    9.0300 C.ar  205  ET205       0.0144
     12  C12       35.2150   -9.5340    9.7590 C.ar  205  ET205      -0.0008
     13  C13       35.8090   -8.4870   10.4860 C.2   205  ET205      -0.0000
     14  C14       37.2010   -8.3390   10.4740 C.3   205  ET205       0.1192
     15  C15       38.1760  -11.1690    8.3100 C.ar  205  ET205       0.0133
     16  C16       38.3680  -11.0330    6.9380 C.ar  205  ET205       0.0012
     17  C17       39.1420  -11.9760    6.2640 C.ar  205  ET205       0.0000
     18  C18       39.7110  -13.0430    6.9550 C.ar  205  ET205       0.0000
     19  C19       39.5080  -13.1750    8.3260 C.ar  205  ET205       0.0000
     20  C20       38.7350  -12.2390    9.0020 C.ar  205  ET205       0.0012
     21  C21       39.4860   -9.0880    9.7310 C.3   205  ET205       0.0914
     22  C22       39.9510   -8.0350    8.7170 C.3   205  ET205       0.0232
     23  N23       37.6090   -5.4290   12.6010 N.pl3 205  ET205      -0.1283
     24  N24       33.5040  -12.6260    7.6090 N.pl3 205  ET205      -0.1281
@<TRIPOS>BOND
     1    17    16   ar
     2    17    18   ar
     3    16    15   ar
     4    18    19   ar
     5    24     8    1
     6     8     7   ar
     7     8     9   ar
     8    15    20   ar
     9    15     6    1
    10     7    11   ar
    11    19    20   ar
    12    22    21    1
    13     6    11    2
    14     6     5    1
    15     9    10   ar
    16    11    12   ar
    17    21     5    1
    18     5    14    1
    19    10    12   ar
    20    12    13    2
    21    14    13    1
    22    14     4    1
    23    13     1    1
    24     4     3    2
    25     1     2    2
    26     3     2    1
    27     3    23    1
