@<TRIPOS>MOLECULE
3br5_RHQ_A_1.pdb
 34 36 0 0 0
SMALL
GASTEIGER

@<TRIPOS>ATOM
      1  C1       -62.7560  -46.0030    1.6870 C.ar  201  RHQ201      0.1405
      2  C1       -69.6750  -44.6410    5.8640 C.3   201  RHQ201      0.0000
      3  C2       -62.4880  -45.8950    3.0590 C.ar  201  RHQ201      0.0336
      4  C3       -61.2080  -45.5220    3.4730 C.ar  201  RHQ201      0.0000
      5  C4       -60.2110  -45.2640    2.5270 C.ar  201  RHQ201     -0.0068
      6  C5       -60.4800  -45.3720    1.1650 C.ar  201  RHQ201      0.0643
      7  C6       -61.7590  -45.7440    0.7530 C.ar  201  RHQ201      0.0527
      8  O1       -63.8910  -46.3340    1.2530 O.3   201  RHQ201     -0.4702
      9  C7       -64.8710  -46.5950    1.9960 C.3   201  RHQ201      0.2115
     10  C8       -64.7580  -46.5300    3.3860 C.2   201  RHQ201      0.0214
     11  C9       -63.5370  -46.1590    3.9440 C.2   201  RHQ201      0.0028
     12  C10      -66.0860  -46.9520    1.4170 C.2   201  RHQ201      0.0369
     13  C11      -67.1930  -47.2480    2.2210 C.2   201  RHQ201      0.0608
     14  C12      -67.0750  -47.1830    3.6030 C.2   201  RHQ201     -0.0074
     15  C13      -65.8670  -46.8250    4.1860 C.2   201  RHQ201     -0.0035
     16  N1       -68.4080  -47.6000    1.7220 N.pl3 201  RHQ201     -0.2381
     17  C14      -63.4520  -46.1180    5.4310 C.ar  201  RHQ201      0.0061
     18  C15      -63.0430  -47.2920    6.0470 C.ar  201  RHQ201      0.0002
     19  C16      -62.9580  -47.3820    7.4270 C.ar  201  RHQ201      0.0000
     20  C17      -63.3050  -46.2930    8.2090 C.ar  201  RHQ201      0.0002
     21  C18      -63.7320  -45.1230    7.6040 C.ar  201  RHQ201      0.0064
     22  C19      -63.8170  -45.0240    6.2180 C.ar  201  RHQ201      0.0756
     23  C20      -68.2610  -47.4960    4.4830 C.3   201  RHQ201      0.0324
     24  C21      -58.8310  -44.8630    2.9850 C.3   201  RHQ201      0.0324
     25  C22      -68.7430  -47.7370    0.3120 C.3   201  RHQ201      0.1122
     26  C23      -69.6960  -48.9070    0.1840 C.3   201  RHQ201      0.0251
     27  N2       -59.4870  -45.1140    0.2690 N.pl3 201  RHQ201     -0.2378
     28  C24      -59.6480  -45.1990   -1.1770 C.3   201  RHQ201      0.1122
     29  C25      -58.2890  -45.2160   -1.8360 C.3   201  RHQ201      0.0251
     30  C26      -64.3080  -43.7150    5.6630 C.2   201  RHQ201      0.3412
     31  O27      -63.9170  -43.2750    4.5980 O.2   201  RHQ201     -0.2449
     32  O2       -65.2800  -42.9380    6.4220 O.3   201  RHQ201     -0.4454
     33  C28      -66.4480  -43.5530    6.9810 C.3   201  RHQ201      0.2089
     34  C29      -66.4510  -43.4190    8.4920 C.3   201  RHQ201      0.0513
@<TRIPOS>BOND
     1    29    28    1
     2    28    27    1
     3    26    25    1
     4    27     6    1
     5    25    16    1
     6     7     6   ar
     7     7     1   ar
     8     6     5   ar
     9     8     1    1
    10     8     9    1
    11    12     9    1
    12    12    13    2
    13     1     3   ar
    14    16    13    1
    15     9    10    1
    16    13    14    1
    17     5    24    1
    18     5     4   ar
    19     3     4   ar
    20     3    11    1
    21    10    11    2
    22    10    15    1
    23    14    15    2
    24    14    23    1
    25    11    17    1
    26    31    30    2
    27    17    18   ar
    28    17    22   ar
    29    30    22    1
    30    30    32    1
    31    18    19   ar
    32    22    21   ar
    33    32    33    1
    34    33    34    1
    35    19    20   ar
    36    21    20   ar
