@<TRIPOS>MOLECULE
3br6_RHQ_A_1.pdb
 33 36 0 0 0
SMALL
GASTEIGER

@<TRIPOS>ATOM
      1  C1       -63.9970  -47.0070    2.0160 C.ar  201  RHQ201      0.1405
      2  C2       -63.7300  -46.6620    3.3420 C.ar  201  RHQ201      0.0336
      3  C3       -62.4830  -46.0990    3.6660 C.ar  201  RHQ201      0.0000
      4  C4       -61.5140  -45.8830    2.6750 C.ar  201  RHQ201     -0.0068
      5  C5       -61.7980  -46.2340    1.3470 C.ar  201  RHQ201      0.0643
      6  C6       -63.0350  -46.7920    1.0420 C.ar  201  RHQ201      0.0527
      7  O1       -65.0940  -47.5130    1.6620 O.3   201  RHQ201     -0.4702
      8  C7       -66.0460  -47.7610    2.4420 C.3   201  RHQ201      0.2115
      9  C8       -65.9390  -47.4780    3.8070 C.2   201  RHQ201      0.0214
     10  C9       -64.7420  -46.9070    4.2790 C.2   201  RHQ201      0.0028
     11  C10      -67.2130  -48.3310    1.9220 C.2   201  RHQ201      0.0369
     12  C11      -68.3040  -48.6300    2.7410 C.2   201  RHQ201      0.0608
     13  C12      -68.2030  -48.3450    4.1110 C.2   201  RHQ201     -0.0074
     14  C13      -67.0320  -47.7760    4.6340 C.2   201  RHQ201     -0.0035
     15  N1       -69.3860  -49.1850    2.1090 N.pl3 201  RHQ201     -0.2381
     16  C14      -64.5540  -46.5650    5.7180 C.ar  201  RHQ201      0.0061
     17  C15      -63.9060  -47.4770    6.5430 C.ar  201  RHQ201      0.0002
     18  C16      -63.7120  -47.1920    7.8900 C.ar  201  RHQ201      0.0000
     19  C17      -64.1660  -45.9910    8.4200 C.ar  201  RHQ201      0.0002
     20  C18      -64.8120  -45.0790    7.6010 C.ar  201  RHQ201      0.0064
     21  C19      -65.0140  -45.3540    6.2440 C.ar  201  RHQ201      0.0756
     22  C20      -69.3180  -48.6190    5.0840 C.3   201  RHQ201      0.0324
     23  C21      -60.1960  -45.2750    3.0840 C.3   201  RHQ201      0.0324
     24  C22      -70.6700  -49.6010    2.6830 C.3   201  RHQ201      0.1122
     25  C23      -70.5590  -50.8910    3.4770 C.3   201  RHQ201      0.0251
     26  N2       -60.9760  -46.0940    0.2660 N.pl3 201  RHQ201     -0.2378
     27  C24      -59.6340  -45.5560    0.2300 C.3   201  RHQ201      0.1122
     28  C25      -59.2120  -45.4350   -1.2170 C.3   201  RHQ201      0.0251
     29  C26      -65.7240  -44.3070    5.4150 C.2   201  RHQ201      0.3412
     30  O27      -66.0810  -44.4550    4.2520 O.2   201  RHQ201     -0.2449
     31  O2       -65.9710  -43.0200    6.0310 O.3   201  RHQ201     -0.4454
     32  C28      -64.8520  -42.1470    6.0680 C.3   201  RHQ201      0.2089
     33  C29      -65.2620  -40.7360    6.4230 C.3   201  RHQ201      0.0513
@<TRIPOS>BOND
     1    28    27    1
     2    27    26    1
     3    26     5    1
     4     6     5   ar
     5     6     1   ar
     6     5     4   ar
     7     7     1    1
     8     7     8    1
     9    11     8    1
    10    11    12    2
    11     1     2   ar
    12    15    24    1
    13    15    12    1
    14     8     9    1
    15     4    23    1
    16     4     3   ar
    17    24    25    1
    18    12    13    1
    19     2     3   ar
    20     2    10    1
    21     9    10    2
    22     9    14    1
    23    13    14    2
    24    13    22    1
    25    30    29    2
    26    10    16    1
    27    29    31    1
    28    29    21    1
    29    16    21   ar
    30    16    17   ar
    31    31    32    1
    32    32    33    1
    33    21    20   ar
    34    17    18   ar
    35    20    19   ar
    36    18    19   ar
