@<TRIPOS>MOLECULE
3br9_DEY_A_1.pdb
 36 39 0 0 0
SMALL
GASTEIGER

@<TRIPOS>ATOM
      1  O32       94.4020    5.4100   58.5470 O.2   579  DEY579     -0.1456
      2  S36       95.2020    6.5870   58.2800 S.O2  579  DEY579      0.1110
      3  O31       96.6290    6.4960   58.3980 O.2   579  DEY579     -0.1456
      4  C9        94.5310    7.9480   59.2110 C.2   579  DEY579      0.1593
      5  C5        94.8060    8.0820   60.5810 C.2   579  DEY579      0.0594
      6  C8        94.2640    9.1510   61.3300 C.2   579  DEY579      0.1367
      7  O34       94.5280    9.3080   62.6730 O.2   579  DEY579     -0.4701
      8  C22       95.1580    8.2370   63.3750 C.3   579  DEY579      0.2445
      9  C17       94.1310    7.1910   63.7660 C.3   579  DEY579      0.0575
     10  C16       95.7710    8.8160   64.6140 C.2   579  DEY579      0.3009
     11  O30       96.4700    8.1810   65.3810 O.2   579  DEY579     -0.2677
     12  N28       95.4740   10.1300   64.7960 N.am  579  DEY579     -0.0846
     13  C3        93.4340   10.0700   60.7060 C.2   579  DEY579      0.0183
     14  N26       94.8500    7.0570   56.7300 N.2   579  DEY579     -0.0655
     15  C14       93.9850    8.1080   56.4160 C.1   579  DEY579      0.0935
     16  N24       93.3280    8.8380   57.2670 N.2   579  DEY579     -0.3555
     17  C7        93.6750    8.8600   58.5970 C.2   579  DEY579      0.1436
     18  C2        93.1400    9.9160   59.3460 C.3   579  DEY579      0.0904
     19  C12       93.8360    8.3230   54.9800 C.3   579  DEY579      0.2123
     20  C13       94.4790    7.5590   54.0710 C.3   579  DEY579      0.2171
     21  O33       94.9820    6.3080   54.3270 O.3   579  DEY579     -0.2149
     22  C15       92.9690    9.4320   54.5220 C.2   579  DEY579      0.2620
     23  O29       92.2860   10.0590   55.3480 O.2   579  DEY579     -0.2719
     24  N27       93.0890    9.7690   53.1810 N.am  579  DEY579     -0.1801
     25  C21       92.3550   10.9110   52.6930 C.3   579  DEY579      0.1192
     26  C20       90.8970   10.4690   52.6070 C.3   579  DEY579      0.0237
     27  C23       90.6870    9.3370   51.5840 C.3   579  DEY579      0.0018
     28  C19       89.2500    8.8300   51.5400 C.3   579  DEY579      0.0001
     29  C18       91.1220    9.7990   50.1860 C.3   579  DEY579      0.0001
     30  N25       93.8710    9.0960   52.2760 N.2   579  DEY579     -0.1770
     31  C11       94.5340    8.0590   52.6900 C.2   579  DEY579      0.1142
     32  C10       95.4000    7.3120   51.7840 C.ar  579  DEY579      0.0470
     33  C4        95.9370    6.0630   51.9410 C.ar  579  DEY579      0.0083
     34  S35       95.8850    8.0600   50.3240 S.2   579  DEY579     -0.0851
     35  C6        96.8290    6.7110   49.9040 C.ar  579  DEY579      0.0355
     36  C1        96.7430    5.7490   50.8690 C.ar  579  DEY579      0.0075
@<TRIPOS>BOND
     1    35    34   ar
     2    35    36   ar
     3    29    27    1
     4    34    32   ar
     5    36    33   ar
     6    28    27    1
     7    27    26    1
     8    32    33   ar
     9    32    31    1
    10    30    31    2
    11    30    24    1
    12    26    25    1
    13    31    20    1
    14    25    24    1
    15    24    22   am
    16    20    21    1
    17    20    19    1
    18    22    19    1
    19    22    23    2
    20    19    15    1
    21    15    14    2
    22    15    16    2
    23    14     2    1
    24    16    17    2
    25     2     3    2
    26     2     1    2
    27     2     4    1
    28    17     4    1
    29    17    18    1
    30     4     5    2
    31    18    13    1
    32     5     6    1
    33    13     6    2
    34     6     7    1
    35     7     8    1
    36     8     9    1
    37     8    10    1
    38    10    12   am
    39    10    11    2
