@<TRIPOS>MOLECULE
3bra_AEF_A_1.pdb
 10 10 0 0 0
SMALL
GASTEIGER

@<TRIPOS>ATOM
      1  C4       -18.4440   39.8950   92.6820 C.3   394  AEF394      0.0468
      2  C5       -21.8120   41.5980   93.2790 C.ar  394  AEF394      0.0417
      3  C6       -21.9140   39.3190   94.1160 C.ar  394  AEF394      0.0417
      4  C7       -17.6160   39.3770   93.8710 C.3   394  AEF394      0.1140
      5  C8       -22.5150   40.5600   93.8940 C.ar  394  AEF394      0.1957
      6  O10      -23.8170   40.7520   94.2940 O.3   394  AEF394     -0.2866
      7  C3       -20.5950   39.1180   93.7170 C.ar  394  AEF394     -0.0009
      8  C2       -20.4890   41.3790   92.8820 C.ar  394  AEF394     -0.0009
      9  C1       -19.8750   40.1400   93.1030 C.ar  394  AEF394     -0.0205
     10  N9       -16.1700   39.2890   93.5490 N.3   394  AEF394     -0.1310
@<TRIPOS>BOND
     1     1     9    1
     2     1     4    1
     3     8     9   ar
     4     8     2   ar
     5     9     7   ar
     6     2     5   ar
     7    10     4    1
     8     7     3   ar
     9     5     3   ar
    10     5     6    1
