@<TRIPOS>MOLECULE
3brb_ADP_A_1.pdb
 27 29 0 0 0
SMALL
GASTEIGER

@<TRIPOS>ATOM
      1  PB        -5.6550   10.9300  -16.6830 P.3   901  ADP901      0.5373
      2  O1B       -6.6920    9.8990  -16.3090 O.3   901  ADP901     -0.1143
      3  O2B       -5.1060   11.6860  -15.5260 O.3   901  ADP901     -0.1143
      4  O3B       -4.5180   10.3990  -17.5260 O.2   901  ADP901     -0.2221
      5  PA        -7.0890   13.4210  -17.5030 P.3   901  ADP901      0.2231
      6  O1A       -6.9450   14.1280  -16.1990 O.3   901  ADP901     -0.4370
      7  O2A       -8.4500   13.4220  -18.1440 O.2   901  ADP901     -0.5169
      8  O3A       -6.5260   11.9030  -17.6380 O.3   901  ADP901     -0.2261
      9  O5'       -6.0980   14.1970  -18.4940 O.3   901  ADP901     -0.3111
     10  C5'       -6.1370   13.9660  -19.9010 C.3   901  ADP901      0.1813
     11  C4'       -4.7540   14.2900  -20.4390 C.3   901  ADP901      0.1821
     12  O4'       -4.4770   15.6830  -20.2940 O.3   901  ADP901     -0.3135
     13  C3'       -3.6880   13.5520  -19.6630 C.3   901  ADP901      0.2184
     14  O3'       -2.7190   13.1760  -20.6200 O.3   901  ADP901     -0.2174
     15  C2'       -3.0850   14.5740  -18.7160 C.3   901  ADP901      0.2570
     16  O2'       -1.7040   14.2690  -18.4730 O.3   901  ADP901     -0.2130
     17  C1'       -3.3190   15.8870  -19.4720 C.3   901  ADP901      0.3186
     18  N9        -3.5090   17.0340  -18.5560 N.pl3 901  ADP901     -0.1439
     19  C8        -4.3800   17.1360  -17.5410 C.3   901  ADP901      0.3377
     20  N7        -4.2630   18.3270  -16.9080 N.2   901  ADP901     -0.2095
     21  C5        -3.2700   18.9980  -17.5290 C.2   901  ADP901      0.2526
     22  C6        -2.6320   20.3190  -17.3600 C.2   901  ADP901      0.4393
     23  N6        -3.0210   21.1370  -16.3610 N.pl3 901  ADP901      0.2180
     24  N1        -1.6380   20.6560  -18.2170 N.2   901  ADP901      0.0021
     25  C2        -1.2100   19.8250  -19.2040 C.3   901  ADP901      0.5254
     26  N3        -1.7570   18.6000  -19.4090 N.2   901  ADP901     -0.0055
     27  C4        -2.7730   18.1530  -18.6100 C.2   901  ADP901      0.3518
@<TRIPOS>BOND
     1    14    13    1
     2    11    12    1
     3    11    10    1
     4    11    13    1
     5    12    17    1
     6    10     9    1
     7    13    15    1
     8    17    15    1
     9    17    18    1
    10    26    25    1
    11    26    27    2
    12    25    24    1
    13    15    16    1
    14    27    18    1
    15    27    21    1
    16    18    19    1
    17     9     5    1
    18    24    22    2
    19     7     5    2
    20     8     5    1
    21     8     1    1
    22    19    20    1
    23    21    22    1
    24    21    20    2
    25     4     1    2
    26     5     6    1
    27    22    23    1
    28     1     2    1
    29     1     3    1
