@<TRIPOS>MOLECULE
3bre_C2E_A_1.pdb
 46 52 0 0 0
SMALL
GASTEIGER

@<TRIPOS>ATOM
      1  P1        33.2210   15.7650  -16.8060 P.3   360  C2E360      0.2141
      2  O2P       34.5560   16.3100  -17.2980 O.2   360  C2E360     -0.5172
      3  O1P       32.5280   16.7770  -15.9260 O.3   360  C2E360     -0.4373
      4  O5'       33.4610   14.4330  -15.9750 O.3   360  C2E360     -0.3114
      5  C5'       34.1050   13.3500  -16.6120 C.3   360  C2E360      0.1812
      6  C4'       34.0380   12.1260  -15.7310 C.3   360  C2E360      0.1771
      7  O4'       34.4970   12.4900  -14.4340 O.3   360  C2E360     -0.3327
      8  C3'       32.6480   11.5150  -15.5210 C.3   360  C2E360      0.1857
      9  O3'       32.4350   10.6550  -16.6360 O.3   360  C2E360     -0.3112
     10  C2'       32.8680   10.8440  -14.1870 C.3   360  C2E360      0.2282
     11  O2'       33.4300    9.5410  -14.3550 O.3   360  C2E360     -0.2159
     12  C1'       33.8290   11.7380  -13.4020 C.3   360  C2E360      0.2292
     13  N9        33.0800   12.6910  -12.5270 N.pl3 360  C2E360     -0.2354
     14  C8        32.9850   14.0400  -12.6710 C.3   360  C2E360      0.2246
     15  N7        32.2130   14.5860  -11.6930 N.2   360  C2E360     -0.2322
     16  C5        31.8040   13.5920  -10.9030 C.2   360  C2E360      0.2182
     17  C6        30.9590   13.4600   -9.6770 C.1   360  C2E360      0.2372
     18  O6        30.4330   14.4670   -9.1480 O.2   360  C2E360     -0.2069
     19  N1        30.7800   12.2200   -9.1490 N.2   360  C2E360     -0.2485
     20  C2        31.3490   11.1000   -9.7130 C.1   360  C2E360      0.2531
     21  N2        31.1510    9.8930   -9.1550 N.pl3 360  C2E360     -0.0226
     22  N3        32.1220   11.1600  -10.8330 N.2   360  C2E360     -0.3074
     23  C4        32.3770   12.3410  -11.4510 C.2   360  C2E360      0.2300
     24  P11       30.9250   10.5860  -17.1400 P.3   360  C2E360      0.2141
     25  O21       30.8840    9.6280  -18.3270 O.2   360  C2E360     -0.5172
     26  O11       30.0260   10.1050  -16.0310 O.3   360  C2E360     -0.4373
     27  O5A       30.4610   11.9980  -17.6830 O.3   360  C2E360     -0.3114
     28  C5A       31.2070   12.5890  -18.7410 C.3   360  C2E360      0.1812
     29  C4A       30.6710   13.9750  -18.9590 C.3   360  C2E360      0.1771
     30  O4A       29.2420   13.9060  -18.9980 O.3   360  C2E360     -0.3327
     31  C3A       31.0300   14.9590  -17.8440 C.3   360  C2E360      0.1857
     32  O3A       32.3370   15.4870  -18.1190 O.3   360  C2E360     -0.3112
     33  C2A       29.8420   15.9120  -17.9640 C.3   360  C2E360      0.2282
     34  O2A       30.0980   16.9340  -18.9410 O.3   360  C2E360     -0.2159
     35  C1A       28.6600   15.0520  -18.3940 C.3   360  C2E360      0.2292
     36  N91       27.8320   14.6500  -17.2010 N.pl3 360  C2E360     -0.2354
     37  C81       27.6390   13.4140  -16.6900 C.3   360  C2E360      0.2246
     38  N71       26.7960   13.4460  -15.6100 N.2   360  C2E360     -0.2322
     39  C51       26.4280   14.7180  -15.4160 C.2   360  C2E360      0.2182
     40  C61       25.5490   15.4820  -14.4790 C.1   360  C2E360      0.2372
     41  O61       24.8920   14.9320  -13.5450 O.2   360  C2E360     -0.2069
     42  N11       25.4620   16.8240  -14.6580 N.2   360  C2E360     -0.2485
     43  C21       26.1270   17.4980  -15.6320 C.1   360  C2E360      0.2531
     44  N21       25.9880   18.8380  -15.7440 N.pl3 360  C2E360     -0.0226
     45  N31       26.9390   16.8670  -16.5170 N.2   360  C2E360     -0.3074
     46  C41       27.1200   15.5080  -16.4580 C.2   360  C2E360      0.2300
@<TRIPOS>BOND
     1    30    29    1
     2    30    35    1
     3    29    28    1
     4    29    31    1
     5    34    33    1
     6    28    27    1
     7    35    33    1
     8    35    36    1
     9    25    24    2
    10    32    31    1
    11    32     1    1
    12    33    31    1
    13    27    24    1
    14     2     1    2
    15    36    37    1
    16    36    46    1
    17    24     9    1
    18    24    26    1
    19     1     4    1
    20     1     3    1
    21    37    38    1
    22     9     8    1
    23     5     4    1
    24     5     6    1
    25    45    46    2
    26    45    43    2
    27    46    39    1
    28    44    43    1
    29     6     8    1
    30     6     7    1
    31    43    42    2
    32    38    39    2
    33     8    10    1
    34    39    40    1
    35    42    40    2
    36    40    41    2
    37     7    12    1
    38    11    10    1
    39    10    12    1
    40    12    13    1
    41    14    13    1
    42    14    15    1
    43    13    23    1
    44    15    16    2
    45    23    16    1
    46    23    22    2
    47    16    17    1
    48    22    20    2
    49    20    21    1
    50    20    19    2
    51    17    19    2
    52    17    18    2
