@<TRIPOS>MOLECULE
3brf_SOR_A_1.pdb
 12 11 0 0 0
SMALL
GASTEIGER

@<TRIPOS>ATOM
      1  C1       -29.5040   -7.6010   57.4170 C.3     1  SOR1        0.2175
      2  C2       -31.0200   -7.7300   57.2560 C.3     1  SOR1        0.2175
      3  C3       -31.4070   -8.9190   56.3800 C.3     1  SOR1        0.2175
      4  C4       -32.9130   -8.9770   56.0930 C.3     1  SOR1        0.2175
      5  C5       -33.2820   -9.3130   54.6500 C.3     1  SOR1        0.2175
      6  C6       -33.8740   -8.1000   53.9830 C.3     1  SOR1        0.2175
      7  O1       -29.1890   -6.9500   58.6470 O.3     1  SOR1       -0.2175
      8  O2       -31.5990   -7.8380   58.5470 O.3     1  SOR1       -0.2175
      9  O3       -31.0220  -10.1420   57.0020 O.3     1  SOR1       -0.2175
     10  O4       -33.5730   -9.9430   56.8950 O.3     1  SOR1       -0.2175
     11  O5       -32.2580   -9.8780   53.8310 O.3     1  SOR1       -0.2175
     12  O6       -34.4300   -8.6150   52.8130 O.3     1  SOR1       -0.2175
@<TRIPOS>BOND
     1    12     6    1
     2    11     5    1
     3     6     5    1
     4     5     4    1
     5     4     3    1
     6     4    10    1
     7     3     9    1
     8     3     2    1
     9     2     1    1
    10     2     8    1
    11     1     7    1
