@<TRIPOS>MOLECULE
3brh_III_D_1.pdb
 36 36 0 0 0
SMALL
GASTEIGER

@<TRIPOS>ATOM
      1  N          4.1300   15.2340  106.6570 N.3   391  ASP391     -0.1225
      2  CA         4.2710   14.6410  107.9580 C.3   391  ASP391      0.1805
      3  C          4.0100   13.1150  107.8030 C.2   391  ASP391      0.2598
      4  O          3.2500   12.5580  108.5700 O.2   391  ASP391     -0.2718
      5  CB         3.2240   15.3280  108.8520 C.3   391  ASP391      0.1424
      6  CG         3.6590   15.4830  110.3010 C.2   391  ASP391      0.3668
      7  OD1        3.0020   14.8620  111.1560 O.co2 391  ASP391     -0.2456
      8  OD2        4.6020   16.2380  110.5910 O.co2 391  ASP391     -0.2456
      9  N          4.6300   12.4390  106.8170 N.am  392  ASN392     -0.1960
     10  CA         5.1240   11.0420  106.9880 C.3   392  ASN392      0.1819
     11  C          6.4320   10.9580  107.7980 C.2   392  ASN392      0.2621
     12  O          6.6170   11.7640  108.6650 O.2   392  ASN392     -0.2715
     13  CB         5.2060   10.2460  105.6660 C.3   392  ASN392      0.1195
     14  CG         4.3650    8.9540  105.7010 C.2   392  ASN392      0.2630
     15  OD1        3.2340    8.9500  105.2540 O.2   392  ASN392     -0.2716
     16  ND2        4.9200    7.8760  106.2230 N.am  392  ASN392     -0.0877
     17  N          7.2580    9.9300  107.5620 N.am  393  GLU393     -0.1963
     18  CA         8.2870    9.5120  108.5160 C.3   393  GLU393      0.1733
     19  C          9.5170    9.1680  107.7020 C.2   393  GLU393      0.2616
     20  O          9.3610    8.4700  106.7130 O.2   393  GLU393     -0.2715
     21  CB         7.8660    8.2590  109.3490 C.3   393  GLU393      0.0429
     22  CG         6.8810    7.3110  108.7010 C.3   393  GLU393      0.1163
     23  CD         5.9230    6.6820  109.7040 C.2   393  GLU393      0.3649
     24  OE1        5.7690    5.4420  109.7130 O.co2 393  GLU393     -0.2457
     25  OE2        5.3260    7.4410  110.4880 O.co2 393  GLU393     -0.2457
     26  N         10.7130    9.6420  108.1120 N.am  394  TYR394     -0.1974
     27  CA        11.9920    9.1560  107.5890 C.3   394  TYR394      0.1639
     28  C         12.5620    7.9600  108.3310 C.2   394  TYR394      0.2290
     29  O         13.5860    7.4150  107.9380 O.2   394  TYR394     -0.2864
     30  CB        13.0670   10.2220  107.4780 C.3   394  TYR394      0.0560
     31  CG        13.5660   10.1800  106.1330 C.ar  394  TYR394     -0.0200
     32  CD1       13.6730    8.9810  105.5010 C.ar  394  TYR394     -0.0042
     33  CD2       13.8370   11.3070  105.4420 C.ar  394  TYR394     -0.0042
     34  CE1       14.0940    8.8980  104.2240 C.ar  394  TYR394     -0.0003
     35  CE2       14.2420   11.2630  104.1360 C.ar  394  TYR394     -0.0003
     36  CZ        14.3780   10.0600  103.5270 C.ar  394  TYR394     -0.0000
@<TRIPOS>BOND
     1    36    35   ar
     2    36    34   ar
     3    35    33   ar
     4    34    32   ar
     5    15    14    2
     6    33    31   ar
     7    32    31   ar
     8    13    14    1
     9    13    10    1
    10    14    16   am
    11    31    30    1
    12     1     2    1
    13    20    19    2
    14     9    10    1
    15     9     3   am
    16    10    11    1
    17    30    27    1
    18    17    11   am
    19    17    18    1
    20    27    26    1
    21    27    28    1
    22    19    26   am
    23    19    18    1
    24    11    12    2
    25     3     2    1
    26     3     4    2
    27    29    28    2
    28     2     5    1
    29    18    21    1
    30    22    21    1
    31    22    23    1
    32     5     6    1
    33    23    24   ar
    34    23    25   ar
    35     6     8   ar
    36     6     7   ar
