@<TRIPOS>MOLECULE
3brm_ONL_A_1.pdb
 10 9 0 0 0
SMALL
GASTEIGER

@<TRIPOS>ATOM
      1  N         16.4730   14.5530    4.6780 N.3   401  ONL401     -0.1208
      2  CA        17.9200   14.3020    4.6910 C.3   401  ONL401      0.1948
      3  C         18.2240   13.0940    5.5620 C.2   401  ONL401      0.3819
      4  O         17.8280   13.0700    6.7440 O.co2 401  ONL401     -0.2441
      5  OXT       18.8490   12.1190    5.0740 O.co2 401  ONL401     -0.2441
      6  CB        18.7090   15.5320    5.1210 C.3   401  ONL401      0.0384
      7  CG        20.0400   15.5330    4.3570 C.3   401  ONL401      0.0666
      8  CD        20.6780   16.8970    4.3030 C.2   401  ONL401      0.1511
      9  OD        20.4450   17.7090    3.4360 O.2   401  ONL401     -0.2960
     10  CE        21.5470   17.2240    5.2150 C.3   401  ONL401      0.0722
@<TRIPOS>BOND
     1     9     8    2
     2     8     7    1
     3     8    10    1
     4     7     6    1
     5     1     2    1
     6     2     6    1
     7     2     3    1
     8     5     3   ar
     9     3     4   ar
