@<TRIPOS>MOLECULE
3brn_SRO_A_1.pdb
 13 14 0 0 0
SMALL
GASTEIGER

@<TRIPOS>ATOM
      1  OH        -8.1260   31.7850  -10.8480 O.3   158  SRO158     -0.2866
      2  CZ3       -8.0610   33.1320  -10.5860 C.ar  158  SRO158      0.1958
      3  CH2       -7.0470   33.5720   -9.7390 C.ar  158  SRO158      0.0436
      4  CZ2       -6.8510   34.9390   -9.5270 C.ar  158  SRO158      0.0219
      5  CE2       -7.7470   35.8060  -10.1340 C.ar  158  SRO158      0.0760
      6  NE1       -7.9200   37.1520  -10.1210 N.2   158  SRO158     -0.2659
      7  CD1       -8.9580   37.4780  -10.9270 C.3   158  SRO158      0.1477
      8  CG        -9.4980   36.3040  -11.4540 C.2   158  SRO158     -0.0171
      9  CD2       -8.7390   35.2600  -10.9310 C.ar  158  SRO158      0.0144
     10  CE3       -8.8800   33.9750  -11.1400 C.ar  158  SRO158      0.0429
     11  CB       -10.6950   36.2090  -12.3680 C.3   158  SRO158      0.0445
     12  CA       -11.8650   35.5100  -11.6480 C.3   158  SRO158      0.1137
     13  NZ       -12.9430   35.2870  -12.6170 N.3   158  SRO158     -0.1310
@<TRIPOS>BOND
     1    13    12    1
     2    11    12    1
     3    11     8    1
     4     8     9    2
     5     8     7    1
     6    10     9   ar
     7    10     2   ar
     8     9     5   ar
     9     7     6    1
    10     1     2    1
    11     2     3   ar
    12     5     6    2
    13     5     4   ar
    14     3     4   ar
