@<TRIPOS>MOLECULE
3brp_BLA_A_1.pdb
 43 46 0 0 0
SMALL
GASTEIGER

@<TRIPOS>ATOM
      1  CHA       17.0120   34.9740  -12.8920 C.3   484  BLA484      0.1170
      2  NA        14.6100   34.7640  -12.2650 N.2   484  BLA484     -0.4104
      3  C1A       15.7600   34.2280  -12.7220 C.2   484  BLA484      0.1114
      4  C2A       15.6720   32.8250  -13.1940 C.2   484  BLA484      0.0024
      5  C3A       14.2940   32.4730  -12.8890 C.2   484  BLA484      0.0021
      6  C4A       13.7450   33.7440  -12.3330 C.2   484  BLA484      0.1114
      7  CMA       13.6460   31.1230  -13.1020 C.3   484  BLA484      0.0331
      8  CAA       16.7460   31.9490  -13.7550 C.3   484  BLA484      0.0402
      9  CBA       16.3680   31.6290  -15.2160 C.3   484  BLA484      0.1188
     10  CGA       16.2980   32.9080  -16.0320 C.2   484  BLA484      0.3652
     11  O1A       17.3660   33.4750  -16.3210 O.co2 484  BLA484     -0.2456
     12  O2A       15.1930   33.3530  -16.4100 O.co2 484  BLA484     -0.2456
     13  CHB       12.3820   33.9680  -11.8400 C.3   484  BLA484      0.1181
     14  NB        11.1140   32.5630  -13.4520 N.2   484  BLA484     -0.3372
     15  C1B       11.1310   33.3800  -12.3440 C.2   484  BLA484      0.1257
     16  C2B        9.8120   33.6800  -11.7250 C.2   484  BLA484      0.0168
     17  C3B        8.9190   32.8780  -12.5670 C.2   484  BLA484      0.0929
     18  C4B        9.8120   32.2670  -13.5890 C.1   484  BLA484      0.2041
     19  CMB        9.4940   34.5290  -10.5010 C.3   484  BLA484      0.0342
     20  OB         9.3940   31.4780  -14.5010 O.2   484  BLA484     -0.2093
     21  CAB        7.4220   32.7630  -12.4370 C.2   484  BLA484      0.0124
     22  CBB        6.6750   33.2610  -13.4320 C.2   484  BLA484      0.0008
     23  NC        18.9890   40.1030   -9.3730 N.2   484  BLA484     -0.3371
     24  C1C       19.2320   41.1110   -8.4960 C.1   484  BLA484      0.2003
     25  C2C       18.0310   41.8230   -7.9690 C.2   484  BLA484      0.0749
     26  C3C       16.9380   41.0500   -8.6220 C.2   484  BLA484      0.0347
     27  C4C       17.6320   40.0620   -9.5050 C.2   484  BLA484      0.1293
     28  CMC       17.9900   42.8930   -6.8980 C.3   484  BLA484      0.0448
     29  OC        20.4180   41.4630   -8.1370 O.2   484  BLA484     -0.2096
     30  CAC       15.4440   41.2300   -8.5690 C.2   484  BLA484      0.0027
     31  CBC       14.7510   41.5770   -7.4580 C.2   484  BLA484      0.0001
     32  CHD       16.9110   39.1400  -10.4120 C.3   484  BLA484      0.1184
     33  ND        16.7300   37.0480  -11.5470 N.2   484  BLA484     -0.4104
     34  C1D       17.5150   38.1180  -11.3070 C.2   484  BLA484      0.1115
     35  C2D       18.8400   38.0650  -11.9890 C.2   484  BLA484      0.0021
     36  C3D       18.7960   36.7830  -12.6770 C.2   484  BLA484      0.0024
     37  C4D       17.4630   36.2740  -12.3680 C.2   484  BLA484      0.1114
     38  CMD       20.0050   38.9980  -12.0370 C.3   484  BLA484      0.0331
     39  CAD       19.8500   36.1300  -13.5330 C.3   484  BLA484      0.0402
     40  CBD       20.4140   34.9290  -12.7530 C.3   484  BLA484      0.1188
     41  CGD       21.3940   34.1490  -13.6140 C.2   484  BLA484      0.3652
     42  O1D       21.3690   34.3230  -14.8600 O.co2 484  BLA484     -0.2456
     43  O2D       22.2010   33.3870  -13.0220 O.co2 484  BLA484     -0.2456
@<TRIPOS>BOND
     1    12    10   ar
     2    11    10   ar
     3    10     9    1
     4     9     8    1
     5    42    41   ar
     6    20    18    2
     7     8     4    1
     8    41    43   ar
     9    41    40    1
    10    18    14    2
    11    18    17    1
    12    39    40    1
    13    39    36    1
    14    14    15    2
    15    22    21    2
    16     4     5    2
    17     4     3    1
    18     7     5    1
    19     1     3    1
    20     1    37    1
    21     5     6    1
    22     3     2    2
    23    36    37    1
    24    36    35    2
    25    17    21    1
    26    17    16    2
    27    37    33    2
    28    15    13    1
    29    15    16    1
    30     6     2    2
    31     6    13    1
    32    38    35    1
    33    35    34    1
    34    16    19    1
    35    33    34    2
    36    34    32    1
    37    32    27    1
    38    27    23    2
    39    27    26    1
    40    23    24    2
    41    26    30    1
    42    26    25    2
    43    30    31    2
    44    24    29    2
    45    24    25    1
    46    25    28    1
