@<TRIPOS>MOLECULE
3brq_FRU_A_1.pdb
 12 12 0 0 0
SMALL
GASTEIGER

@<TRIPOS>ATOM
      1  C1         8.2330   63.4970   29.2930 C.3   701  FRU701      0.2434
      2  C2         9.1690   62.9050   28.2310 C.3   701  FRU701      0.2807
      3  C3         9.8670   61.6380   28.7320 C.3   701  FRU701      0.2409
      4  C4        11.1050   61.5960   27.8590 C.3   701  FRU701      0.2168
      5  C5        11.4360   63.0840   27.6670 C.3   701  FRU701      0.1836
      6  C6        11.9790   63.4450   26.2830 C.3   701  FRU701      0.2142
      7  O1         8.7700   63.3410   30.6140 O.3   701  FRU701     -0.2148
      8  O2         8.4320   62.6530   27.0230 O.3   701  FRU701     -0.1896
      9  O3         9.0520   60.4550   28.6840 O.3   701  FRU701     -0.2149
     10  O4        12.1470   60.8870   28.5220 O.3   701  FRU701     -0.2175
     11  O5        10.2250   63.8160   27.8960 O.3   701  FRU701     -0.3253
     12  O6        11.8520   64.8600   26.0700 O.3   701  FRU701     -0.2176
@<TRIPOS>BOND
     1    12     6    1
     2     6     5    1
     3     8     2    1
     4     5     4    1
     5     5    11    1
     6     4    10    1
     7     4     3    1
     8    11     2    1
     9     2     3    1
    10     2     1    1
    11     9     3    1
    12     1     7    1
