@<TRIPOS>MOLECULE
3brw_GDP_D_1.pdb
 28 30 0 0 0
SMALL
GASTEIGER

@<TRIPOS>ATOM
      1  PB        92.9020  -18.0050    6.4910 P.3   171  GDP171      0.5373
      2  O1B       91.6900  -18.8390    6.1750 O.3   171  GDP171     -0.1143
      3  O2B       93.7200  -18.3000    7.7240 O.3   171  GDP171     -0.1143
      4  O3B       93.8870  -18.0620    5.2260 O.2   171  GDP171     -0.2221
      5  O3A       92.4460  -16.4580    6.4820 O.3   171  GDP171     -0.2261
      6  PA        93.1250  -15.2910    7.3670 P.3   171  GDP171      0.2231
      7  O1A       94.6250  -15.2490    7.1620 O.2   171  GDP171     -0.5169
      8  O2A       92.5510  -15.3990    8.7540 O.3   171  GDP171     -0.4370
      9  O5'       92.4930  -13.9830    6.6840 O.3   171  GDP171     -0.3111
     10  C5'       92.8800  -13.6200    5.3590 C.3   171  GDP171      0.1813
     11  C4'       92.7660  -12.1130    5.1300 C.3   171  GDP171      0.1799
     12  O4'       91.3950  -11.7110    5.1960 O.3   171  GDP171     -0.3326
     13  C3'       93.5340  -11.2950    6.1600 C.3   171  GDP171      0.2158
     14  O3'       94.2780  -10.2590    5.5110 O.3   171  GDP171     -0.2175
     15  C2'       92.4570  -10.7010    7.0420 C.3   171  GDP171      0.2310
     16  O2'       92.7960   -9.3850    7.4680 O.3   171  GDP171     -0.2158
     17  C1'       91.2290  -10.6740    6.1570 C.3   171  GDP171      0.2293
     18  N9        90.0310  -10.9570    6.9600 N.pl3 171  GDP171     -0.2354
     19  C8        89.8240  -12.0450    7.7070 C.3   171  GDP171      0.2246
     20  N7        88.6100  -11.9530    8.2880 N.2   171  GDP171     -0.2322
     21  C5        88.0730  -10.7920    7.8880 C.2   171  GDP171      0.2182
     22  C6        86.7860  -10.1180    8.1640 C.1   171  GDP171      0.2372
     23  O6        85.9570  -10.6680    8.9240 O.2   171  GDP171     -0.2069
     24  N1        86.5520   -8.9200    7.5760 N.2   171  GDP171     -0.2485
     25  C2        87.4820   -8.3650    6.7520 C.1   171  GDP171      0.2531
     26  N2        87.2450   -7.1640    6.1620 N.pl3 171  GDP171     -0.0226
     27  N3        88.6630   -8.9800    6.4980 N.2   171  GDP171     -0.3074
     28  C4        88.9700  -10.1720    7.0490 C.2   171  GDP171      0.2300
@<TRIPOS>BOND
     1    11    12    1
     2    11    10    1
     3    11    13    1
     4    12    17    1
     5     4     1    2
     6    10     9    1
     7    14    13    1
     8    17    18    1
     9    17    15    1
    10    13    15    1
    11    26    25    1
    12     2     1    1
    13     5     1    1
    14     5     6    1
    15     1     3    1
    16    27    25    2
    17    27    28    2
    18     9     6    1
    19    25    24    2
    20    18    28    1
    21    18    19    1
    22    15    16    1
    23    28    21    1
    24     7     6    2
    25     6     8    1
    26    24    22    2
    27    19    20    1
    28    21    22    1
    29    21    20    2
    30    22    23    2
