@<TRIPOS>MOLECULE
3bry_C8E_A_1.pdb
 21 20 0 0 0
SMALL
GASTEIGER

@<TRIPOS>ATOM
      1  C1        50.9470  -18.3950  -43.6940 C.3   502  C8E502      0.0000
      2  C2        50.0370  -17.2910  -43.9630 C.3   502  C8E502      0.0000
      3  C3        50.1360  -16.1860  -43.0010 C.3   502  C8E502      0.0000
      4  C4        49.4320  -15.0350  -43.5600 C.3   502  C8E502      0.0000
      5  C5        49.0450  -14.1030  -42.4740 C.3   502  C8E502      0.0001
      6  C6        50.0470  -13.0700  -42.2700 C.3   502  C8E502      0.0026
      7  C7        49.2830  -12.1190  -41.4490 C.3   502  C8E502      0.0321
      8  C8        49.7580  -12.1010  -40.0240 C.3   502  C8E502      0.1423
      9  O9        49.4990  -11.0710  -39.0660 O.3   502  C8E502     -0.3498
     10  C10       49.9950   -9.7850  -39.3620 C.3   502  C8E502      0.1893
     11  C11       49.5180   -8.8690  -38.1840 C.3   502  C8E502      0.2376
     12  O12       50.3880   -9.0150  -37.0420 O.2   502  C8E502     -0.4666
     13  C13       49.7280   -9.6900  -35.8620 C.2   502  C8E502      0.2124
     14  C14       50.0010   -9.1710  -34.4210 C.2   502  C8E502      0.2124
     15  O15       49.5810   -9.5290  -33.0930 O.2   502  C8E502     -0.4666
     16  C16       48.3870   -8.8920  -32.7950 C.3   502  C8E502      0.2376
     17  C17       48.6010   -7.4740  -32.2650 C.3   502  C8E502      0.1894
     18  O18       49.8260   -7.0360  -31.6970 O.3   502  C8E502     -0.3470
     19  C19       49.9080   -7.1060  -30.2900 C.3   502  C8E502      0.1778
     20  C20       49.9670   -5.8720  -29.3660 C.3   502  C8E502      0.2140
     21  O21       51.2490   -5.3980  -28.9620 O.3   502  C8E502     -0.2176
@<TRIPOS>BOND
     1     2     1    1
     2     2     3    1
     3     4     3    1
     4     4     5    1
     5     5     6    1
     6     6     7    1
     7     7     8    1
     8     8     9    1
     9    10     9    1
    10    10    11    1
    11    11    12    1
    12    12    13    1
    13    13    14    2
    14    14    15    1
    15    15    16    1
    16    16    17    1
    17    17    18    1
    18    18    19    1
    19    19    20    1
    20    20    21    1
