@<TRIPOS>MOLECULE
3brz_C8E_A_1.pdb
 21 20 0 0 0
SMALL
GASTEIGER

@<TRIPOS>ATOM
      1  C1        29.3570   53.3400   21.6050 C.3   500  C8E500      0.0000
      2  C2        29.2750   51.9830   21.0620 C.3   500  C8E500      0.0000
      3  C3        30.1920   51.6860   19.9500 C.3   500  C8E500      0.0000
      4  C4        29.4050   51.6410   18.7180 C.3   500  C8E500      0.0000
      5  C5        29.8070   52.7680   17.8190 C.3   500  C8E500      0.0001
      6  C6        28.6890   53.6830   17.5810 C.3   500  C8E500      0.0026
      7  C7        29.3430   54.9660   17.8320 C.3   500  C8E500      0.0321
      8  C8        28.3160   56.0220   17.9780 C.3   500  C8E500      0.1423
      9  O9        28.2630   57.0410   18.9670 O.3   500  C8E500     -0.3511
     10  C10       28.1820   56.6680   20.3320 C.3   500  C8E500      0.1741
     11  C11       28.1380   57.9510   21.1060 C.3   500  C8E500      0.1743
     12  O12       27.0600   57.9450   22.0640 O.3   500  C8E500     -0.3471
     13  C13       26.9780   59.1280   22.9210 C.3   500  C8E500      0.1894
     14  C14       25.7730   60.1280   23.0090 C.3   500  C8E500      0.2376
     15  O15       25.4570   61.3190   22.2220 O.2   500  C8E500     -0.4666
     16  C16       26.0380   62.5080   22.8070 C.2   500  C8E500      0.2124
     17  C17       25.1380   63.2450   23.8130 C.2   500  C8E500      0.2124
     18  O18       25.6110   64.3180   24.6590 O.2   500  C8E500     -0.4665
     19  C19       26.1210   63.8350   25.9420 C.3   500  C8E500      0.2411
     20  C20       27.3350   64.4860   26.7120 C.3   500  C8E500      0.2292
     21  O21       28.1330   63.6540   27.5740 O.3   500  C8E500     -0.2162
@<TRIPOS>BOND
     1     6     5    1
     2     6     7    1
     3     5     4    1
     4     7     8    1
     5     8     9    1
     6     4     3    1
     7     9    10    1
     8     3     2    1
     9    10    11    1
    10     2     1    1
    11    11    12    1
    12    12    13    1
    13    15    16    1
    14    15    14    1
    15    16    17    2
    16    13    14    1
    17    17    18    1
    18    18    19    1
    19    19    20    1
    20    20    21    1
