@<TRIPOS>MOLECULE
3bs0_C8E_A_1.pdb
 21 20 0 0 0
SMALL
GASTEIGER

@<TRIPOS>ATOM
      1  C1        11.1350    2.8820   47.7750 C.3   501  C8E501      0.0000
      2  C2        11.7170    2.7640   49.1020 C.3   501  C8E501      0.0000
      3  C3        12.2980    1.4550   49.3860 C.3   501  C8E501      0.0000
      4  C4        12.9940    1.5460   50.6530 C.3   501  C8E501      0.0000
      5  C5        12.6590    0.3480   51.4510 C.3   501  C8E501      0.0001
      6  C6        13.8190   -0.1530   52.1670 C.3   501  C8E501      0.0026
      7  C7        13.2010   -1.3190   52.7660 C.3   501  C8E501      0.0321
      8  C8        14.2290   -2.2400   53.2720 C.3   501  C8E501      0.1423
      9  O9        14.1060   -3.0710   54.4110 O.3   501  C8E501     -0.3511
     10  C10       13.8740   -2.4600   55.6750 C.3   501  C8E501      0.1741
     11  C11       13.7920   -3.5810   56.6760 C.3   501  C8E501      0.1742
     12  O12       13.8160   -3.0860   58.0420 O.3   501  C8E501     -0.3484
     13  C13       12.5000   -2.8620   58.6670 C.3   501  C8E501      0.1742
     14  C14       11.7330   -3.8550   59.6140 C.3   501  C8E501      0.1742
     15  O15       10.3840   -4.4290   59.5340 O.3   501  C8E501     -0.3484
     16  C16        9.4150   -3.6010   60.2070 C.3   501  C8E501      0.1742
     17  C17        9.2100   -3.9410   61.6930 C.3   501  C8E501      0.1742
     18  O18        8.9500   -2.9400   62.6950 O.3   501  C8E501     -0.3483
     19  C19       10.1780   -2.4290   63.2840 C.3   501  C8E501      0.1777
     20  C20       10.3270   -2.0490   64.7990 C.3   501  C8E501      0.2140
     21  O21       10.5300   -3.0920   65.7570 O.3   501  C8E501     -0.2176
@<TRIPOS>BOND
     1     1     2    1
     2     2     3    1
     3     3     4    1
     4     4     5    1
     5     5     6    1
     6     6     7    1
     7     7     8    1
     8     8     9    1
     9     9    10    1
    10    10    11    1
    11    11    12    1
    12    12    13    1
    13    13    14    1
    14    15    14    1
    15    15    16    1
    16    16    17    1
    17    17    18    1
    18    18    19    1
    19    19    20    1
    20    20    21    1
