@<TRIPOS>MOLECULE
3bs4_III_B_1.pdb
 28 28 0 0 0
SMALL
GASTEIGER

@<TRIPOS>ATOM
      1  N         17.7360   32.0680   -0.6070 N.3     1  ASN1       -0.1225
      2  CA        17.5630   31.5140    0.7610 C.3     1  ASN1        0.1785
      3  C         18.8430   31.5730    1.5580 C.2     1  ASN1        0.2597
      4  O         18.8030   31.4260    2.7800 O.2     1  ASN1       -0.2718
      5  CB        17.1100   30.0650    0.7260 C.3     1  ASN1        0.1169
      6  CG        15.7450   29.8920    0.1170 C.2     1  ASN1        0.2627
      7  OD1       15.4170   28.8050   -0.3550 O.2     1  ASN1       -0.2716
      8  ND2       14.9440   30.9360    0.1340 N.am    1  ASN1       -0.0877
      9  N         19.9750   31.7550    0.8630 N.am    2  ILE2       -0.1966
     10  CA        21.2680   31.8470    1.5140 C.3     2  ILE2        0.1727
     11  C         22.0750   33.0340    0.9800 C.2     2  ILE2        0.2617
     12  O         22.0920   33.2950   -0.2320 O.2     2  ILE2       -0.2715
     13  CB        22.0260   30.4930    1.3710 C.3     2  ILE2        0.0290
     14  CG1       21.4330   29.4610    2.3620 C.3     2  ILE2        0.0022
     15  CG2       23.5470   30.6420    1.4930 C.3     2  ILE2        0.0023
     16  CD1       22.2510   28.1870    2.5920 C.3     2  ILE2        0.0001
     17  N         22.6830   33.7720    1.9090 N.am    3  PHE3       -0.1938
     18  CA        23.7380   34.7390    1.5790 C.3     3  PHE3        0.2021
     19  C         25.1210   34.1170    1.7990 C.2     3  PHE3        0.3845
     20  O         26.1060   34.3980    1.0940 O.co2   3  PHE3       -0.2437
     21  CB        23.5490   36.0230    2.4020 C.3     3  PHE3        0.0596
     22  CG        22.6950   37.0370    1.7130 C.ar    3  PHE3       -0.0199
     23  CD1       21.3150   36.9920    1.8270 C.ar    3  PHE3       -0.0042
     24  CD2       23.2720   38.0100    0.9020 C.ar    3  PHE3       -0.0042
     25  CE1       20.5130   37.9150    1.1620 C.ar    3  PHE3       -0.0003
     26  CE2       22.4870   38.9460    0.2360 C.ar    3  PHE3       -0.0003
     27  CZ        21.1010   38.8950    0.3660 C.ar    3  PHE3       -0.0000
     28  OXT       25.3070   33.2800    2.6830 O.co2   3  PHE3       -0.2437
@<TRIPOS>BOND
     1     1     2    1
     2     7     6    2
     3    12    11    2
     4     6     8   am
     5     6     5    1
     6    26    27   ar
     7    26    24   ar
     8    27    25   ar
     9     5     2    1
    10     2     3    1
    11     9    10    1
    12     9     3   am
    13    24    22   ar
    14    11    10    1
    15    11    17   am
    16    20    19   ar
    17    25    23   ar
    18    13    15    1
    19    13    10    1
    20    13    14    1
    21     3     4    2
    22    18    19    1
    23    18    17    1
    24    18    21    1
    25    22    23   ar
    26    22    21    1
    27    19    28   ar
    28    14    16    1
