@<TRIPOS>MOLECULE
3bs6_PG4_A_1.pdb
 13 12 0 0 0
SMALL
GASTEIGER

@<TRIPOS>ATOM
      1  O1        47.3710   28.0830   33.2680 O.3   336  PG4336     -0.2176
      2  C1        48.2980   27.5100   34.2000 C.3   336  PG4336      0.2140
      3  C2        49.4200   26.7890   33.4550 C.3   336  PG4336      0.1777
      4  O2        49.1120   25.4030   33.2790 O.3   336  PG4336     -0.3483
      5  C3        50.2950   24.5970   33.2510 C.3   336  PG4336      0.1742
      6  C4        50.0610   23.3140   32.4530 C.3   336  PG4336      0.1742
      7  O3        51.2750   22.5530   32.3440 O.3   336  PG4336     -0.3484
      8  C5        52.0880   22.9770   31.2380 C.3   336  PG4336      0.1742
      9  C6        52.8580   21.8090   30.6210 C.3   336  PG4336      0.1742
     10  O4        54.2530   22.1210   30.5430 O.3   336  PG4336     -0.3483
     11  C7        55.0590   21.0310   30.9880 C.3   336  PG4336      0.1777
     12  C8        56.3260   20.9540   30.1500 C.3   336  PG4336      0.2140
     13  O5        56.8310   19.6180   30.1770 O.3   336  PG4336     -0.2176
@<TRIPOS>BOND
     1    12    13    1
     2    12    11    1
     3    10     9    1
     4    10    11    1
     5     9     8    1
     6     8     7    1
     7     7     6    1
     8     6     5    1
     9     5     4    1
    10     1     2    1
    11     4     3    1
    12     3     2    1
