@<TRIPOS>MOLECULE
3bs8_PMP_A_1.pdb
 16 16 0 0 0
SMALL
GASTEIGER

@<TRIPOS>ATOM
      1  N1        36.9720    2.6630   22.6320 N.ar  431  PMP431     -0.2452
      2  C2        37.3070    1.9400   21.5050 C.ar  431  PMP431      0.0978
      3  C2A       38.7030    2.0040   20.9610 C.3   431  PMP431      0.0555
      4  C3        36.3730    1.0900   20.9240 C.ar  431  PMP431      0.2063
      5  O3        36.7260    0.3090   19.8550 O.3   431  PMP431     -0.2856
      6  C4        35.0820    1.0350   21.4320 C.ar  431  PMP431      0.0369
      7  C4A       34.0510    0.1330   20.7940 C.3   431  PMP431      0.1386
      8  N4A       34.4700   -1.2490   20.9240 N.3   431  PMP431     -0.1261
      9  C5        34.7430    1.8150   22.5310 C.ar  431  PMP431      0.0275
     10  C6        35.6800    2.6860   23.0740 C.ar  431  PMP431      0.0965
     11  C5A       33.3610    1.7170   23.1340 C.3   431  PMP431      0.1816
     12  O4P       32.9170    0.3800   23.0750 O.3   431  PMP431     -0.2653
     13  P         31.3900    0.0090   23.4240 P.3   431  PMP431      0.5329
     14  O1P       30.5750    0.1060   22.1560 O.2   431  PMP431     -0.2224
     15  O2P       30.8530    0.9790   24.4490 O.3   431  PMP431     -0.1145
     16  O3P       31.3190   -1.3970   23.9680 O.3   431  PMP431     -0.1145
@<TRIPOS>BOND
     1     5     4    1
     2     7     8    1
     3     7     6    1
     4     4     6   ar
     5     4     2   ar
     6     3     2    1
     7     6     9   ar
     8     2     1   ar
     9    14    13    2
    10     9    10   ar
    11     9    11    1
    12     1    10   ar
    13    12    11    1
    14    12    13    1
    15    13    16    1
    16    13    15    1
