@<TRIPOS>MOLECULE
3bsa_1PD_A_1.pdb
 35 38 0 0 0
SMALL
GASTEIGER

@<TRIPOS>ATOM
      1  O31       95.1590    5.2830   56.8030 O.2   579  1PD579     -0.1456
      2  S35       96.1010    6.3090   56.3960 S.O2  579  1PD579      0.1113
      3  O30       97.5240    6.1510   56.5940 O.2   579  1PD579     -0.1456
      4  C8        95.4740    7.7390   57.2180 C.2   579  1PD579      0.1593
      5  C3        95.7440    7.9410   58.5780 C.2   579  1PD579      0.0594
      6  C7        95.2250    9.0830   59.2150 C.2   579  1PD579      0.1369
      7  O33       95.4770    9.3170   60.5250 O.2   579  1PD579     -0.4658
      8  C18       96.6330    8.7000   61.0920 C.3   579  1PD579      0.2928
      9  C15       96.4450    8.7250   62.5830 C.2   579  1PD579      0.3052
     10  O29       96.5400    7.7360   63.2990 O.2   579  1PD579     -0.2676
     11  N27       96.1370    9.9850   63.0360 N.am  579  1PD579     -0.0845
     12  C2        94.4280    9.9920   58.5280 C.2   579  1PD579      0.0183
     13  N25       95.8830    6.7270   54.7630 N.2   579  1PD579     -0.0613
     14  C13       95.0370    7.8010   54.3590 C.1   579  1PD579      0.1138
     15  N23       94.3270    8.5120   55.1650 N.2   579  1PD579     -0.3515
     16  C6        94.6650    8.6330   56.5130 C.2   579  1PD579      0.1440
     17  C1        94.1550    9.7600   57.1790 C.3   579  1PD579      0.0905
     18  C11       95.0020    8.0800   52.9070 C.ar  579  1PD579      0.1729
     19  C12       95.7180    7.3860   51.9960 C.ar  579  1PD579      0.2303
     20  O32       96.3630    6.2090   52.3070 O.3   579  1PD579     -0.2840
     21  C14       94.1290    9.2010   52.4340 C.ar  579  1PD579      0.2900
     22  O28       93.2670    9.7030   53.1680 O.2   579  1PD579     -0.2646
     23  N26       94.3120    9.6300   51.1260 N.ar  579  1PD579     -0.2159
     24  C20       93.6340   10.8150   50.6260 C.3   579  1PD579      0.1307
     25  C19       92.4000   10.4270   49.8040 C.3   579  1PD579      0.0265
     26  C21       91.4300    9.4100   50.4550 C.3   579  1PD579      0.0020
     27  C17       90.7590    9.9390   51.7300 C.3   579  1PD579      0.0001
     28  C16       90.3450    8.9910   49.4670 C.3   579  1PD579      0.0001
     29  N24       95.1830    9.0530   50.2570 N.ar  579  1PD579     -0.1630
     30  C10       95.8030    7.9700   50.6250 C.ar  579  1PD579      0.1481
     31  C9        96.7760    7.4140   49.6830 C.ar  579  1PD579      0.0725
     32  S34       97.3580    8.3960   48.3960 S.2   579  1PD579     -0.0628
     33  C5        98.3850    7.1080   47.9360 C.ar  579  1PD579      0.1346
     34  N22       98.3330    6.0200   48.6660 N.ar  579  1PD579     -0.2347
     35  C4        97.4210    6.2070   49.6790 C.ar  579  1PD579      0.1076
@<TRIPOS>BOND
     1    33    32   ar
     2    33    34   ar
     3    32    31   ar
     4    34    35   ar
     5    28    26    1
     6    35    31   ar
     7    31    30    1
     8    25    26    1
     9    25    24    1
    10    29    30   ar
    11    29    23   ar
    12    26    27    1
    13    30    19   ar
    14    24    23    1
    15    23    21   ar
    16    19    20    1
    17    19    18   ar
    18    21    18   ar
    19    21    22    2
    20    18    14    1
    21    14    13    2
    22    14    15    2
    23    13     2    1
    24    15    16    2
    25     2     3    2
    26     2     1    2
    27     2     4    1
    28    16    17    1
    29    16     4    1
    30    17    12    1
    31     4     5    2
    32    12     6    2
    33     5     6    1
    34     6     7    1
    35     7     8    1
    36     8     9    1
    37     9    11   am
    38     9    10    2
