@<TRIPOS>MOLECULE
3bsc_2PD_A_1.pdb
 33 36 0 0 0
SMALL
GASTEIGER

@<TRIPOS>ATOM
      1  O30       95.4380    5.6880   59.2740 O.2   579  2PD579     -0.1456
      2  S33       96.1770    6.8860   58.9730 S.O2  579  2PD579      0.1113
      3  O29       97.6190    6.8960   59.0780 O.2   579  2PD579     -0.1456
      4  C12       95.5770    8.1840   59.9980 C.2   579  2PD579      0.1593
      5  C8        95.7690    8.0720   61.3900 C.2   579  2PD579      0.0593
      6  C11       95.3260    9.0850   62.2440 C.2   579  2PD579      0.1363
      7  O32       95.4950    8.9880   63.6040 O.2   579  2PD579     -0.4717
      8  C20       96.7880    9.2010   64.1730 C.3   579  2PD579      0.2525
      9  C7        94.6850   10.1950   61.6850 C.2   579  2PD579      0.0183
     10  N26       95.7390    7.4020   57.4290 N.2   579  2PD579     -0.0613
     11  C16       95.0410    8.6010   57.1500 C.1   579  2PD579      0.1138
     12  N24       94.7070    9.4800   58.0480 N.2   579  2PD579     -0.3515
     13  C10       94.9380    9.2900   59.4240 C.2   579  2PD579      0.1440
     14  C6        94.4940   10.2970   60.2970 C.3   579  2PD579      0.0905
     15  C14       94.8680    8.8500   55.7000 C.ar  579  2PD579      0.1729
     16  C15       95.7230    8.2840   54.8090 C.ar  579  2PD579      0.2298
     17  O31       96.6970    7.3850   55.1870 O.3   579  2PD579     -0.2840
     18  C17       93.8700    9.8430   55.1790 C.ar  579  2PD579      0.2900
     19  O28       93.0860   10.4120   55.9440 O.2   579  2PD579     -0.2646
     20  N27       93.8510   10.0620   53.8060 N.ar  579  2PD579     -0.2159
     21  C22       92.9100   10.9690   53.1840 C.3   579  2PD579      0.1307
     22  C21       91.9370   10.2190   52.2880 C.3   579  2PD579      0.0265
     23  C23       90.8340    9.5250   53.0970 C.3   579  2PD579      0.0020
     24  C19       90.3680   10.4040   54.2570 C.3   579  2PD579      0.0001
     25  C18       89.6560    9.1740   52.1870 C.3   579  2PD579      0.0001
     26  N25       94.6900    9.4590   52.9140 N.ar  579  2PD579     -0.1635
     27  C13       95.5620    8.6180   53.3660 C.ar  579  2PD579      0.1406
     28  C9        96.5220    7.9760   52.4230 C.ar  579  2PD579      0.0225
     29  C4        96.7600    6.6040   52.4010 C.ar  579  2PD579      0.0017
     30  C2        97.7030    6.0800   51.5140 C.ar  579  2PD579      0.0001
     31  C5        97.2550    8.8090   51.5800 C.ar  579  2PD579      0.0017
     32  C3        98.1960    8.2850   50.6930 C.ar  579  2PD579      0.0001
     33  C1        98.4260    6.9120   50.6630 C.ar  579  2PD579      0.0000
@<TRIPOS>BOND
     1    33    32   ar
     2    33    30   ar
     3    32    31   ar
     4    30    29   ar
     5    31    28   ar
     6    25    23    1
     7    22    23    1
     8    22    21    1
     9    29    28   ar
    10    28    27    1
    11    26    27   ar
    12    26    20   ar
    13    23    24    1
    14    21    20    1
    15    27    16   ar
    16    20    18   ar
    17    16    17    1
    18    16    15   ar
    19    18    15   ar
    20    18    19    2
    21    15    11    1
    22    11    10    2
    23    11    12    2
    24    10     2    1
    25    12    13    2
    26     2     3    2
    27     2     1    2
    28     2     4    1
    29    13     4    1
    30    13    14    1
    31     4     5    2
    32    14     9    1
    33     5     6    1
    34     9     6    2
    35     6     7    1
    36     7     8    1
