@<TRIPOS>MOLECULE
3bsd_BCL_A_8.pdb
 42 48 0 0 0
SMALL
GASTEIGER

@<TRIPOS>ATOM
      1 MG         63.9440  118.4680  110.8030 Mg    400  BCL400      0.0000
      2  CHA       62.4580  120.8360  108.8550 C.2   400  BCL400      0.0000
      3  CHB       64.1500  116.4050  108.2280 C.2   400  BCL400      0.0000
      4  CHC       65.1620  116.1930  112.6170 C.2   400  BCL400      0.0000
      5  CHD       63.4430  120.4650  113.3660 C.2   400  BCL400      0.0000
      6  NA        63.3070  118.5460  108.8460 N.2   400  BCL400      0.0000
      7  C1A       62.8150  119.6600  108.1700 C.1   400  BCL400      0.0000
      8  C2A       63.1110  119.5680  106.6840 C.2   400  BCL400      0.0000
      9  C3A       63.8590  118.2550  106.5230 C.2   400  BCL400      0.0000
     10  C4A       63.9070  117.7310  107.9260 C.1   400  BCL400      0.0000
     11  CMA       63.1590  117.3260  105.5370 C.3   400  BCL400      0.0000
     12  CAA       64.0270  120.6700  106.1620 C.3   400  BCL400      0.0000
     13  NB        65.1670  116.8560  110.3850 N.2   400  BCL400      0.0000
     14  C1B       65.0260  116.0700  109.2570 C.2   400  BCL400      0.0000
     15  C2B       65.5590  114.8190  109.5520 C.2   400  BCL400      0.0000
     16  C3B       66.0200  114.8300  110.8410 C.2   400  BCL400      0.0000
     17  C4B       65.7960  116.0990  111.3640 C.2   400  BCL400      0.0000
     18  CMB       65.5120  113.7800  108.4650 C.3   400  BCL400      0.0000
     19  CAB       66.6530  113.6620  111.5420 C.2   400  BCL400      0.0000
     20  OBB       66.4730  113.5300  112.7710 O.2   400  BCL400      0.0000
     21  CBB       67.4580  112.6860  110.7250 C.3   400  BCL400      0.0000
     22  NC        64.6650  118.5100  112.7220 N.ar  400  BCL400      0.0000
     23  C1C       65.1350  117.3950  113.2980 C.ar  400  BCL400      0.0000
     24  C2C       65.1490  117.4680  114.8040 C.ar  400  BCL400      0.0000
     25  C3C       64.1690  118.6110  115.0560 C.ar  400  BCL400      0.0000
     26  C4C       63.9140  119.1120  113.6470 C.ar  400  BCL400      0.0000
     27  CMC       64.7220  116.1840  115.5080 C.3   400  BCL400      0.0000
     28  CAC       64.6890  119.6270  116.0940 C.3   400  BCL400      0.0000
     29  CBC       65.6700  120.6940  115.6000 C.3   400  BCL400      0.0000
     30  ND        62.6990  120.0470  111.2180 N.2   400  BCL400      0.0000
     31  C1D       62.4170  120.6160  112.4600 C.2   400  BCL400      0.0000
     32  C2D       61.9560  121.9190  112.1080 C.2   400  BCL400      0.0000
     33  C3D       61.9490  122.0260  110.7200 C.2   400  BCL400      0.0000
     34  C4D       62.4010  120.8700  110.2200 C.2   400  BCL400      0.0000
     35  CMD       61.4670  123.0940  112.9080 C.3   400  BCL400      0.0000
     36  CAD       61.6580  122.8920  109.6840 C.3   400  BCL400      0.0000
     37  OBD       61.1620  124.2040  109.7880 O.3   400  BCL400      0.0000
     38  CBD       61.9480  122.1830  108.3790 C.3   400  BCL400      0.0000
     39  CGD       60.6520  122.0580  107.6500 C.2   400  BCL400      0.0000
     40  O1D       60.6110  122.2590  106.4120 O.2   400  BCL400      0.0000
     41  O2D       59.6030  121.7840  108.2940 O.3   400  BCL400      0.0000
     42  CED       58.5680  120.9600  107.7870 C.3   400  BCL400      0.0000
@<TRIPOS>BOND
     1    11     9    1
     2    12     8    1
     3    40    39    2
     4     9     8    2
     5     9    10    1
     6     8     7    1
     7    39    41    1
     8    39    38    1
     9    42    41    1
    10    10     3    2
    11    10     6    2
    12     7     6    2
    13     7     2    2
    14     3    14    1
    15    38     2    1
    16    38    36    1
    17    18    15    1
    18     2    34    1
    19    14    15    1
    20    14    13    2
    21    15    16    2
    22    36    37    1
    23    36    33    1
    24    34    33    1
    25    34    30    2
    26    13    17    1
    27    33    32    2
    28    21    19    1
    29     1    30    1
    30     1    22    1
    31    16    17    1
    32    16    19    1
    33    30    31    1
    34    17     4    2
    35    19    20    2
    36    32    31    1
    37    32    35    1
    38    31     5    2
    39     4    23    1
    40    22    23   ar
    41    22    26   ar
    42    23    24   ar
    43     5    26    1
    44    26    25   ar
    45    24    25   ar
    46    24    27    1
    47    25    28    1
    48    29    28    1
