@<TRIPOS>MOLECULE
3bsf_ADE_A_1.pdb
 10 11 0 0 0
SMALL
GASTEIGER

@<TRIPOS>ATOM
      1  N9       -14.1220   15.1600   -6.9660 N.2   701  ADE701     -0.1914
      2  C8       -13.4160   14.3240   -7.7730 C.3   701  ADE701      0.2618
      3  N7       -13.5080   14.6220   -9.1010 N.2   701  ADE701     -0.2267
      4  C5       -14.3310   15.7260   -9.1320 C.2   701  ADE701      0.2303
      5  C6       -14.8570   16.5710  -10.2030 C.2   701  ADE701      0.4393
      6  N6       -14.5560   16.3370  -11.4770 N.pl3 701  ADE701      0.2185
      7  N1       -15.7060   17.6590   -9.8440 N.2   701  ADE701     -0.0265
      8  C2       -16.0080   17.8860   -8.5160 C.3   701  ADE701      0.4008
      9  N3       -15.5520   17.1310   -7.4320 N.2   701  ADE701     -0.1640
     10  C4       -14.7250   16.0770   -7.8190 C.1   701  ADE701      0.0579
@<TRIPOS>BOND
     1     6     5    1
     2     5     7    2
     3     5     4    1
     4     7     8    1
     5     4     3    2
     6     4    10    1
     7     3     2    1
     8     8     9    1
     9    10     9    2
    10    10     1    2
    11     2     1    1
