@<TRIPOS>MOLECULE
3bsh_BGC_A_1.pdb
 12 12 0 0 0
SMALL
GASTEIGER

@<TRIPOS>ATOM
      1  C2       -35.8560  -25.1310   25.4560 C.3   4000  BGC4000     0.2434
      2  C3       -35.1870  -25.0490   24.0880 C.3   4000  BGC4000     0.2199
      3  C4       -35.4270  -23.6740   23.4310 C.3   4000  BGC4000     0.2144
      4  C5       -34.9930  -22.5530   24.4080 C.3   4000  BGC4000     0.1836
      5  C6       -35.4400  -21.1940   23.9700 C.3   4000  BGC4000     0.2142
      6  C1       -35.2770  -24.0070   26.3400 C.3   4000  BGC4000     0.3024
      7  O1       -35.8680  -24.0280   27.5970 O.3   4000  BGC4000    -0.1869
      8  O2       -35.5880  -26.4140   26.0250 O.3   4000  BGC4000    -0.2148
      9  O3       -35.7230  -26.0650   23.2610 O.3   4000  BGC4000    -0.2174
     10  O4       -34.6250  -23.5540   22.2000 O.3   4000  BGC4000    -0.2176
     11  O5       -35.5670  -22.7360   25.7310 O.3   4000  BGC4000    -0.3236
     12  O6       -36.7940  -21.2430   23.5480 O.3   4000  BGC4000    -0.2176
@<TRIPOS>BOND
     1    10     3    1
     2     9     2    1
     3     3     2    1
     4     3     4    1
     5    12     5    1
     6     5     4    1
     7     2     1    1
     8     4    11    1
     9     1     8    1
    10     1     6    1
    11    11     6    1
    12     6     7    1
