@<TRIPOS>MOLECULE
3bss_UD4_A_1.pdb
 38 40 0 0 0
SMALL
GASTEIGER

@<TRIPOS>ATOM
      1  N3         3.9910  -39.2790  -11.4830 N.2   201  UD4201     -0.2452
      2  C2         4.3570  -38.1290  -12.0700 C.1   201  UD4201      0.2845
      3  N1         3.5920  -37.6310  -13.1450 N.am  201  UD4201     -0.1766
      4  C4         2.9140  -39.9640  -11.9160 C.1   201  UD4201      0.2182
      5  C5         2.1390  -39.5000  -12.9760 C.2   201  UD4201      0.1242
      6  C6         2.5080  -38.3030  -13.5900 C.2   201  UD4201      0.0929
      7  O7'       -3.4000  -31.4960  -20.6710 O.2   201  UD4201     -0.2733
      8  C7'       -2.2540  -31.2920  -20.2830 C.2   201  UD4201      0.2420
      9  C8'       -1.0420  -31.6450  -21.1200 C.3   201  UD4201      0.0964
     10  N2'       -2.0060  -30.7300  -19.0960 N.am  201  UD4201     -0.1993
     11  C2'       -3.0470  -30.3670  -18.1430 C.3   201  UD4201      0.1834
     12  C3'       -3.1810  -28.8390  -18.0260 C.3   201  UD4201      0.1966
     13  O3'       -3.6340  -28.2860  -19.2740 O.3   201  UD4201     -0.2195
     14  C4'       -4.1270  -28.4230  -16.8770 C.3   201  UD4201      0.1510
     15  N4A       -4.1140  -26.9630  -16.7260 N.3   201  UD4201     -0.1276
     16  C5'       -3.7260  -29.1250  -15.5710 C.3   201  UD4201      0.1380
     17  C6'       -4.7190  -28.9100  -14.4230 C.3   201  UD4201      0.0338
     18  O5'       -3.6170  -30.5460  -15.7730 O.3   201  UD4201     -0.3299
     19  C1'       -2.7130  -30.9840  -16.7880 C.3   201  UD4201      0.2631
     20  O1'       -1.4030  -30.5690  -16.4140 O.3   201  UD4201     -0.2864
     21  PB        -0.3740  -31.6170  -15.7700 P.3   201  UD4201      0.2208
     22  O2B        0.9220  -30.8910  -15.5840 O.2   201  UD4201     -0.5170
     23  O1B       -1.0620  -32.2440  -14.5770 O.3   201  UD4201     -0.4371
     24  O3A       -0.4020  -32.7520  -16.9190 O.3   201  UD4201     -0.2703
     25  PA         0.7770  -33.4310  -17.7980 P.3   201  UD4201      0.2189
     26  O2A        0.2030  -34.7540  -18.2020 O.3   201  UD4201     -0.4371
     27  O1A        1.2650  -32.3970  -18.7890 O.2   201  UD4201     -0.5170
     28  O5B        1.9330  -33.6840  -16.7090 O.3   201  UD4201     -0.3112
     29  C5B        1.7380  -34.4970  -15.5400 C.3   201  UD4201      0.1813
     30  C4B        3.0940  -34.5710  -14.8650 C.3   201  UD4201      0.1799
     31  O4B        2.9660  -35.4210  -13.7240 O.3   201  UD4201     -0.3320
     32  C2B        4.1260  -35.2050  -15.8190 C.3   201  UD4201      0.2158
     33  O3B        5.3470  -34.4520  -15.8100 O.3   201  UD4201     -0.2175
     34  C3B        4.3180  -36.6000  -15.2530 C.3   201  UD4201      0.2319
     35  O2'        5.6170  -37.1510  -15.5020 O.3   201  UD4201     -0.2157
     36  C1B        4.0180  -36.3870  -13.7640 C.3   201  UD4201      0.2401
     37  O2         5.3610  -37.4840  -11.6740 O.2   201  UD4201     -0.1918
     38  O4         2.5960  -41.0380  -11.3470 O.2   201  UD4201     -0.2085
@<TRIPOS>BOND
     1     9     8    1
     2     7     8    2
     3     8    10   am
     4    13    12    1
     5    10    11    1
     6    27    25    2
     7    26    25    1
     8    11    12    1
     9    11    19    1
    10    12    14    1
    11    25    24    1
    12    25    28    1
    13    24    21    1
    14    14    15    1
    15    14    16    1
    16    19    20    1
    17    19    18    1
    18    28    29    1
    19    20    21    1
    20    32    33    1
    21    32    34    1
    22    32    30    1
    23    18    16    1
    24    21    22    2
    25    21    23    1
    26    16    17    1
    27    29    30    1
    28    35    34    1
    29    34    36    1
    30    30    31    1
    31    36    31    1
    32    36     3    1
    33     6     3    1
    34     6     5    2
    35     3     2   am
    36     5     4    1
    37     2    37    2
    38     2     1    2
    39     4     1    2
    40     4    38    2
