@<TRIPOS>MOLECULE
3bsw_CIT_A_1.pdb
 13 12 0 0 0
SMALL
GASTEIGER

@<TRIPOS>ATOM
      1  C1        10.0310   38.3880   18.0460 C.2   201  CIT201      0.3680
      2  O1         9.4550   37.3070   17.7850 O.co2 201  CIT201     -0.2455
      3  O2        11.1670   38.3510   18.5770 O.co2 201  CIT201     -0.2455
      4  C2         9.3560   39.7090   17.7310 C.3   201  CIT201      0.1560
      5  C3        10.1780   40.9500   18.0880 C.3   201  CIT201      0.2402
      6  O7        11.6030   40.7090   17.9960 O.3   201  CIT201     -0.2129
      7  C4         9.8160   41.5350   19.4500 C.3   201  CIT201      0.1560
      8  C5        10.3600   40.7190   20.6060 C.2   201  CIT201      0.3680
      9  O3        11.3890   40.0140   20.4690 O.co2 201  CIT201     -0.2455
     10  O4         9.7570   40.7520   21.6930 O.co2 201  CIT201     -0.2455
     11  C6         9.8630   42.0250   17.0610 C.2   201  CIT201      0.3927
     12  O5        10.7760   42.6400   16.4820 O.co2 201  CIT201     -0.2429
     13  O6         8.6790   42.2890   16.7910 O.co2 201  CIT201     -0.2429
@<TRIPOS>BOND
     1    12    11   ar
     2    13    11   ar
     3    11     5    1
     4     4     1    1
     5     4     5    1
     6     2     1   ar
     7     6     5    1
     8     1     3   ar
     9     5     7    1
    10     7     8    1
    11     9     8   ar
    12     8    10   ar
