@<TRIPOS>MOLECULE
3bsz_RTL_E_1.pdb
 21 21 0 0 0
SMALL
GASTEIGER

@<TRIPOS>ATOM
      1  C1        21.2490   96.9670   58.0700 C.3   177  RTL177      0.0183
      2  C2        20.9220   98.4430   57.7870 C.3   177  RTL177      0.0044
      3  C3        20.3930   98.5510   56.3400 C.3   177  RTL177      0.0047
      4  C4        21.5700   98.2810   55.3760 C.3   177  RTL177      0.0217
      5  C5        22.3360   97.0460   55.7610 C.2   177  RTL177     -0.0479
      6  C6        22.2050   96.4230   57.0040 C.2   177  RTL177     -0.0307
      7  C7        22.9480   95.1970   57.3730 C.2   177  RTL177     -0.0052
      8  C8        24.3020   95.1300   57.4150 C.2   177  RTL177     -0.0046
      9  C9        24.9730   93.9400   57.7970 C.2   177  RTL177     -0.0219
     10  C10       26.3450   93.9540   57.7940 C.2   177  RTL177     -0.0043
     11  C11       27.1700   92.8570   58.1580 C.2   177  RTL177     -0.0007
     12  C12       28.5030   93.0550   58.0570 C.2   177  RTL177     -0.0045
     13  C13       29.5370   92.0870   58.3880 C.2   177  RTL177     -0.0236
     14  C14       30.7850   92.4960   58.1830 C.2   177  RTL177      0.0048
     15  C15       31.9930   91.6450   58.4360 C.3   177  RTL177      0.2080
     16  O1        32.6910   91.5180   57.1870 O.3   177  RTL177     -0.2152
     17  C16       19.9520   96.1420   58.0650 C.3   177  RTL177      0.0043
     18  C17       21.8170   96.8770   59.4830 C.3   177  RTL177      0.0043
     19  C18       23.2530   96.5410   54.6760 C.3   177  RTL177      0.0260
     20  C19       24.1910   92.6900   58.1950 C.3   177  RTL177      0.0310
     21  C20       29.2210   90.7030   58.9200 C.3   177  RTL177      0.0308
@<TRIPOS>BOND
     1    19     5    1
     2     4     5    1
     3     4     3    1
     4     5     6    2
     5     3     2    1
     6     6     7    1
     7     6     1    1
     8    16    15    1
     9     7     8    2
    10     8     9    1
    11     2     1    1
    12    10     9    2
    13    10    11    1
    14     9    20    1
    15    12    11    2
    16    12    13    1
    17    17     1    1
    18     1    18    1
    19    14    13    2
    20    14    15    1
    21    13    21    1
