@<TRIPOS>MOLECULE
3bt9_DEQ_A_1.pdb
 34 37 0 0 0
SMALL
GASTEIGER

@<TRIPOS>ATOM
      1  C1       -71.4790  -49.7460    7.1730 C.2   201  DEQ201      0.0142
      2  C2       -71.5780  -51.0210    6.5230 C.2   201  DEQ201     -0.0030
      3  C3       -72.7470  -51.8230    6.7060 C.2   201  DEQ201     -0.0213
      4  C4       -73.8150  -51.3510    7.5340 C.3   201  DEQ201      0.0549
      5  C5       -72.5330  -49.2010    8.0320 C.2   201  DEQ201      0.0489
      6  C6       -73.7420  -50.0570    8.2050 C.2   201  DEQ201      0.0126
      7  C7       -74.8340  -49.6050    9.0350 C.2   201  DEQ201      0.0875
      8  C8       -74.7740  -48.3450    9.6930 C.2   201  DEQ201      0.0282
      9  C9       -73.6950  -47.4420    9.6160 C.2   201  DEQ201      0.0304
     10  N1       -72.5060  -47.8060    8.7890 N.pl3 201  DEQ201     -0.2905
     11  C10      -62.4470  -45.3570    0.7260 C.2   201  DEQ201      0.0126
     12  C11      -62.6870  -45.0190    2.1640 C.2   201  DEQ201      0.0489
     13  N2       -61.4380  -45.0510    3.1990 N.pl3 201  DEQ201     -0.2905
     14  C12      -60.1070  -45.4480    2.4650 C.2   201  DEQ201      0.0304
     15  C13      -60.0370  -45.7420    1.0990 C.2   201  DEQ201      0.0282
     16  C14      -61.1290  -45.7180    0.2390 C.2   201  DEQ201      0.0875
     17  C15      -63.5530  -45.3340   -0.2020 C.3   201  DEQ201      0.0549
     18  C16      -64.8830  -44.9860    0.1910 C.2   201  DEQ201     -0.0213
     19  C17      -65.1470  -44.6510    1.5480 C.2   201  DEQ201     -0.0030
     20  C18      -64.0800  -44.6680    2.4960 C.2   201  DEQ201      0.0142
     21  C19      -61.2780  -45.0800    4.8050 C.3   201  DEQ201      0.0952
     22  C20      -62.7070  -45.1660    5.2910 C.3   201  DEQ201      0.0218
     23  C21      -62.8990  -45.1990    6.8060 C.3   201  DEQ201      0.0018
     24  C22      -64.3800  -45.3410    6.8990 C.3   201  DEQ201      0.0001
     25  C23      -65.0680  -45.3840    8.2440 C.3   201  DEQ201      0.0000
     26  C24      -66.5330  -45.5660    7.8070 C.3   201  DEQ201      0.0000
     27  C25      -67.5730  -45.6160    8.8930 C.3   201  DEQ201      0.0001
     28  C26      -68.9720  -45.8580    8.2810 C.3   201  DEQ201      0.0018
     29  C27      -70.0250  -46.9520    7.9960 C.3   201  DEQ201      0.0218
     30  C28      -71.3440  -46.7460    8.7890 C.3   201  DEQ201      0.0952
     31  C30      -73.8900  -46.1440   10.4350 C.3   201  DEQ201      0.0474
     32  C29      -58.7530  -45.5520    3.1750 C.3   201  DEQ201      0.0474
     33  N4       -76.0410  -50.3550    9.2680 N.pl3 201  DEQ201     -0.1283
     34  N3       -60.6980  -46.0770   -1.1020 N.pl3 201  DEQ201     -0.1283
@<TRIPOS>BOND
     1    34    16    1
     2    17    18    1
     3    17    11    1
     4    18    19    2
     5    16    11    2
     6    16    15    1
     7    11    12    1
     8    15    14    2
     9    19    20    1
    10    12    20    2
    11    12    13    1
    12    14    32    1
    13    14    13    1
    14    13    21    1
    15    21    22    1
    16    22    23    1
    17     2     3    2
    18     2     1    1
    19     3     4    1
    20    23    24    1
    21    24    25    1
    22     1     5    2
    23     4     6    1
    24    26    25    1
    25    26    27    1
    26    29    28    1
    27    29    30    1
    28     5     6    1
    29     5    10    1
    30     6     7    2
    31    28    27    1
    32    30    10    1
    33    10     9    1
    34     7    33    1
    35     7     8    1
    36     9     8    2
    37     9    31    1
