@<TRIPOS>MOLECULE
3btc_MGR_A_1.pdb
 25 27 0 0 0
SMALL
GASTEIGER

@<TRIPOS>ATOM
      1  C1       -70.1990  -46.1460    5.5050 C.3   200  MGR200      0.0667
      2  C2       -70.7100  -47.5280    5.8090 C.ar  200  MGR200     -0.0143
      3  C3       -70.8520  -48.0000    7.1700 C.ar  200  MGR200     -0.0036
      4  C4       -71.3170  -49.2820    7.4660 C.ar  200  MGR200     -0.0003
      5  C5       -71.6830  -50.1810    6.4230 C.ar  200  MGR200     -0.0000
      6  C6       -71.5610  -49.7500    5.0630 C.ar  200  MGR200     -0.0003
      7  C7       -71.0960  -48.4620    4.7640 C.ar  200  MGR200     -0.0036
      8  C8       -68.9750  -45.9460    4.6850 C.ar  200  MGR200     -0.0142
      9  C9       -68.0300  -47.0390    4.4270 C.ar  200  MGR200     -0.0024
     10  C10      -66.8980  -46.9060    3.6510 C.ar  200  MGR200      0.0142
     11  C11      -66.5390  -45.6410    3.0850 C.ar  200  MGR200      0.0479
     12  C12      -67.4600  -44.5270    3.3150 C.ar  200  MGR200      0.0142
     13  C13      -68.6050  -44.6850    4.1050 C.ar  200  MGR200     -0.0024
     14  C14      -70.9620  -45.0260    6.0770 C.ar  200  MGR200     -0.0142
     15  C15      -70.3560  -44.0770    6.9810 C.ar  200  MGR200     -0.0024
     16  C16      -71.0750  -43.0340    7.5550 C.ar  200  MGR200      0.0142
     17  C17      -72.4320  -42.8530    7.2810 C.ar  200  MGR200      0.0479
     18  C18      -73.0660  -43.7760    6.3760 C.ar  200  MGR200      0.0142
     19  C19      -72.3520  -44.8210    5.7990 C.ar  200  MGR200     -0.0024
     20  C22      -65.0540  -44.1790    1.6750 C.3   200  MGR200      0.1122
     21  C23      -64.4380  -46.5950    1.9930 C.3   200  MGR200      0.1122
     22  C24      -73.3680  -41.7070    9.2830 C.3   200  MGR200      0.1122
     23  C25      -73.7540  -40.7890    7.0680 C.3   200  MGR200      0.1122
     24  N2       -65.4100  -45.5080    2.2910 N.pl3 200  MGR200     -0.3041
     25  N3       -73.1370  -41.8420    7.8530 N.pl3 200  MGR200     -0.3041
@<TRIPOS>BOND
     1    20    24    1
     2    21    24    1
     3    24    11    1
     4    11    12   ar
     5    11    10   ar
     6    12    13   ar
     7    10     9   ar
     8    13     8   ar
     9     9     8   ar
    10     8     1    1
    11     7     6   ar
    12     7     2   ar
    13     6     5   ar
    14     1     2    1
    15     1    14    1
    16    19    14   ar
    17    19    18   ar
    18     2     3   ar
    19    14    15   ar
    20    18    17   ar
    21     5     4   ar
    22    15    16   ar
    23    23    25    1
    24     3     4   ar
    25    17    16   ar
    26    17    25    1
    27    25    22    1
