@<TRIPOS>MOLECULE
3bti_BER_A_1.pdb
 25 29 0 0 0
SMALL
GASTEIGER

@<TRIPOS>ATOM
      1  C1       -64.7360  -44.6210    2.6970 C.3   802  BER802      0.1177
      2  C2       -66.1490  -44.2640    3.1580 C.ar  802  BER802     -0.0009
      3  N1       -64.4300  -44.5400    1.2970 N.pl3 802  BER802     -0.3004
      4  C3       -63.7000  -44.9940    3.6140 C.2   802  BER802     -0.0021
      5  C4       -66.9760  -43.4720    2.2510 C.ar  802  BER802     -0.0194
      6  C5       -66.6830  -44.6590    4.4230 C.ar  802  BER802      0.0375
      7  C6       -63.1480  -44.8380    0.8190 C.2   802  BER802      0.0649
      8  C7       -65.4900  -44.1460    0.3310 C.3   802  BER802      0.0960
      9  C8       -62.3930  -45.2990    3.1160 C.ar  802  BER802      0.0020
     10  C9       -68.2910  -43.0930    2.6270 C.ar  802  BER802      0.0357
     11  C10      -66.4140  -43.0450    0.8940 C.3   802  BER802      0.0476
     12  C11      -68.0210  -44.2650    4.7860 C.ar  802  BER802      0.1762
     13  C12      -62.1060  -45.1840    1.7060 C.ar  802  BER802      0.0513
     14  C13      -61.3490  -45.6450    4.0130 C.ar  802  BER802      0.0031
     15  C14      -68.8160  -43.4860    3.8910 C.ar  802  BER802      0.1761
     16  O1       -68.7630  -44.4980    5.9060 O.3   802  BER802     -0.4346
     17  C15      -60.7940  -45.4970    1.1780 C.ar  802  BER802      0.1735
     18  C16      -60.0440  -45.9290    3.5220 C.ar  802  BER802      0.0400
     19  O2       -70.0190  -43.2560    4.4790 O.3   802  BER802     -0.4346
     20  C17      -69.8430  -43.5510    5.8690 C.3   802  BER802      0.4294
     21  C18      -59.7360  -45.8300    2.1090 C.ar  802  BER802      0.1724
     22  O3       -60.5880  -45.3700   -0.2110 O.3   802  BER802     -0.4683
     23  O4       -58.4580  -46.1020    1.6350 O.3   802  BER802     -0.4684
     24  C19      -59.3220  -45.6080   -0.8800 C.3   802  BER802      0.2526
     25  C20      -57.3670  -46.4600    2.5110 C.3   802  BER802      0.2526
@<TRIPOS>BOND
     1    24    22    1
     2    22    17    1
     3     8    11    1
     4     8     3    1
     5     7     3    1
     6     7    13    2
     7    11     5    1
     8    17    13   ar
     9    17    21   ar
    10     3     1    1
    11    23    21    1
    12    23    25    1
    13    13     9   ar
    14    21    18   ar
    15     5    10   ar
    16     5     2   ar
    17    10    15   ar
    18     1     2    1
    19     1     4    1
    20     9     4    2
    21     9    14   ar
    22     2     6   ar
    23    18    14   ar
    24    15    19    1
    25    15    12   ar
    26     6    12   ar
    27    19    20    1
    28    12    16    1
    29    20    16    1
