@<TRIPOS>MOLECULE
3btj_DEQ_A_1.pdb
 34 37 0 0 0
SMALL
GASTEIGER

@<TRIPOS>ATOM
      1  C1       -71.4650  -50.6010    7.7690 C.2   201  DEQ201      0.0142
      2  C2       -71.7190  -51.7530    6.9500 C.2   201  DEQ201     -0.0030
      3  C3       -73.0510  -52.2530    6.8240 C.2   201  DEQ201     -0.0213
      4  C4       -74.1240  -51.5980    7.5140 C.3   201  DEQ201      0.0549
      5  C5       -72.5170  -49.8890    8.4970 C.2   201  DEQ201      0.0489
      6  C6       -73.8920  -50.4240    8.3460 C.2   201  DEQ201      0.0126
      7  C7       -74.9950  -49.7870    9.0270 C.2   201  DEQ201      0.0875
      8  C8       -74.7900  -48.6390    9.8420 C.2   201  DEQ201      0.0282
      9  C9       -73.5350  -48.0330   10.0700 C.2   201  DEQ201      0.0304
     10  N1       -72.3250  -48.6190    9.4180 N.pl3 201  DEQ201     -0.2905
     11  C10      -62.5020  -45.4990    1.1680 C.2   201  DEQ201      0.0126
     12  C11      -62.8040  -45.4990    2.6280 C.2   201  DEQ201      0.0489
     13  N2       -61.5710  -45.4230    3.6760 N.pl3 201  DEQ201     -0.2905
     14  C12      -60.1910  -45.3530    2.9320 C.2   201  DEQ201      0.0304
     15  C13      -60.0630  -45.3620    1.5450 C.2   201  DEQ201      0.0282
     16  C14      -61.1360  -45.4300    0.6700 C.2   201  DEQ201      0.0875
     17  C15      -63.5910  -45.5690    0.2180 C.3   201  DEQ201      0.0549
     18  C16      -64.9640  -45.6360    0.6130 C.2   201  DEQ201     -0.0213
     19  C17      -65.2880  -45.6350    1.9920 C.2   201  DEQ201     -0.0030
     20  C18      -64.2340  -45.5670    2.9600 C.2   201  DEQ201      0.0142
     21  C19      -61.4080  -45.5430    5.2820 C.3   201  DEQ201      0.0952
     22  C20      -62.8160  -45.8250    5.7710 C.3   201  DEQ201      0.0218
     23  C21      -62.9270  -45.9870    7.2830 C.3   201  DEQ201      0.0018
     24  C22      -64.3700  -46.2850    7.5100 C.3   201  DEQ201      0.0001
     25  C23      -64.8170  -46.5110    8.9360 C.3   201  DEQ201      0.0000
     26  C24      -66.3170  -46.8060    8.8010 C.3   201  DEQ201      0.0000
     27  C25      -67.0350  -47.0750   10.0990 C.3   201  DEQ201      0.0001
     28  C26      -68.5070  -47.3620    9.8310 C.3   201  DEQ201      0.0018
     29  C27      -69.5850  -48.2880    9.2460 C.3   201  DEQ201      0.0218
     30  C28      -70.9840  -47.8770    9.7650 C.3   201  DEQ201      0.0952
     31  C30      -73.5650  -46.7910   11.0080 C.3   201  DEQ201      0.0474
     32  C29      -58.8440  -45.2750    3.6590 C.3   201  DEQ201      0.0474
     33  N4       -76.3600  -50.2320    8.9480 N.pl3 201  DEQ201     -0.1283
     34  N3       -60.6430  -45.4170   -0.6930 N.pl3 201  DEQ201     -0.1283
@<TRIPOS>BOND
     1    34    16    1
     2    17    18    1
     3    17    11    1
     4    18    19    2
     5    16    11    2
     6    16    15    1
     7    11    12    1
     8    15    14    2
     9    19    20    1
    10    12    20    2
    11    12    13    1
    12    14    32    1
    13    14    13    1
    14    13    21    1
    15    21    22    1
    16    22    23    1
    17     3     2    2
    18     3     4    1
    19     2     1    1
    20    23    24    1
    21    24    25    1
    22     4     6    1
    23     1     5    2
    24     6     5    1
    25     6     7    2
    26     5    10    1
    27    26    25    1
    28    26    27    1
    29    33     7    1
    30     7     8    1
    31    29    30    1
    32    29    28    1
    33    10    30    1
    34    10     9    1
    35    28    27    1
    36     8     9    2
    37     9    31    1
