@<TRIPOS>MOLECULE
3btl_MGR_A_1.pdb
 25 27 0 0 0
SMALL
GASTEIGER

@<TRIPOS>ATOM
      1  C1       -70.3360  -46.3280    5.9500 C.3   200  MGR200      0.0667
      2  C2       -70.8320  -47.7320    6.2580 C.ar  200  MGR200     -0.0143
      3  C3       -70.9740  -48.2340    7.6350 C.ar  200  MGR200     -0.0036
      4  C4       -71.4300  -49.5870    7.9170 C.ar  200  MGR200     -0.0003
      5  C5       -71.7780  -50.5120    6.8150 C.ar  200  MGR200     -0.0000
      6  C6       -71.6530  -50.0260    5.4390 C.ar  200  MGR200     -0.0003
      7  C7       -71.1990  -48.6720    5.1800 C.ar  200  MGR200     -0.0036
      8  C8       -69.0870  -46.0890    5.0500 C.ar  200  MGR200     -0.0142
      9  C9       -68.0730  -47.2160    4.8340 C.ar  200  MGR200     -0.0024
     10  C10      -66.8930  -47.1060    4.0080 C.ar  200  MGR200      0.0142
     11  C11      -66.5950  -45.8090    3.3100 C.ar  200  MGR200      0.0479
     12  C12      -67.5770  -44.6260    3.5040 C.ar  200  MGR200      0.0142
     13  C13      -68.7750  -44.7810    4.3580 C.ar  200  MGR200     -0.0024
     14  C14      -71.0700  -45.2170    6.5850 C.ar  200  MGR200     -0.0142
     15  C15      -70.3530  -44.2860    7.4750 C.ar  200  MGR200     -0.0024
     16  C16      -71.0390  -43.2050    8.1100 C.ar  200  MGR200      0.0142
     17  C17      -72.4410  -43.0150    7.8630 C.ar  200  MGR200      0.0479
     18  C18      -73.1760  -43.9220    7.0000 C.ar  200  MGR200      0.0142
     19  C19      -72.4970  -44.9870    6.3750 C.ar  200  MGR200     -0.0024
     20  C22      -65.1430  -44.3950    1.7150 C.3   200  MGR200      0.1122
     21  C23      -64.4760  -46.8640    2.1970 C.3   200  MGR200      0.1122
     22  C24      -73.2940  -41.8310    9.9060 C.3   200  MGR200      0.1122
     23  C25      -73.7290  -40.9430    7.5320 C.3   200  MGR200      0.1122
     24  N2       -65.4560  -45.7130    2.4590 N.pl3 200  MGR200     -0.3041
     25  N3       -73.0910  -42.0000    8.4210 N.pl3 200  MGR200     -0.3041
@<TRIPOS>BOND
     1    20    24    1
     2    21    24    1
     3    24    11    1
     4    11    12   ar
     5    11    10   ar
     6    12    13   ar
     7    10     9   ar
     8    13     8   ar
     9     9     8   ar
    10     8     1    1
    11     7     6   ar
    12     7     2   ar
    13     6     5   ar
    14     1     2    1
    15     1    14    1
    16     2     3   ar
    17    19    14   ar
    18    19    18   ar
    19    14    15   ar
    20     5     4   ar
    21    18    17   ar
    22    15    16   ar
    23    23    25    1
    24     3     4   ar
    25    17    16   ar
    26    17    25    1
    27    25    22    1
