@<TRIPOS>MOLECULE
3bto_SSB_A_1.pdb
 10 10 0 0 0
SMALL
GASTEIGER

@<TRIPOS>ATOM
      1  S1        19.2740    0.1060    9.7580 S.O   378  SSB378      0.0417
      2  C2        19.3010    1.7320   10.6270 C.3   378  SSB378      0.0918
      3  C3        19.9870    1.4140   12.0230 C.3   378  SSB378      0.0144
      4  C4        19.2690    0.0900   12.4410 C.3   378  SSB378      0.0153
      5  C5        19.5190   -0.9020   11.2510 C.3   378  SSB378      0.0918
      6  O6        20.5780    0.0930    9.1260 O.2   378  SSB378     -0.2559
      7  C7        19.5360    2.5150   13.0330 C.3   378  SSB378      0.0010
      8  C8        20.3500    2.4220   14.3540 C.3   378  SSB378      0.0000
      9  C9        19.9750    3.6420   15.2610 C.3   378  SSB378      0.0000
     10  C10       20.8520    3.6200   16.5630 C.3   378  SSB378      0.0000
@<TRIPOS>BOND
     1     6     1    2
     2     1     2    1
     3     1     5    1
     4     2     3    1
     5     5     4    1
     6     3     4    1
     7     3     7    1
     8     7     8    1
     9     8     9    1
    10     9    10    1
