@<TRIPOS>MOLECULE
3bts_III_E_1.pdb
 45 44 0 0 0
SMALL
GASTEIGER

@<TRIPOS>ATOM
      1  N         43.6140   11.2620   44.7050 N.3   501  MET501     -0.1231
      2  CA        43.5830   12.2510   43.6350 C.3   501  MET501      0.1694
      3  C         43.0010   13.5680   44.1370 C.2   501  MET501      0.2592
      4  O         41.8040   13.6610   44.4110 O.2   501  MET501     -0.2718
      5  CB        42.7860   11.7260   42.4430 C.3   501  MET501      0.0304
      6  N         43.8590   14.5810   44.2590 N.am  502  PHE502     -0.1966
      7  CA        43.4440   15.9040   44.7290 C.3   502  PHE502      0.1728
      8  C         42.8010   16.7480   43.6160 C.2   502  PHE502      0.2616
      9  O         43.0430   17.9530   43.5090 O.2   502  PHE502     -0.2715
     10  CB        44.6260   16.6480   45.3820 C.3   502  PHE502      0.0334
     11  N         41.9780   16.1070   42.7920 N.am  503  ASN503     -0.1963
     12  CA        41.2360   16.8100   41.7530 C.3   503  ASN503      0.1728
     13  C         39.7320   16.6370   41.9730 C.2   503  ASN503      0.2616
     14  O         39.3100   15.8670   42.8390 O.2   503  ASN503     -0.2715
     15  CB        41.6490   16.3140   40.3610 C.3   503  ASN503      0.0334
     16  N         38.9270   17.3610   41.1990 N.am  504  THR504     -0.1963
     17  CA        37.4730   17.2660   41.3100 C.3   504  THR504      0.1728
     18  C         36.9280   16.1000   40.4900 C.2   504  THR504      0.2616
     19  O         36.4270   16.2940   39.3830 O.2   504  THR504     -0.2715
     20  CB        36.8140   18.5680   40.8840 C.3   504  THR504      0.0334
     21  N         37.0340   14.8920   41.0390 N.am  505  THR505     -0.1963
     22  CA        36.4870   13.6980   40.4060 C.3   505  THR505      0.1728
     23  C         35.0300   13.9150   40.0030 C.2   505  THR505      0.2616
     24  O         34.3510   14.7850   40.5450 O.2   505  THR505     -0.2715
     25  CB        36.6100   12.5030   41.3410 C.3   505  THR505      0.0334
     26  N         34.5540   13.1200   39.0510 N.am  506  THR506     -0.1963
     27  CA        33.1880   13.2520   38.5570 C.3   506  THR506      0.1728
     28  C         32.1590   12.8980   39.6280 C.2   506  THR506      0.2616
     29  O         30.9720   13.1920   39.4830 O.2   506  THR506     -0.2715
     30  CB        32.9870   12.3930   37.3200 C.3   506  THR506      0.0334
     31  N         32.6220   12.2670   40.7040 N.am  507  MET507     -0.1963
     32  CA        31.7440   11.8600   41.7970 C.3   507  MET507      0.1728
     33  C         31.3710   13.0390   42.6830 C.2   507  MET507      0.2616
     34  O         30.4620   12.9380   43.5070 O.2   507  MET507     -0.2715
     35  CB        32.3960   10.7660   42.6260 C.3   507  MET507      0.0334
     36  N         32.0810   14.1520   42.5090 N.am  508  ASP508     -0.1963
     37  CA        31.8350   15.3660   43.2840 C.3   508  ASP508      0.1728
     38  C         30.7910   16.2570   42.6130 C.2   508  ASP508      0.2616
     39  O         30.9690   17.4700   42.5150 O.2   508  ASP508     -0.2715
     40  CB        33.1400   16.1390   43.5050 C.3   508  ASP508      0.0334
     41  N         29.7050   15.6440   42.1510 N.am  509  ASP509     -0.1977
     42  CA        28.6060   16.3770   41.5320 C.3   509  ASP509      0.1597
     43  C         27.2590   15.8180   41.9820 C.2   509  ASP509      0.2287
     44  O         27.1430   15.2360   43.0640 O.2   509  ASP509     -0.2864
     45  CB        28.7220   16.3410   40.0100 C.3   509  ASP509      0.0319
@<TRIPOS>BOND
     1    30    27    1
     2    27    26    1
     3    27    28    1
     4    26    23   am
     5    19    18    2
     6    29    28    2
     7    28    31   am
     8    23    22    1
     9    23    24    2
    10    45    42    1
    11    15    12    1
    12    22    21    1
    13    22    25    1
    14    18    21   am
    15    18    17    1
    16    31    32    1
    17    20    17    1
    18    16    17    1
    19    16    13   am
    20    42    43    1
    21    42    41    1
    22    12    13    1
    23    12    11    1
    24    32    35    1
    25    32    33    1
    26    13    14    2
    27    43    44    2
    28    41    38   am
    29     5     2    1
    30    36    33   am
    31    36    37    1
    32    39    38    2
    33    38    37    1
    34    33    34    2
    35    11     8   am
    36    37    40    1
    37     9     8    2
    38     8     7    1
    39     2     3    1
    40     2     1    1
    41     3     6   am
    42     3     4    2
    43     6     7    1
    44     7    10    1
