@<TRIPOS>MOLECULE
3bts_NAD_A_1.pdb
 44 48 0 0 0
SMALL
GASTEIGER

@<TRIPOS>ATOM
      1  PA        27.2560   16.9610   33.6980 P.3   436  NAD436      0.2189
      2  O1A       26.2820   17.9690   33.2260 O.2   436  NAD436     -0.5170
      3  O2A       28.5380   17.5650   34.1250 O.3   436  NAD436     -0.4371
      4  O5B       27.5270   15.8790   32.5500 O.3   436  NAD436     -0.3112
      5  C5B       26.4190   15.3260   31.8960 C.3   436  NAD436      0.1813
      6  C4B       26.5810   15.4500   30.3900 C.3   436  NAD436      0.1821
      7  O4B       25.3040   15.7820   29.8780 O.3   436  NAD436     -0.3135
      8  C3B       27.5220   16.5770   29.9620 C.3   436  NAD436      0.2184
      9  O3B       28.7670   16.0990   29.5120 O.3   436  NAD436     -0.2174
     10  C2B       26.8260   17.2430   28.8080 C.3   436  NAD436      0.2570
     11  O2B       27.3200   16.6580   27.6350 O.3   436  NAD436     -0.2130
     12  C1B       25.3820   16.8210   28.9160 C.3   436  NAD436      0.3186
     13  N9A       24.5790   17.9860   29.3310 N.pl3 436  NAD436     -0.1439
     14  C8A       24.9690   18.9750   30.1950 C.3   436  NAD436      0.3377
     15  N7A       23.9550   19.8620   30.3170 N.2   436  NAD436     -0.2095
     16  C5A       22.9240   19.4560   29.5430 C.2   436  NAD436      0.2526
     17  C6A       21.6600   19.9880   29.3000 C.2   436  NAD436      0.4393
     18  N6A       21.3290   21.1930   29.7520 N.pl3 436  NAD436      0.2180
     19  N1A       20.8050   19.3350   28.4390 N.2   436  NAD436      0.0021
     20  C2A       21.2090   18.1620   27.8320 C.3   436  NAD436      0.5254
     21  N3A       22.4600   17.6370   28.0770 N.2   436  NAD436     -0.0055
     22  C4A       23.3050   18.2760   28.9190 C.2   436  NAD436      0.3518
     23  O3        26.5370   16.1460   34.8880 O.3   436  NAD436     -0.2703
     24  PN        27.3310   15.1820   35.9040 P.3   436  NAD436      0.2189
     25  O1N       28.2450   15.9800   36.7470 O.3   436  NAD436     -0.4371
     26  O2N       27.8300   14.0260   35.1420 O.2   436  NAD436     -0.5170
     27  O5D       26.1310   14.6770   36.8310 O.3   436  NAD436     -0.3112
     28  C5D       25.0090   14.0720   36.2480 C.3   436  NAD436      0.1813
     29  C4D       23.9800   13.7880   37.3330 C.3   436  NAD436      0.1799
     30  O4D       24.4410   12.7380   38.1580 O.3   436  NAD436     -0.3327
     31  C3D       23.7720   14.9910   38.2370 C.3   436  NAD436      0.2158
     32  O3D       22.4120   15.0340   38.5760 O.3   436  NAD436     -0.2175
     33  C2D       24.5440   14.6630   39.4880 C.3   436  NAD436      0.2309
     34  O2D       23.9490   15.2520   40.6180 O.3   436  NAD436     -0.2158
     35  C1D       24.3810   13.1570   39.5070 C.3   436  NAD436      0.2263
     36  N1N       25.3920   12.5060   40.3450 N.pl3 436  NAD436     -0.2787
     37  C2N       24.9660   11.5430   41.1910 C.3   436  NAD436      0.1244
     38  C3N       25.8490   10.8900   42.0260 C.2   436  NAD436      0.0544
     39  C7N       25.3090    9.8760   42.9920 C.2   436  NAD436      0.2818
     40  O7N       26.1000    9.4680   44.0830 O.2   436  NAD436     -0.2670
     41  N7N       24.0870    9.3860   42.7820 N.am  436  NAD436     -0.0839
     42  C4N       27.1960   11.2270   41.9850 C.2   436  NAD436      0.0033
     43  C5N       27.6190   12.2160   41.1070 C.2   436  NAD436      0.0157
     44  C6N       26.7040   12.8580   40.2870 C.2   436  NAD436      0.0633
@<TRIPOS>BOND
     1    11    10    1
     2    20    21    1
     3    20    19    1
     4    21    22    2
     5    19    17    2
     6    10    12    1
     7    10     8    1
     8    12    13    1
     9    12     7    1
    10    22    13    1
    11    22    16    1
    12    17    16    1
    13    17    18    1
    14    13    14    1
    15     9     8    1
    16    16    15    2
    17     7     6    1
    18     8     6    1
    19    14    15    1
    20     6     5    1
    21     5     4    1
    22     4     1    1
    23     2     1    2
    24     1     3    1
    25     1    23    1
    26    23    24    1
    27    26    24    2
    28    24    25    1
    29    24    27    1
    30    28    27    1
    31    28    29    1
    32    29    30    1
    33    29    31    1
    34    30    35    1
    35    31    32    1
    36    31    33    1
    37    33    35    1
    38    33    34    1
    39    35    36    1
    40    44    36    1
    41    44    43    2
    42    36    37    1
    43    43    42    1
    44    37    38    1
    45    42    38    2
    46    38    39    1
    47    41    39   am
    48    39    40    2
