@<TRIPOS>MOLECULE
3bu0_AKG_A_1.pdb
 10 9 0 0 0
SMALL
GASTEIGER

@<TRIPOS>ATOM
      1  C1       107.3010   -0.0880 -193.4230 C.2   259  AKG259      0.4219
      2  O1       107.9950    0.8280 -192.9360 O.co2 259  AKG259     -0.2373
      3  O2       106.7320    0.0370 -194.5480 O.co2 259  AKG259     -0.2373
      4  C2       107.1680   -1.3140 -192.6380 C.2   259  AKG259      0.2526
      5  O5       106.4850   -2.2190 -193.0870 O.2   259  AKG259     -0.2843
      6  C3       107.8720   -1.4160 -191.2930 C.3   259  AKG259      0.0881
      7  C4       108.2000   -2.8570 -190.9210 C.3   259  AKG259      0.1224
      8  C5       108.6310   -3.0520 -189.4730 C.2   259  AKG259      0.3653
      9  O3       108.6430   -2.1000 -188.6580 O.co2 259  AKG259     -0.2456
     10  O4       108.9740   -4.2080 -189.1300 O.co2 259  AKG259     -0.2456
@<TRIPOS>BOND
     1     3     1   ar
     2     1     2   ar
     3     1     4    1
     4     5     4    2
     5     4     6    1
     6     6     7    1
     7     7     8    1
     8     8    10   ar
     9     8     9   ar
