@<TRIPOS>MOLECULE
3bu4_2GP_A_1.pdb
 24 26 0 0 0
SMALL
GASTEIGER

@<TRIPOS>ATOM
      1  P         19.2590   20.6320   11.3340 P.3   105  2GP105      0.5327
      2  O1P       18.0160   21.3310   10.9570 O.2   105  2GP105     -0.2224
      3  O2P       19.9660   21.2950   12.4570 O.3   105  2GP105     -0.1145
      4  O3P       18.9780   19.2180   11.5700 O.3   105  2GP105     -0.1145
      5  O5'       24.6140   19.0540    9.6680 O.3   105  2GP105     -0.2176
      6  C5'       24.6840   20.2030    8.8590 C.3   105  2GP105      0.2142
      7  C4'       23.3100   20.7140    8.3470 C.3   105  2GP105      0.1827
      8  O4'       22.5790   19.7340    7.5880 O.3   105  2GP105     -0.3326
      9  C3'       22.3620   21.0960    9.4660 C.3   105  2GP105      0.2132
     10  O3'       21.8280   22.3280    8.9840 O.3   105  2GP105     -0.2176
     11  C2'       21.2770   20.0110    9.6190 C.3   105  2GP105      0.2054
     12  O2'       19.9940   20.6130    9.9400 O.3   105  2GP105     -0.2657
     13  C1'       21.2480   19.5780    8.1770 C.3   105  2GP105      0.2266
     14  N9        20.9290   18.1510    7.8810 N.pl3 105  2GP105     -0.2354
     15  C8        20.2450   17.7170    6.7960 C.3   105  2GP105      0.2246
     16  N7        20.2550   16.4360    6.6270 N.2   105  2GP105     -0.2322
     17  C5        20.9980   15.9620    7.6750 C.2   105  2GP105      0.2182
     18  C6        21.3730   14.6370    8.0010 C.1   105  2GP105      0.2372
     19  O6        21.1240   13.6280    7.3890 O.2   105  2GP105     -0.2069
     20  N1        22.1340   14.5550    9.1260 N.2   105  2GP105     -0.2485
     21  C2        22.5020   15.6710    9.8630 C.1   105  2GP105      0.2531
     22  N2        23.2970   15.4500   10.8990 N.pl3 105  2GP105     -0.0226
     23  N3        22.1550   16.9270    9.5670 N.2   105  2GP105     -0.3074
     24  C4        21.4070   17.0070    8.4610 C.2   105  2GP105      0.2300
@<TRIPOS>BOND
     1    16    15    1
     2    16    17    2
     3    15    14    1
     4    19    18    2
     5     8    13    1
     6     8     7    1
     7    17    18    1
     8    17    24    1
     9    14    13    1
    10    14    24    1
    11    18    20    2
    12    13    11    1
    13     7     6    1
    14     7     9    1
    15    24    23    2
    16     6     5    1
    17    10     9    1
    18    20    21    2
    19     9    11    1
    20    23    21    2
    21    11    12    1
    22    21    22    1
    23    12     1    1
    24     2     1    2
    25     1     4    1
    26     1     3    1
