@<TRIPOS>MOLECULE
3bu5_ATP_A_1.pdb
 31 33 0 0 0
SMALL
GASTEIGER

@<TRIPOS>ATOM
      1  PG         3.9320   10.1420   25.3880 P.3   300  ATP300      0.5373
      2  O1G        4.6850   10.5610   24.1510 O.2   300  ATP300     -0.2221
      3  O2G        3.4860   11.2960   26.2650 O.3   300  ATP300     -0.1143
      4  O3G        4.5750    9.0110   26.1510 O.3   300  ATP300     -0.1143
      5  PB         1.1820    9.2850   25.5770 P.3   300  ATP300      0.2277
      6  O1B        1.3440    8.1150   26.5110 O.3   300  ATP300     -0.4368
      7  O2B        0.6380   10.5860   26.1160 O.2   300  ATP300     -0.5168
      8  O3B        2.5650    9.5450   24.7830 O.3   300  ATP300     -0.2258
      9  PA         0.2070    7.4290   23.5580 P.3   300  ATP300      0.2189
     10  O1A        0.6770    7.5870   22.1260 O.2   300  ATP300     -0.5170
     11  O2A        0.8290    6.3040   24.3610 O.3   300  ATP300     -0.4371
     12  O3A        0.2700    8.8810   24.2950 O.3   300  ATP300     -0.2700
     13  O5'       -1.3990    7.2450   23.5520 O.3   300  ATP300     -0.3112
     14  C5'       -2.1370    7.2080   24.7810 C.3   300  ATP300      0.1813
     15  C4'       -3.2550    6.1680   24.7050 C.3   300  ATP300      0.1821
     16  O4'       -4.2600    6.5700   23.7490 O.3   300  ATP300     -0.3135
     17  C3'       -2.7450    4.8060   24.2420 C.3   300  ATP300      0.2184
     18  O3'       -2.2540    3.9640   25.3130 O.3   300  ATP300     -0.2174
     19  C2'       -3.9350    4.2530   23.4610 C.3   300  ATP300      0.2570
     20  O2'       -4.8850    3.5760   24.3010 O.3   300  ATP300     -0.2130
     21  C1'       -4.5770    5.4970   22.8510 C.3   300  ATP300      0.3186
     22  N9        -3.9910    5.7250   21.4880 N.pl3 300  ATP300     -0.1439
     23  C8        -2.8340    6.3750   21.2090 C.3   300  ATP300      0.3377
     24  N7        -2.5560    6.3980   19.8790 N.2   300  ATP300     -0.2095
     25  C5        -3.5530    5.7370   19.2600 C.2   300  ATP300      0.2526
     26  C6        -3.8740    5.3950   17.8470 C.2   300  ATP300      0.4393
     27  N6        -3.0570    5.7820   16.8290 N.pl3 300  ATP300      0.2180
     28  N1        -5.0140    4.6950   17.6280 N.2   300  ATP300      0.0021
     29  C2        -5.8260    4.3260   18.6400 C.3   300  ATP300      0.5254
     30  N3        -5.5990    4.5860   19.9430 N.2   300  ATP300     -0.0055
     31  C4        -4.4940    5.2900   20.3160 C.2   300  ATP300      0.3518
@<TRIPOS>BOND
     1    27    26    1
     2    28    26    2
     3    28    29    1
     4    26    25    1
     5    29    30    1
     6    25    24    2
     7    25    31    1
     8    24    23    1
     9    30    31    2
    10    31    22    1
    11    23    22    1
    12    22    21    1
    13    10     9    2
    14    21    19    1
    15    21    16    1
    16    19    17    1
    17    19    20    1
    18    13     9    1
    19    13    14    1
    20     9    12    1
    21     9    11    1
    22    16    15    1
    23     2     1    2
    24    17    15    1
    25    17    18    1
    26    12     5    1
    27    15    14    1
    28     8     1    1
    29     8     5    1
    30     1     4    1
    31     1     3    1
    32     5     7    2
    33     5     6    1
