@<TRIPOS>MOLECULE
3buc_AKG_A_1.pdb
 10 9 0 0 0
SMALL
GASTEIGER

@<TRIPOS>ATOM
      1  C1       -16.1410   25.9020    4.3420 C.2   259  AKG259      0.4219
      2  O1       -15.7040   25.3250    5.3650 O.co2 259  AKG259     -0.2373
      3  O2       -16.0170   27.1280    4.1630 O.co2 259  AKG259     -0.2373
      4  C2       -16.8220   25.1100    3.3290 C.2   259  AKG259      0.2526
      5  O5       -16.9390   23.9060    3.5190 O.2   259  AKG259     -0.2843
      6  C3       -17.3510   25.8100    2.0890 C.3   259  AKG259      0.0881
      7  C4       -18.3540   24.9450    1.3300 C.3   259  AKG259      0.1224
      8  C5       -18.8530   25.5990    0.0560 C.2   259  AKG259      0.3653
      9  O3       -20.0260   25.3760   -0.2970 O.co2 259  AKG259     -0.2456
     10  O4       -18.1010   26.3260   -0.6240 O.co2 259  AKG259     -0.2456
@<TRIPOS>BOND
     1    10     8   ar
     2     9     8   ar
     3     8     7    1
     4     7     6    1
     5     6     4    1
     6     4     5    2
     7     4     1    1
     8     3     1   ar
     9     1     2   ar
