@<TRIPOS>MOLECULE
3buf_AEG_A_1.pdb
 11 11 0 0 0
SMALL
GASTEIGER

@<TRIPOS>ATOM
      1  C4       -18.4800   40.2670   93.5670 C.3   394  AEG394      0.0453
      2  C5       -22.1480   39.3720   94.0320 C.ar  394  AEG394      0.0417
      3  C6       -22.0020   41.6410   93.1150 C.ar  394  AEG394      0.0417
      4  C7       -17.9010   39.2740   92.5510 C.3   394  AEG394      0.0962
      5  C8       -22.7490   40.5500   93.5790 C.ar  394  AEG394      0.1957
      6  O11      -24.1120   40.6300   93.5950 O.3   394  AEG394     -0.2866
      7  C3       -20.6090   41.5360   93.1120 C.ar  394  AEG394     -0.0009
      8  C2       -20.7570   39.2880   94.0210 C.ar  394  AEG394     -0.0009
      9  C1       -19.9870   40.3610   93.5600 C.ar  394  AEG394     -0.0205
     10  N10      -16.4320   39.0320   92.8300 N.3   394  AEG394     -0.1326
     11  C9       -18.0940   39.7920   91.1230 C.3   394  AEG394      0.0209
@<TRIPOS>BOND
     1    11     4    1
     2     4    10    1
     3     4     1    1
     4     7     3   ar
     5     7     9   ar
     6     3     5   ar
     7     9     1    1
     8     9     8   ar
     9     5     6    1
    10     5     2   ar
    11     8     2   ar
