@<TRIPOS>MOLECULE
3bug_AEH_A_1.pdb
 12 12 0 0 0
SMALL
GASTEIGER

@<TRIPOS>ATOM
      1  C4       -21.8880   42.5680   89.8670 C.3   394  AEH394      0.0296
      2  C5       -18.9760   40.4590   91.1360 C.ar  394  AEH394     -0.0208
      3  C6       -20.9740   39.8150   92.3530 C.ar  394  AEH394      0.0414
      4  C8       -21.9620   42.2620   88.3660 C.3   394  AEH394      0.0051
      5  C10      -17.5030   40.2880   90.8800 C.3   394  AEH394      0.0468
      6  N12      -15.4220   39.9580   92.2110 N.3   394  AEH394     -0.1310
      7  O7       -23.0310   40.8860   91.8710 O.3   394  AEH394     -0.2869
      8  C3       -21.6890   40.7550   91.6160 C.ar  394  AEH394      0.1917
      9  C9       -19.6090   39.6690   92.1070 C.ar  394  AEH394     -0.0010
     10  C11      -16.6670   40.7980   92.0590 C.3   394  AEH394      0.1140
     11  C2       -19.7080   41.4010   90.4010 C.ar  394  AEH394     -0.0053
     12  C1       -21.0780   41.5560   90.6360 C.ar  394  AEH394      0.0164
@<TRIPOS>BOND
     1     4     1    1
     2     1    12    1
     3    11    12   ar
     4    11     2   ar
     5    12     8   ar
     6     5     2    1
     7     5    10    1
     8     2     9   ar
     9     8     7    1
    10     8     3   ar
    11    10     6    1
    12     9     3   ar
