@<TRIPOS>MOLECULE
3buh_AED_A_1.pdb
 16 17 0 0 0
SMALL
GASTEIGER

@<TRIPOS>ATOM
      1  C4       -22.2320   40.0130   93.2330 C.ar  394  AED394      0.1917
      2  C5       -21.8980   43.1020   91.8040 C.3   394  AED394      0.0045
      3  C6       -21.9500   41.4290   89.8230 C.3   394  AED394      0.0045
      4  C7       -19.5630   39.3770   92.7550 C.ar  394  AED394     -0.0208
      5  C8       -21.6010   39.0620   94.0430 C.ar  394  AED394      0.0414
      6  C10      -22.4100   44.1760   90.8400 C.3   394  AED394      0.0003
      7  C13      -18.1160   39.0400   92.4780 C.3   394  AED394      0.0468
      8  C15      -17.2610   38.9800   93.7530 C.3   394  AED394      0.1140
      9  O9       -23.5460   40.3090   93.4930 O.3   394  AED394     -0.2869
     10  C12      -20.2640   38.7460   93.7930 C.ar  394  AED394     -0.0010
     11  N16      -15.8360   38.7100   93.4430 N.3   394  AED394     -0.1310
     12  C3       -20.2120   40.3290   91.9570 C.ar  394  AED394     -0.0053
     13  C1       -21.5540   40.6580   92.1840 C.ar  394  AED394      0.0161
     14  C2       -22.2550   41.6830   91.3190 C.3   394  AED394      0.0255
     15  C14      -21.7170   43.9680   89.4910 C.3   394  AED394      0.0000
     16  C11      -22.1550   42.6290   88.8820 C.3   394  AED394      0.0003
@<TRIPOS>BOND
     1    16    15    1
     2    16     3    1
     3    15     6    1
     4     3    14    1
     5     6     2    1
     6    14     2    1
     7    14    13    1
     8    12    13   ar
     9    12     4   ar
    10    13     1   ar
    11     7     4    1
    12     7     8    1
    13     4    10   ar
    14     1     9    1
    15     1     5   ar
    16    11     8    1
    17    10     5   ar
