@<TRIPOS>MOLECULE
3buj_HEM_A_1.pdb
 43 50 0 0 0
SMALL
GASTEIGER

@<TRIPOS>ATOM
      1  CHA        8.2470   33.5220   10.0610 C.2   398  HEM398      0.0000
      2  CHB        6.3070   37.8870    9.2370 C.2   398  HEM398      0.0000
      3  CHC        6.2120   38.6830   14.0610 C.2   398  HEM398      0.0000
      4  CHD        8.6150   34.5680   14.8720 C.2   398  HEM398      0.0000
      5  C1A        7.7280   34.6120    9.4050 C.ar  398  HEM398      0.0000
      6  C2A        7.5460   34.7460    7.9680 C.ar  398  HEM398      0.0000
      7  C3A        7.0140   35.9590    7.7340 C.ar  398  HEM398      0.0000
      8  C4A        6.8380   36.6260    9.0140 C.ar  398  HEM398      0.0000
      9  CMA        6.6450   36.5530    6.3560 C.3   398  HEM398      0.0000
     10  CAA        7.9170   33.6640    6.9130 C.3   398  HEM398      0.0000
     11  CBA        9.4270   33.6390    6.6590 C.3   398  HEM398      0.0000
     12  CGA        9.8120   32.9490    5.3600 C.2   398  HEM398      0.0000
     13  O1A        8.9440   32.3770    4.6370 O.co2 398  HEM398      0.0000
     14  O2A       11.0310   32.9690    5.0470 O.co2 398  HEM398      0.0000
     15  C1B        6.1030   38.4830   10.4720 C.2   398  HEM398      0.0000
     16  C2B        5.5300   39.7980   10.7110 C.2   398  HEM398      0.0000
     17  C3B        5.5110   40.0080   12.0480 C.2   398  HEM398      0.0000
     18  C4B        6.0700   38.8380   12.6930 C.2   398  HEM398      0.0000
     19  CMB        5.0420   40.7720    9.6100 C.3   398  HEM398      0.0000
     20  CAB        5.0100   41.2560   12.8230 C.2   398  HEM398      0.0000
     21  CBB        3.9910   42.0060   12.4070 C.2   398  HEM398      0.0000
     22  C1C        6.8260   37.6500   14.7370 C.ar  398  HEM398      0.0000
     23  C2C        6.9620   37.4860   16.1760 C.ar  398  HEM398      0.0000
     24  C3C        7.6270   36.3500   16.4030 C.ar  398  HEM398      0.0000
     25  C4C        7.9320   35.7420   15.1150 C.ar  398  HEM398      0.0000
     26  CMC        6.4340   38.4320   17.2720 C.3   398  HEM398      0.0000
     27  CAC        7.9760   35.7880   17.8020 C.2   398  HEM398      0.0000
     28  CBC        9.2110   35.8840   18.2840 C.2   398  HEM398      0.0000
     29  C1D        8.7250   33.8940   13.6560 C.2   398  HEM398      0.0000
     30  C2D        9.3380   32.5890   13.4820 C.2   398  HEM398      0.0000
     31  C3D        9.2290   32.2520   11.9910 C.2   398  HEM398      0.0000
     32  C4D        8.5550   33.4020   11.4000 C.2   398  HEM398      0.0000
     33  CMD        9.9670   31.7030   14.5700 C.3   398  HEM398      0.0000
     34  CAD        9.7190   30.9430   11.3100 C.3   398  HEM398      0.0000
     35  CBD       10.6860   31.1820   10.1450 C.3   398  HEM398      0.0000
     36  CGD       11.2330   29.8740    9.5960 C.2   398  HEM398      0.0000
     37  O1D       12.1680   29.9350    8.7420 O.co2 398  HEM398      0.0000
     38  O2D       10.7410   28.7730   10.0030 O.co2 398  HEM398      0.0000
     39  NA         7.2820   35.7680   10.0020 N.ar  398  HEM398      0.0000
     40  NB         6.4140   37.9270   11.7020 N.2   398  HEM398      0.0000
     41  NC         7.4250   36.5660   14.1340 N.ar  398  HEM398      0.0000
     42  ND         8.2820   34.3380   12.4100 N.2   398  HEM398      0.0000
     43 FE          7.2220   36.0800   12.0890 Fe    398  HEM398      0.0000
@<TRIPOS>BOND
     1    13    12   ar
     2    14    12   ar
     3    12    11    1
     4     9     7    1
     5    11    10    1
     6    10     6    1
     7     7     6   ar
     8     7     8   ar
     9     6     5   ar
    10    37    36   ar
    11     8     2    2
    12     8    39   ar
    13     2    15    1
    14     5    39   ar
    15     5     1    2
    16    36    38   ar
    17    36    35    1
    18    19    16    1
    19    39    43    1
    20     1    32    1
    21    35    34    1
    22    15    16    1
    23    15    40    2
    24    16    17    2
    25    34    31    1
    26    32    31    1
    27    32    42    2
    28    40    43    1
    29    40    18    1
    30    31    30    2
    31    17    18    1
    32    17    20    1
    33    43    42    1
    34    43    41    1
    35    21    20    2
    36    42    29    1
    37    18     3    2
    38    30    29    1
    39    30    33    1
    40    29     4    2
    41     3    22    1
    42    41    22   ar
    43    41    25   ar
    44    22    23   ar
    45     4    25    1
    46    25    24   ar
    47    23    24   ar
    48    23    26    1
    49    24    27    1
    50    27    28    2
