@<TRIPOS>MOLECULE
3bup_MAN_A_1.pdb
 12 12 0 0 0
SMALL
GASTEIGER

@<TRIPOS>ATOM
      1  C1        30.8340   65.1440    9.0060 C.3   1047  MAN1047     0.3024
      2  C2        32.1920   65.8510    8.8630 C.3   1047  MAN1047     0.2434
      3  C3        32.5770   66.4920    7.6450 C.3   1047  MAN1047     0.2199
      4  C4        31.5240   66.4600    6.5370 C.3   1047  MAN1047     0.2144
      5  C5        30.1600   66.3250    7.1740 C.3   1047  MAN1047     0.1836
      6  C6        28.9340   66.4550    6.3030 C.3   1047  MAN1047     0.2142
      7  O1        30.2670   65.7050   10.2140 O.3   1047  MAN1047    -0.1869
      8  O2        33.1670   65.3570    9.8060 O.3   1047  MAN1047    -0.2148
      9  O3        33.8110   66.2180    7.0330 O.3   1047  MAN1047    -0.2174
     10  O4        31.6040   67.6210    5.7610 O.3   1047  MAN1047    -0.2176
     11  O5        30.1130   65.1160    7.8230 O.3   1047  MAN1047    -0.3236
     12  O6        27.8280   66.5860    7.1610 O.3   1047  MAN1047    -0.2176
@<TRIPOS>BOND
     1    10     4    1
     2     6    12    1
     3     6     5    1
     4     4     5    1
     5     4     3    1
     6     9     3    1
     7     5    11    1
     8     3     2    1
     9    11     1    1
    10     2     1    1
    11     2     8    1
    12     1     7    1
