@<TRIPOS>MOLECULE
3buq_MAN_A_1.pdb
 12 12 0 0 0
SMALL
GASTEIGER

@<TRIPOS>ATOM
      1  C1        30.6220   65.2210    9.5020 C.3   1047  MAN1047     0.3024
      2  C2        32.0470   65.1090    8.9480 C.3   1047  MAN1047     0.2434
      3  C3        32.3170   66.2030    7.8920 C.3   1047  MAN1047     0.2199
      4  C4        31.1870   66.2160    6.8550 C.3   1047  MAN1047     0.2144
      5  C5        29.8420   66.3350    7.5740 C.3   1047  MAN1047     0.1836
      6  C6        28.6210   66.4600    6.6500 C.3   1047  MAN1047     0.2142
      7  O1        30.4630   66.2240   10.4480 O.3   1047  MAN1047    -0.1869
      8  O2        32.1780   63.8220    8.3730 O.3   1047  MAN1047    -0.2148
      9  O3        33.5670   65.9930    7.2490 O.3   1047  MAN1047    -0.2174
     10  O4        31.3930   67.2520    5.9040 O.3   1047  MAN1047    -0.2176
     11  O5        29.6780   65.2320    8.4620 O.3   1047  MAN1047    -0.3236
     12  O6        27.4390   66.5170    7.4320 O.3   1047  MAN1047    -0.2176
@<TRIPOS>BOND
     1    10     4    1
     2     6    12    1
     3     6     5    1
     4     4     5    1
     5     4     3    1
     6     9     3    1
     7     5    11    1
     8     3     2    1
     9     8     2    1
    10    11     1    1
    11     2     1    1
    12     1     7    1
