@<TRIPOS>MOLECULE
3bur_NAP_A_1.pdb
 48 52 0 0 0
SMALL
GASTEIGER

@<TRIPOS>ATOM
      1  PA         6.3820  -15.4330    4.3270 P.3   328  NAP328      0.2189
      2  O1A        7.0810  -15.0230    5.4670 O.3   328  NAP328     -0.4371
      3  O2A        5.2400  -14.5660    3.8520 O.2   328  NAP328     -0.5170
      4  O5B        5.7900  -16.9620    4.5450 O.3   328  NAP328     -0.3112
      5  C5B        5.1240  -17.6310    3.6990 C.3   328  NAP328      0.1813
      6  C4B        5.0370  -19.1610    4.0130 C.3   328  NAP328      0.1820
      7  O4B        4.1340  -19.1890    5.0460 O.3   328  NAP328     -0.3136
      8  C3B        4.3430  -19.9920    2.8930 C.3   328  NAP328      0.2157
      9  O3B        4.9260  -21.2760    2.9300 O.3   328  NAP328     -0.2175
     10  C2B        2.8790  -20.0200    3.2990 C.3   328  NAP328      0.2314
     11  O2B        2.1880  -21.2320    2.8910 O.3   328  NAP328     -0.2630
     12  C1B        2.9730  -19.9870    4.8080 C.3   328  NAP328      0.3158
     13  N9A        1.9040  -19.3000    5.5050 N.pl3 328  NAP328     -0.1439
     14  C8A        1.2380  -18.1740    5.0880 C.3   328  NAP328      0.3377
     15  N7A        0.3480  -17.7480    6.0290 N.2   328  NAP328     -0.2095
     16  C5A        0.4840  -18.6790    7.0280 C.2   328  NAP328      0.2526
     17  C6A       -0.2430  -18.7530    8.2280 C.2   328  NAP328      0.4393
     18  N6A       -1.1970  -17.9780    8.7050 N.pl3 328  NAP328      0.2180
     19  N1A        0.1260  -19.8470    9.1010 N.2   328  NAP328      0.0021
     20  C2A        1.1210  -20.7130    8.7520 C.3   328  NAP328      0.5254
     21  N3A        1.7780  -20.6630    7.5800 N.2   328  NAP328     -0.0055
     22  C4A        1.4460  -19.5970    6.6850 C.2   328  NAP328      0.3518
     23  O3         7.3100  -15.4600    3.0930 O.3   328  NAP328     -0.2703
     24  PN         7.7780  -15.0280    1.7300 P.3   328  NAP328      0.2189
     25  O1N        9.1250  -15.3270    1.5360 O.3   328  NAP328     -0.4371
     26  O2N        6.7620  -15.5130    0.7140 O.2   328  NAP328     -0.5170
     27  O5D        7.4950  -13.6190    1.9810 O.3   328  NAP328     -0.3112
     28  C5D        6.4760  -12.7060    1.6250 C.3   328  NAP328      0.1813
     29  C4D        6.4600  -12.0270    0.3020 C.3   328  NAP328      0.1799
     30  O4D        7.5070  -11.0040    0.3250 O.3   328  NAP328     -0.3327
     31  C3D        6.8670  -12.8790   -0.9580 C.3   328  NAP328      0.2158
     32  O3D        5.7900  -13.7710   -1.4320 O.3   328  NAP328     -0.2175
     33  C2D        7.3200  -11.7650   -1.9270 C.3   328  NAP328      0.2309
     34  O2D        6.0990  -11.1390   -2.4270 O.3   328  NAP328     -0.2158
     35  C1D        8.0860  -10.8580   -0.9820 C.3   328  NAP328      0.2263
     36  N1N        9.5510  -11.1580   -0.8080 N.pl3 328  NAP328     -0.2787
     37  C2N       10.4140  -10.2010   -1.3540 C.3   328  NAP328      0.1244
     38  C3N       11.7850  -10.5140   -1.4580 C.2   328  NAP328      0.0544
     39  C7N       12.6970   -9.4550   -2.0530 C.2   328  NAP328      0.2818
     40  O7N       13.8900   -9.7260   -2.1450 O.2   328  NAP328     -0.2670
     41  N7N       12.0870   -8.3330   -2.4150 N.am  328  NAP328     -0.0839
     42  C4N       12.3050  -11.7820   -1.0170 C.2   328  NAP328      0.0033
     43  C5N       11.4370  -12.7720   -0.4560 C.2   328  NAP328      0.0157
     44  C6N       10.0770  -12.4580   -0.3550 C.2   328  NAP328      0.0633
     45  P2B        0.7250  -21.1390    2.1780 P.3   328  NAP328      0.5328
     46  O1X        0.8490  -20.3560    0.8840 O.2   328  NAP328     -0.2224
     47  O2X        0.3640  -22.6080    1.8910 O.3   328  NAP328     -0.1145
     48  O3X       -0.2110  -20.4550    3.1760 O.3   328  NAP328     -0.1145
@<TRIPOS>BOND
     1    34    33    1
     2    41    39   am
     3    40    39    2
     4    39    38    1
     5    33    35    1
     6    33    31    1
     7    38    37    1
     8    38    42    2
     9    32    31    1
    10    37    36    1
    11    42    43    1
    12    35    36    1
    13    35    30    1
    14    31    29    1
    15    36    44    1
    16    43    44    2
    17    29    30    1
    18    29    28    1
    19    26    24    2
    20    46    45    2
    21    25    24    1
    22    28    27    1
    23    24    27    1
    24    24    23    1
    25    47    45    1
    26    45    11    1
    27    45    48    1
    28    11    10    1
    29     8     9    1
    30     8    10    1
    31     8     6    1
    32    23     1    1
    33    10    12    1
    34     5     6    1
    35     5     4    1
    36     3     1    2
    37     6     7    1
    38     1     4    1
    39     1     2    1
    40    12     7    1
    41    12    13    1
    42    14    13    1
    43    14    15    1
    44    13    22    1
    45    15    16    2
    46    22    16    1
    47    22    21    2
    48    16    17    1
    49    21    20    1
    50    17    18    1
    51    17    19    2
    52    20    19    1
