@<TRIPOS>MOLECULE
3bur_TES_A_1.pdb
 21 24 0 0 0
SMALL
GASTEIGER

@<TRIPOS>ATOM
      1  C1        12.4470  -18.6510   -1.7250 C.3   339  TES339      0.0078
      2  C2        11.6850  -19.3690   -0.6240 C.3   339  TES339      0.0645
      3  C3        12.3230  -19.1110    0.7080 C.2   339  TES339      0.1506
      4  O3        12.1920  -19.9300    1.6290 O.2   339  TES339     -0.2961
      5  C4        12.7820  -17.7500    0.9480 C.3   339  TES339      0.0645
      6  C5        13.1540  -16.9220   -0.0730 C.3   339  TES339      0.0073
      7  C6        13.7660  -15.6060    0.2300 C.3   339  TES339      0.0004
      8  C7        14.6590  -15.0270   -0.8780 C.3   339  TES339      0.0000
      9  C8        13.9880  -15.0820   -2.2520 C.3   339  TES339      0.0001
     10  C9        13.5590  -16.5390   -2.5350 C.3   339  TES339      0.0000
     11  C10       12.5710  -17.1330   -1.4770 C.3   339  TES339      0.0008
     12  C11       13.0290  -16.7090   -3.9920 C.3   339  TES339      0.0001
     13  C12       14.0560  -16.2110   -5.0350 C.3   339  TES339      0.0024
     14  C13       14.4040  -14.7450   -4.7540 C.3   339  TES339      0.0282
     15  C14       14.9870  -14.6570   -3.3260 C.3   339  TES339      0.0024
     16  C15       15.6260  -13.2580   -3.2490 C.3   339  TES339      0.0027
     17  C16       16.0570  -12.9440   -4.6900 C.3   339  TES339      0.0329
     18  C17       15.6180  -14.1810   -5.5370 C.3   339  TES339      0.1519
     19  O17       15.3020  -13.7650   -6.8680 O.3   339  TES339     -0.2232
     20  C18       13.1980  -13.8450   -5.0070 C.3   339  TES339      0.0025
     21  C19       11.2020  -16.4270   -1.5080 C.3   339  TES339      0.0000
@<TRIPOS>BOND
     1    19    18    1
     2    18    14    1
     3    18    17    1
     4    13    14    1
     5    13    12    1
     6    20    14    1
     7    14    15    1
     8    17    16    1
     9    12    10    1
    10    15    16    1
    11    15     9    1
    12    10     9    1
    13    10    11    1
    14     9     8    1
    15     1    11    1
    16     1     2    1
    17    21    11    1
    18    11     6    1
    19     8     7    1
    20     2     3    1
    21     6     7    1
    22     6     5    1
    23     3     5    1
    24     3     4    2
