@<TRIPOS>MOLECULE
3bus_SAH_A_1.pdb
 26 28 0 0 0
SMALL
GASTEIGER

@<TRIPOS>ATOM
      1  N         12.2780   34.1390   27.6620 N.3   274  SAH274     -0.1208
      2  CA        11.7060   33.6450   28.9470 C.3   274  SAH274      0.1952
      3  CB        12.7540   33.5250   30.0450 C.3   274  SAH274      0.0422
      4  CG        14.0790   32.9430   29.5870 C.3   274  SAH274      0.0597
      5  SD        14.9890   32.2520   30.9850 S.3   274  SAH274     -0.1375
      6  C         10.5980   34.5810   29.3990 C.2   274  SAH274      0.3819
      7  O          9.4530   34.1640   29.5680 O.co2 274  SAH274     -0.2441
      8  OXT       10.8320   35.7750   29.6000 O.co2 274  SAH274     -0.2441
      9  C5'       15.5570   30.8310   30.0120 C.3   274  SAH274      0.0899
     10  C4'       14.5730   29.6780   29.8160 C.3   274  SAH274      0.1630
     11  O4'       15.1530   28.7200   28.9490 O.3   274  SAH274     -0.3153
     12  C3'       14.2170   28.9290   31.0860 C.3   274  SAH274      0.2168
     13  O3'       12.8190   28.7850   31.0580 O.3   274  SAH274     -0.2175
     14  C2'       14.9060   27.5700   30.9710 C.3   274  SAH274      0.2569
     15  O2'       14.1700   26.4920   31.5100 O.3   274  SAH274     -0.2130
     16  C1'       15.0740   27.4060   29.4720 C.3   274  SAH274      0.3185
     17  N9        16.2870   26.6470   29.1110 N.pl3 274  SAH274     -0.1439
     18  C8        17.5080   26.6470   29.7460 C.3   274  SAH274      0.3377
     19  N7        18.3460   25.8160   29.0850 N.2   274  SAH274     -0.2095
     20  C5        17.6780   25.2910   28.0330 C.2   274  SAH274      0.2526
     21  C6        18.0460   24.3910   27.0370 C.2   274  SAH274      0.4393
     22  N6        19.2760   23.8920   27.0220 N.pl3 274  SAH274      0.2180
     23  N1        17.1370   24.0240   26.0610 N.2   274  SAH274      0.0021
     24  C2        15.8540   24.5440   26.0800 C.3   274  SAH274      0.5254
     25  N3        15.4870   25.4390   27.0750 N.2   274  SAH274     -0.0055
     26  C4        16.3830   25.8060   28.0340 C.2   274  SAH274      0.3518
@<TRIPOS>BOND
     1    23    24    1
     2    23    21    2
     3    24    25    1
     4    22    21    1
     5    21    20    1
     6    25    26    2
     7     1     2    1
     8    20    26    1
     9    20    19    2
    10    26    17    1
    11     2     6    1
    12     2     3    1
    13    11    16    1
    14    11    10    1
    15    19    18    1
    16    17    16    1
    17    17    18    1
    18     6     7   ar
    19     6     8   ar
    20    16    14    1
    21     4     3    1
    22     4     5    1
    23    10     9    1
    24    10    12    1
    25     9     5    1
    26    14    12    1
    27    14    15    1
    28    13    12    1
