@<TRIPOS>MOLECULE
3buv_NAP_A_1.pdb
 48 52 0 0 0
SMALL
GASTEIGER

@<TRIPOS>ATOM
      1  PA         6.4400  -15.3670    4.4960 P.3   3902  NAP3902     0.2189
      2  O1A        7.1980  -15.0090    5.6340 O.3   3902  NAP3902    -0.4371
      3  O2A        5.3370  -14.5050    4.0010 O.2   3902  NAP3902    -0.5170
      4  O5B        5.9440  -16.8980    4.7120 O.3   3902  NAP3902    -0.3112
      5  C5B        5.3770  -17.6210    3.8450 C.3   3902  NAP3902     0.1813
      6  C4B        5.2420  -19.1170    4.1910 C.3   3902  NAP3902     0.1820
      7  O4B        4.3420  -19.1230    5.2650 O.3   3902  NAP3902    -0.3136
      8  C3B        4.5520  -19.9810    3.1010 C.3   3902  NAP3902     0.2157
      9  O3B        5.1640  -21.2670    3.1680 O.3   3902  NAP3902    -0.2175
     10  C2B        3.0870  -19.9860    3.5050 C.3   3902  NAP3902     0.2314
     11  O2B        2.4230  -21.1880    3.0420 O.3   3902  NAP3902    -0.2630
     12  C1B        3.1530  -19.9090    5.0170 C.3   3902  NAP3902     0.3158
     13  N9A        2.0810  -19.2010    5.7040 N.pl3 3902  NAP3902    -0.1439
     14  C8A        1.3590  -18.1080    5.2780 C.3   3902  NAP3902     0.3377
     15  N7A        0.4210  -17.7160    6.2090 N.2   3902  NAP3902    -0.2095
     16  C5A        0.6150  -18.6130    7.1980 C.2   3902  NAP3902     0.2526
     17  C6A       -0.0930  -18.6930    8.4330 C.2   3902  NAP3902     0.4393
     18  N6A       -1.0620  -17.9200    8.8740 N.pl3 3902  NAP3902     0.2180
     19  N1A        0.3220  -19.7660    9.3100 N.2   3902  NAP3902     0.0021
     20  C2A        1.3260  -20.6690    8.9990 C.3   3902  NAP3902     0.5254
     21  N3A        1.9840  -20.5680    7.8140 N.2   3902  NAP3902    -0.0055
     22  C4A        1.6120  -19.5140    6.8880 C.2   3902  NAP3902     0.3518
     23  O3         7.4580  -15.3440    3.2950 O.3   3902  NAP3902    -0.2703
     24  PN         7.9410  -14.9250    1.9090 P.3   3902  NAP3902     0.2189
     25  O1N        9.2970  -15.2280    1.7830 O.3   3902  NAP3902    -0.4371
     26  O2N        6.9590  -15.5260    0.9350 O.2   3902  NAP3902    -0.5170
     27  O5D        7.6560  -13.5070    2.0740 O.3   3902  NAP3902    -0.3112
     28  C5D        6.5870  -12.6030    1.7610 C.3   3902  NAP3902     0.1813
     29  C4D        6.6070  -11.9280    0.4240 C.3   3902  NAP3902     0.1799
     30  O4D        7.7680  -11.0310    0.4490 O.3   3902  NAP3902    -0.3327
     31  C3D        6.9760  -12.8220   -0.8160 C.3   3902  NAP3902     0.2158
     32  O3D        5.9570  -13.7990   -1.1590 O.3   3902  NAP3902    -0.2175
     33  C2D        7.4070  -11.7220   -1.7870 C.3   3902  NAP3902     0.2309
     34  O2D        6.2130  -11.1010   -2.3340 O.3   3902  NAP3902    -0.2158
     35  C1D        8.2910  -10.8540   -0.8920 C.3   3902  NAP3902     0.2263
     36  N1N        9.7610  -11.1970   -0.7750 N.pl3 3902  NAP3902    -0.2787
     37  C2N       10.6870  -10.2500   -1.2700 C.3   3902  NAP3902     0.1244
     38  C3N       12.0920  -10.5700   -1.2410 C.2   3902  NAP3902     0.0544
     39  C7N       13.1030   -9.5450   -1.7740 C.2   3902  NAP3902     0.2818
     40  O7N       14.2870   -9.8140   -1.7580 O.2   3902  NAP3902    -0.2670
     41  N7N       12.5010   -8.4330   -2.1960 N.am  3902  NAP3902    -0.0839
     42  C4N       12.5490  -11.8380   -0.7150 C.2   3902  NAP3902     0.0033
     43  C5N       11.6220  -12.8350   -0.1850 C.2   3902  NAP3902     0.0157
     44  C6N       10.2640  -12.5000   -0.2230 C.2   3902  NAP3902     0.0633
     45  P2B        0.9680  -21.1260    2.3250 P.3   3902  NAP3902     0.5328
     46  O1X        1.0540  -20.2730    1.0590 O.2   3902  NAP3902    -0.2224
     47  O2X        0.6690  -22.5860    2.0340 O.3   3902  NAP3902    -0.1145
     48  O3X        0.0110  -20.4800    3.3250 O.3   3902  NAP3902    -0.1145
@<TRIPOS>BOND
     1    34    33    1
     2    41    39   am
     3    33    35    1
     4    33    31    1
     5    39    40    2
     6    39    38    1
     7    37    38    1
     8    37    36    1
     9    38    42    2
    10    32    31    1
    11    35    36    1
    12    35    30    1
    13    31    29    1
    14    36    44    1
    15    42    43    1
    16    44    43    2
    17    29    30    1
    18    29    28    1
    19    26    24    2
    20    46    45    2
    21    28    27    1
    22    25    24    1
    23    24    27    1
    24    24    23    1
    25    47    45    1
    26    45    11    1
    27    45    48    1
    28    11    10    1
    29     8     9    1
    30     8    10    1
    31     8     6    1
    32    23     1    1
    33    10    12    1
    34     5     6    1
    35     5     4    1
    36     3     1    2
    37     6     7    1
    38     1     4    1
    39     1     2    1
    40    12     7    1
    41    12    13    1
    42    14    13    1
    43    14    15    1
    44    13    22    1
    45    15    16    2
    46    22    16    1
    47    22    21    2
    48    16    17    1
    49    21    20    1
    50    17    18    1
    51    17    19    2
    52    20    19    1
