@<TRIPOS>MOLECULE
3buv_EPE_A_1.pdb
 15 15 0 0 0
SMALL
GASTEIGER

@<TRIPOS>ATOM
      1  N1        13.6030  -15.4460   -6.4690 N.3   3999  EPE3999    -0.2689
      2  C2        14.6210  -14.0940   -6.3730 C.3   3999  EPE3999     0.0897
      3  C3        15.6880  -14.4200   -5.3190 C.3   3999  EPE3999     0.0897
      4  N4        15.1240  -14.5830   -3.9930 N.3   3999  EPE3999    -0.2681
      5  C5        14.2390  -15.8420   -4.1250 C.3   3999  EPE3999     0.0897
      6  C6        13.0850  -15.5080   -5.1160 C.3   3999  EPE3999     0.0897
      7  C7        16.1400  -14.8530   -3.1080 C.3   3999  EPE3999     0.1081
      8  C8        15.8220  -15.0530   -1.6530 C.3   3999  EPE3999     0.1993
      9  O8        14.8280  -14.2160   -1.0680 O.3   3999  EPE3999    -0.2189
     10  C9        12.5970  -15.2220   -7.4530 C.3   3999  EPE3999     0.0939
     11  C10       13.1980  -16.1950   -8.4110 C.3   3999  EPE3999     0.1225
     12  S         13.2820  -17.8370   -8.4980 S.3   3999  EPE3999    -0.1946
     13  O1S       14.2470  -18.5040   -7.9340 O.3   3999  EPE3999    -0.3074
     14  O2S       12.1180  -18.3980   -7.9980 O.3   3999  EPE3999    -0.3074
     15  O3S       13.3900  -18.2980   -9.8320 O.3   3999  EPE3999    -0.3074
@<TRIPOS>BOND
     1    15    12    1
     2    12    11    1
     3    12    14    1
     4    12    13    1
     5    11    10    1
     6    10     1    1
     7     1     2    1
     8     1     6    1
     9     2     3    1
    10     3     4    1
    11     6     5    1
    12     5     4    1
    13     4     7    1
    14     7     8    1
    15     8     9    1
