@<TRIPOS>MOLECULE
3buz_TAD_A_1.pdb
 43 47 0 0 0
SMALL
GASTEIGER

@<TRIPOS>ATOM
      1  PA        28.6140   49.2800  -38.5060 P.3   500  TAD500      0.3820
      2  O1A       28.6620   50.7170  -39.0260 O.2   500  TAD500     -0.2548
      3  O2A       27.5730   48.7580  -37.5560 O.3   500  TAD500     -0.1392
      4  O5B       28.4100   48.3370  -39.8150 O.3   500  TAD500     -0.2896
      5  C5B       27.4470   47.2780  -39.7800 C.3   500  TAD500      0.1836
      6  C4B       26.6660   46.9620  -41.0670 C.3   500  TAD500      0.1822
      7  O4B       25.6150   47.9090  -41.3610 O.3   500  TAD500     -0.3135
      8  C3B       27.5220   46.8990  -42.3020 C.3   500  TAD500      0.2184
      9  O3B       26.9270   45.9280  -43.1570 O.3   500  TAD500     -0.2174
     10  C2B       27.3220   48.2690  -42.9090 C.3   500  TAD500      0.2570
     11  O2B       27.5570   48.2620  -44.3260 O.3   500  TAD500     -0.2130
     12  C1B       25.8970   48.6650  -42.5340 C.3   500  TAD500      0.3186
     13  N9A       25.9170   50.1110  -42.2290 N.pl3 500  TAD500     -0.1439
     14  C8A       26.7670   50.7040  -41.3540 C.3   500  TAD500      0.3377
     15  N7A       26.5830   52.0510  -41.2850 N.2   500  TAD500     -0.2095
     16  C5A       25.5760   52.3400  -42.1560 C.2   500  TAD500      0.2526
     17  C6A       24.8550   53.5750  -42.5970 C.2   500  TAD500      0.4393
     18  N6A       25.1830   54.7910  -42.0970 N.pl3 500  TAD500      0.2180
     19  N1A       23.8630   53.4420  -43.5160 N.2   500  TAD500      0.0021
     20  C2A       23.5500   52.2340  -44.0360 C.3   500  TAD500      0.5254
     21  N3A       24.1560   51.0830  -43.6800 N.2   500  TAD500     -0.0055
     22  C4A       25.1480   51.0580  -42.7670 C.2   500  TAD500      0.3518
     23  C3        30.1510   49.2410  -37.5420 C.3   500  TAD500      0.2353
     24  PN        30.9460   47.7210  -38.0650 P.3   500  TAD500      0.3820
     25  O1N       31.7990   47.9340  -39.2880 O.2   500  TAD500     -0.2548
     26  O2N       29.8370   46.6830  -38.1490 O.3   500  TAD500     -0.1392
     27  O5D       31.9180   47.2610  -36.8600 O.3   500  TAD500     -0.2896
     28  C5D       32.2460   45.8800  -36.6340 C.3   500  TAD500      0.1835
     29  C4D       33.0840   45.8290  -35.3810 C.3   500  TAD500      0.1786
     30  O4D       34.4420   46.0470  -35.7470 O.3   500  TAD500     -0.3431
     31  C3D       32.6990   46.9410  -34.4140 C.3   500  TAD500      0.2144
     32  O3D       32.8230   46.4310  -33.0770 O.3   500  TAD500     -0.2176
     33  C2D       33.7370   48.0190  -34.6040 C.3   500  TAD500      0.2189
     34  O2D       34.0290   48.5740  -33.3220 O.3   500  TAD500     -0.2172
     35  C1D       34.9310   47.2990  -35.2350 C.3   500  TAD500      0.2057
     36  C2N       35.5580   48.0550  -36.3620 C.2   500  TAD500      0.1642
     37  N3N       35.2070   48.1900  -37.6670 N.2   500  TAD500     -0.3963
     38  C4N       36.0580   48.9640  -38.3920 C.2   500  TAD500      0.1768
     39  C5N       37.1210   49.4390  -37.6260 C.3   500  TAD500      0.1280
     40  S1N       37.0390   48.8920  -35.9590 S.3   500  TAD500     -0.0765
     41  C6N       35.8350   49.2410  -39.8340 C.2   500  TAD500      0.3106
     42  O6N       36.7050   49.7070  -40.5480 O.2   500  TAD500     -0.2642
     43  N6N       34.6330   48.9590  -40.3050 N.am  500  TAD500     -0.0817
@<TRIPOS>BOND
     1    11    10    1
     2    20    21    1
     3    20    19    1
     4    21    22    2
     5    19    17    2
     6     9     8    1
     7    10    12    1
     8    10     8    1
     9    22    13    1
    10    22    16    1
    11    17    16    1
    12    17    18    1
    13    12    13    1
    14    12     7    1
    15     8     6    1
    16    13    14    1
    17    16    15    2
    18     7     6    1
    19    14    15    1
    20     6     5    1
    21    42    41    2
    22    43    41   am
    23    41    38    1
    24     4     5    1
    25     4     1    1
    26    25    24    2
    27     2     1    2
    28     1     3    1
    29     1    23    1
    30    38    37    2
    31    38    39    1
    32    26    24    1
    33    24    23    1
    34    24    27    1
    35    37    36    2
    36    39    40    1
    37    27    28    1
    38    28    29    1
    39    36    40    1
    40    36    35    1
    41    30    29    1
    42    30    35    1
    43    29    31    1
    44    35    33    1
    45    33    31    1
    46    33    34    1
    47    31    32    1
