@<TRIPOS>MOLECULE
3buz_ATP_B_1.pdb
 31 33 0 0 0
SMALL
GASTEIGER

@<TRIPOS>ATOM
      1  PG        27.2650   31.6140  -26.2160 P.3   380  ATP380      0.5373
      2  O1G       27.4760   32.6180  -25.1030 O.3   380  ATP380     -0.1143
      3  O2G       27.1380   32.1640  -27.6070 O.2   380  ATP380     -0.2221
      4  O3G       28.1740   30.4270  -26.1460 O.3   380  ATP380     -0.1143
      5  PB        25.7720   29.5870  -25.1940 P.3   380  ATP380      0.2277
      6  O1B       24.3590   29.3630  -24.7720 O.2   380  ATP380     -0.5168
      7  O2B       26.9090   29.3080  -24.2480 O.3   380  ATP380     -0.4368
      8  O3B       25.8270   31.0510  -25.8110 O.3   380  ATP380     -0.2258
      9  PA        26.1060   27.0250  -26.1610 P.3   380  ATP380      0.2189
     10  O1A       27.5840   26.6690  -26.1660 O.2   380  ATP380     -0.5170
     11  O2A       25.2820   26.7990  -24.9210 O.3   380  ATP380     -0.4371
     12  O3A       25.9940   28.6060  -26.4390 O.3   380  ATP380     -0.2700
     13  O5'       25.3270   26.3190  -27.3980 O.3   380  ATP380     -0.3112
     14  C5'       24.0090   26.7390  -27.7130 C.3   380  ATP380      0.1813
     15  C4'       23.8320   26.7150  -29.2170 C.3   380  ATP380      0.1821
     16  O4'       24.2490   25.4290  -29.7230 O.3   380  ATP380     -0.3135
     17  C3'       22.3640   26.8460  -29.6310 C.3   380  ATP380      0.2184
     18  O3'       22.2960   27.7960  -30.6720 O.3   380  ATP380     -0.2174
     19  C2'       22.0210   25.4490  -30.1260 C.3   380  ATP380      0.2570
     20  O2'       21.0030   25.3020  -31.0970 O.3   380  ATP380     -0.2130
     21  C1'       23.3310   24.9760  -30.7230 C.3   380  ATP380      0.3186
     22  N9        23.3380   23.5140  -30.8010 N.pl3 380  ATP380     -0.1439
     23  C8        23.0710   22.6430  -29.8140 C.3   380  ATP380      0.3377
     24  N7        23.1880   21.3690  -30.3050 N.2   380  ATP380     -0.2095
     25  C5        23.5600   21.4340  -31.5980 C.2   380  ATP380      0.2526
     26  C6        23.8760   20.5130  -32.7030 C.2   380  ATP380      0.4393
     27  N6        23.8570   19.1650  -32.6360 N.pl3 380  ATP380      0.2180
     28  N1        24.2040   21.0860  -33.8780 N.2   380  ATP380      0.0021
     29  C2        24.2660   22.4170  -34.0730 C.3   380  ATP380      0.5254
     30  N3        23.9790   23.2910  -33.1110 N.2   380  ATP380     -0.0055
     31  C4        23.6320   22.8670  -31.8960 C.2   380  ATP380      0.3518
@<TRIPOS>BOND
     1    29    28    1
     2    29    30    1
     3    28    26    2
     4    30    31    2
     5    26    27    1
     6    26    25    1
     7    31    25    1
     8    31    22    1
     9    25    24    2
    10    20    19    1
    11    22    21    1
    12    22    23    1
    13    21    19    1
    14    21    16    1
    15    18    17    1
    16    24    23    1
    17    19    17    1
    18    16    15    1
    19    17    15    1
    20    15    14    1
    21    14    13    1
    22     3     1    2
    23    13     9    1
    24    12     9    1
    25    12     5    1
    26     1     4    1
    27     1     8    1
    28     1     2    1
    29    10     9    2
    30     9    11    1
    31     8     5    1
    32     5     6    2
    33     5     7    1
