@<TRIPOS>MOLECULE
3buz_LAR_B_1.pdb
 29 31 0 0 0
SMALL
GASTEIGER

@<TRIPOS>ATOM
      1  S1        17.1440   30.9060  -31.0000 S.3   901  LAR901     -0.0192
      2  N1        18.7010   29.2820  -30.0450 N.2   901  LAR901     -0.1932
      3  O1        16.8100   23.4890  -26.8700 O.2   901  LAR901     -0.2449
      4  O2        18.0480   25.3890  -26.4450 O.3   901  LAR901     -0.4490
      5  O3        16.9910   29.3650  -26.7230 O.3   901  LAR901     -0.3329
      6  O4        16.1770   28.6530  -28.7870 O.3   901  LAR901     -0.1930
      7  O5        18.2700   29.0280  -32.2690 O.2   901  LAR901     -0.2155
      8  C1        17.2140   24.2410  -25.9950 C.2   901  LAR901      0.3407
      9  C2        16.9380   23.8560  -24.5710 C.2   901  LAR901      0.0734
     10  C3        15.9350   23.0360  -24.1030 C.2   901  LAR901     -0.0372
     11  C4        14.8890   22.3870  -25.0350 C.3   901  LAR901      0.0269
     12  C5        13.3970   22.4950  -24.6410 C.3   901  LAR901      0.0304
     13  C6        12.7160   23.6920  -25.2880 C.2   901  LAR901     -0.0258
     14  C7        13.1200   24.9100  -24.9060 C.2   901  LAR901     -0.0049
     15  C8        12.5980   26.1880  -25.3960 C.2   901  LAR901     -0.0049
     16  C9        12.9230   27.2800  -24.6950 C.2   901  LAR901     -0.0265
     17  C10       12.4860   28.6930  -25.0470 C.3   901  LAR901      0.0221
     18  C11       13.5140   29.4270  -25.9120 C.3   901  LAR901      0.0068
     19  C12       14.9450   29.3530  -25.3620 C.3   901  LAR901      0.0301
     20  C13       15.8560   28.5820  -26.3310 C.3   901  LAR901      0.1214
     21  C14       16.2980   27.1700  -25.8760 C.3   901  LAR901      0.0734
     22  C15       17.7100   26.8070  -26.3710 C.3   901  LAR901      0.1766
     23  C16       18.0490   27.4940  -27.7140 C.3   901  LAR901      0.1048
     24  C17       17.3630   28.8520  -27.9950 C.3   901  LAR901      0.2448
     25  C18       18.1930   29.8770  -28.7910 C.3   901  LAR901      0.1810
     26  C19       17.3310   31.0660  -29.2500 C.3   901  LAR901      0.1042
     27  C20       18.1250   29.6000  -31.2000 C.1   901  LAR901      0.1790
     28  C21       15.8880   22.7500  -22.6110 C.3   901  LAR901      0.0266
     29  C22       12.2570   29.4840  -23.7620 C.3   901  LAR901      0.0047
@<TRIPOS>BOND
     1     7    27    2
     2    27     1    1
     3    27     2    2
     4     1    26    1
     5     2    25    1
     6    26    25    1
     7    25    24    1
     8     6    24    1
     9    24    23    1
    10    24     5    1
    11    23    22    1
    12     3     8    2
    13     5    20    1
    14     4    22    1
    15     4     8    1
    16    22    21    1
    17    20    21    1
    18    20    19    1
    19     8     9    1
    20    18    19    1
    21    18    17    1
    22    15    14    1
    23    15    16    2
    24    13    14    2
    25    13    12    1
    26    17    16    1
    27    17    29    1
    28    11    12    1
    29    11    10    1
    30     9    10    2
    31    10    28    1
