@<TRIPOS>MOLECULE
3bv0_PLP_A_1.pdb
 15 15 0 0 0
SMALL
GASTEIGER

@<TRIPOS>ATOM
      1  N1       -24.7840    9.1630  -28.7070 N.2   501  PLP501     -0.2505
      2  C2       -23.4820    9.6080  -28.6060 C.2   501  PLP501      0.0675
      3  C2A      -23.1640   11.0730  -28.6630 C.3   501  PLP501      0.0499
      4  C3       -22.4610    8.6820  -28.4620 C.3   501  PLP501      0.1913
      5  O3       -21.1610    9.1240  -28.3750 O.3   501  PLP501     -0.2167
      6  C4       -22.7520    7.3110  -28.3900 C.3   501  PLP501      0.0581
      7  C4A      -21.7420    6.4440  -27.7040 C.3   501  PLP501      0.0075
      8  C5       -24.0710    6.8720  -28.4900 C.2   501  PLP501      0.0073
      9  C6       -25.0780    7.8150  -28.6540 C.2   501  PLP501      0.0921
     10  C5A      -24.4490    5.4030  -28.4670 C.3   501  PLP501      0.1776
     11  O4P      -24.2560    4.7470  -27.2270 O.3   501  PLP501     -0.2656
     12  P        -24.1860    3.1290  -27.1550 P.3   501  PLP501      0.5329
     13  O1P      -22.9540    2.7320  -27.9370 O.2   501  PLP501     -0.2224
     14  O2P      -25.4080    2.4780  -27.7480 O.3   501  PLP501     -0.1145
     15  O3P      -24.0720    2.6500  -25.7180 O.3   501  PLP501     -0.1145
@<TRIPOS>BOND
     1     1     9    1
     2     1     2    2
     3     3     2    1
     4     9     8    2
     5     2     4    1
     6     8    10    1
     7     8     6    1
     8    10    11    1
     9     4     6    1
    10     4     5    1
    11     6     7    1
    12    13    12    2
    13    14    12    1
    14    11    12    1
    15    12    15    1
