@<TRIPOS>MOLECULE
3bv2_P38_A_1.pdb
 44 49 0 0 0
SMALL
GASTEIGER

@<TRIPOS>ATOM
      1  C18       -4.6210   -2.3900   28.1990 C.ar  501  P38501     -0.0003
      2  C17       -3.3940   -2.0640   27.5530 C.ar  501  P38501     -0.0026
      3  C16       -2.6750   -3.1160   26.9230 C.ar  501  P38501     -0.0026
      4  C15       -0.2280   -3.6620   26.6750 C.3   501  P38501      0.0283
      5  C19       -5.1040   -3.7340   28.2120 C.ar  501  P38501     -0.0000
      6  C20       -4.3950   -4.7980   27.5870 C.ar  501  P38501     -0.0003
      7  C21       -3.1650   -4.4680   26.9360 C.ar  501  P38501     -0.0026
      8  C23       -3.6960    0.7600   17.8220 C.ar  501  P38501      0.1807
      9  C24       -5.1580    0.7550   17.3610 C.ar  501  P38501      0.0192
     10  C11       -2.2820   -2.5240   23.7620 C.2   501  P38501      0.2663
     11  C34        1.0670    2.4780   13.4420 C.ar  501  P38501      0.0389
     12  C27       -3.1380    1.9920   15.7970 C.ar  501  P38501      0.0772
     13  C33       -0.1410    3.0770   13.8620 C.ar  501  P38501      0.0597
     14  N1        -2.5110    0.7680   22.4150 N.ar  501  P38501     -0.2302
     15  N2        -2.4590    2.2540   22.4020 N.pl3 501  P38501     -0.1038
     16  C3        -2.4540    2.8430   21.1750 C.3   501  P38501      0.3964
     17  N4        -2.8990    2.1270   20.0870 N.2   501  P38501     -0.0330
     18  C5        -3.0100    0.7870   20.1140 C.2   501  P38501      0.3803
     19  C6        -2.7790    0.0060   21.2370 C.ar  501  P38501      0.1623
     20  C7        -2.7130   -1.4730   21.5090 C.ar  501  P38501      0.0090
     21  C8        -2.4500   -1.5140   22.8980 C.ar  501  P38501      0.0717
     22  C9        -2.3150   -0.1640   23.3680 C.ar  501  P38501      0.1024
     23  C10       -2.8580   -2.6610   20.5020 C.3   501  P38501      0.0331
     24  O12       -2.5680   -3.6960   23.4820 O.2   501  P38501     -0.2683
     25  N13       -1.6840   -2.0030   24.9620 N.am  501  P38501     -0.1989
     26  C14       -1.4190   -2.7940   26.2730 C.3   501  P38501      0.1178
     27  N22       -3.3300    0.1510   18.9590 N.pl3 501  P38501     -0.0050
     28  C25       -5.5350    1.4210   16.0450 C.ar  501  P38501      0.0006
     29  C26       -4.5020    1.9940   15.3150 C.ar  501  P38501      0.0165
     30  C28       -2.7150    1.3850   17.0610 C.ar  501  P38501      0.0607
     31  C29       -6.3420    0.0670   18.1160 C.3   501  P38501      0.0347
     32  N30       -2.2140    2.6620   14.9740 N.am  501  P38501     -0.1753
     33  C31       -0.8420    2.3370   14.8910 C.2   501  P38501      0.2691
     34  O32       -0.1690    1.5720   15.6070 O.2   501  P38501     -0.2680
     35  C35        1.9020    3.1080   12.4600 C.ar  501  P38501      0.1320
     36  N36        1.4660    4.2550   11.9600 N.ar  501  P38501     -0.2292
     37  C37        0.2560    4.7960   12.3830 C.ar  501  P38501      0.1005
     38  C38       -0.6150    4.3310   13.3230 C.ar  501  P38501      0.0253
     39  N39        3.1150    2.5080   12.0900 N.pl3 501  P38501     -0.2881
     40  C40        3.4800    1.2660   12.8530 C.3   501  P38501      0.1242
     41  C41        4.5050    0.4330   12.1230 C.3   501  P38501      0.1636
     42  O42        5.5990    1.2240   11.8600 O.3   501  P38501     -0.3501
     43  C43        5.3920    2.4260   11.0600 C.3   501  P38501      0.1636
     44  C44        4.2530    3.3140   11.5620 C.3   501  P38501      0.1242
@<TRIPOS>BOND
     1    43    44    1
     2    43    42    1
     3    44    39    1
     4    42    41    1
     5    36    37   ar
     6    36    35   ar
     7    39    35    1
     8    39    40    1
     9    41    40    1
    10    37    38   ar
    11    35    11   ar
    12    38    13   ar
    13    11    13   ar
    14    13    33    1
    15    33    32   am
    16    33    34    2
    17    32    12    1
    18    29    12   ar
    19    29    28   ar
    20    12    30   ar
    21    28     9   ar
    22    30     8   ar
    23     9     8   ar
    24     9    31    1
    25     8    27    1
    26    27    18    1
    27    17    18    2
    28    17    16    1
    29    18    19    1
    30    23    20    1
    31    16    15    1
    32    19    20   ar
    33    19    14   ar
    34    20    21   ar
    35    15    14    1
    36    14    22   ar
    37    21    22   ar
    38    21    10    1
    39    24    10    2
    40    10    25   am
    41    25    26    1
    42    26     4    1
    43    26     3    1
    44     3     7   ar
    45     3     2   ar
    46     7     6   ar
    47     2     1   ar
    48     6     5   ar
    49     1     5   ar
