@<TRIPOS>MOLECULE
3bv3_P39_A_1.pdb
 44 49 0 0 0
SMALL
GASTEIGER

@<TRIPOS>ATOM
      1  C18       -3.1210   42.0110   10.5780 C.ar  501  P39501     -0.0003
      2  C17       -2.0570   42.0580   11.5180 C.ar  501  P39501     -0.0026
      3  C16       -1.7050   40.7680   12.0830 C.ar  501  P39501     -0.0026
      4  C15        0.5810   40.5540   12.1950 C.3   501  P39501      0.0283
      5  C19       -3.7780   40.7700   10.2400 C.ar  501  P39501     -0.0000
      6  C20       -3.4320   39.5250   10.8110 C.ar  501  P39501     -0.0003
      7  C21       -2.3860   39.5570   11.7340 C.ar  501  P39501     -0.0026
      8  C23       -3.3010   36.5990   21.1500 C.ar  501  P39501      0.0695
      9  C24       -4.6660   36.6370   21.4480 C.ar  501  P39501     -0.0065
     10  C11       -1.3300   39.8620   15.0570 C.2   501  P39501      0.2663
     11  C34        1.6060   34.9550   25.4500 C.ar  501  P39501      0.0191
     12  C27       -2.7630   35.1910   23.1740 C.ar  501  P39501      0.0750
     13  C33        0.3770   34.2810   25.0320 C.ar  501  P39501      0.0566
     14  N1        -1.7780   36.5650   16.5530 N.ar  501  P39501     -0.2241
     15  N2        -1.8320   35.2570   16.7080 N.ar  501  P39501     -0.1422
     16  C3        -2.2080   34.6090   17.8390 C.ar  501  P39501      0.2211
     17  N4        -2.5160   35.3560   18.9560 N.ar  501  P39501     -0.2043
     18  C5        -2.4580   36.6280   18.8230 C.ar  501  P39501      0.1710
     19  C6        -2.0820   37.3640   17.6620 C.ar  501  P39501      0.1123
     20  C7        -1.9240   38.7700   17.3470 C.ar  501  P39501      0.0046
     21  C8        -1.5390   38.7350   15.9400 C.ar  501  P39501      0.0718
     22  C9        -1.4600   37.3440   15.5180 C.ar  501  P39501      0.1048
     23  C10       -2.1680   40.0650   18.2810 C.3   501  P39501      0.0329
     24  O12       -1.5330   41.0780   15.3650 O.2   501  P39501     -0.2683
     25  N13       -1.0070   39.5390   13.8130 N.am  501  P39501     -0.1989
     26  C14       -0.6260   40.6740   13.0510 C.3   501  P39501      0.1178
     27  N22       -2.8140   37.2500   20.0220 N.pl3 501  P39501     -0.1931
     28  C25       -5.0760   35.9430   22.6320 C.ar  501  P39501     -0.0016
     29  C26       -4.1700   35.2330   23.4870 C.ar  501  P39501      0.0164
     30  C28       -2.4340   35.9090   21.9750 C.ar  501  P39501      0.0328
     31  C29       -5.6490   37.3630   20.5470 C.3   501  P39501      0.0324
     32  N30       -1.8860   34.5260   24.0210 N.am  501  P39501     -0.1754
     33  C31       -0.6110   34.9410   24.0770 C.2   501  P39501      0.2690
     34  O32       -0.0920   35.7840   23.3280 O.2   501  P39501     -0.2680
     35  C35        2.4440   34.3440   26.3030 C.ar  501  P39501      0.0481
     36  C36        2.0730   33.1370   26.7000 C.ar  501  P39501      0.0145
     37  C37        1.0180   32.4280   26.3940 C.ar  501  P39501      0.0014
     38  C38        0.1450   32.9960   25.5360 C.ar  501  P39501      0.0047
     39  N39        3.6130   34.8840   26.7000 N.pl3 501  P39501     -0.3028
     40  C40        3.8250   36.2370   26.3570 C.3   501  P39501      0.1231
     41  C41        5.2620   36.6910   26.7640 C.3   501  P39501      0.1636
     42  O42        6.0890   35.8790   27.5880 O.3   501  P39501     -0.3501
     43  C43        5.5030   34.9030   28.4070 C.3   501  P39501      0.1636
     44  C44        4.6850   34.0590   27.3560 C.3   501  P39501      0.1231
@<TRIPOS>BOND
     1     5     1   ar
     2     5     6   ar
     3     1     2   ar
     4     6     7   ar
     5     2     3   ar
     6     7     3   ar
     7     3    26    1
     8     4    26    1
     9    26    25    1
    10    25    10   am
    11    10    24    2
    12    10    21    1
    13    22    21   ar
    14    22    14   ar
    15    21    20   ar
    16    14    15   ar
    17    14    19   ar
    18    15    16   ar
    19    20    19   ar
    20    20    23    1
    21    19    18   ar
    22    16    17   ar
    23    18    17   ar
    24    18    27    1
    25    27     8    1
    26    31     9    1
    27     8     9   ar
    28     8    30   ar
    29     9    28   ar
    30    30    12   ar
    31    28    29   ar
    32    12    29   ar
    33    12    32    1
    34    34    33    2
    35    32    33   am
    36    33    13    1
    37    13    11   ar
    38    13    38   ar
    39    11    35   ar
    40    38    37   ar
    41    35    36   ar
    42    35    39    1
    43    40    39    1
    44    40    41    1
    45    37    36   ar
    46    39    44    1
    47    41    42    1
    48    44    43    1
    49    42    43    1
