@<TRIPOS>MOLECULE
3bv7_NAP_A_1.pdb
 48 52 0 0 0
SMALL
GASTEIGER

@<TRIPOS>ATOM
      1  PA         6.2150   31.1980  -29.9060 P.3   3901  NAP3901     0.2189
      2  O1A        5.4820   31.9350  -30.8600 O.2   3901  NAP3901    -0.5170
      3  O2A        5.8250   31.3010  -28.4610 O.3   3901  NAP3901    -0.4371
      4  O5B        7.8250   31.6080  -30.0160 O.3   3901  NAP3901    -0.3112
      5  C5B        8.8300   30.8700  -29.9180 C.3   3901  NAP3901     0.1813
      6  C4B       10.2770   31.2970  -30.1370 C.3   3901  NAP3901     0.1820
      7  O4B       10.3760   32.5930  -29.7300 O.3   3901  NAP3901    -0.3136
      8  C3B       11.3940   30.5340  -29.3490 C.3   3901  NAP3901     0.2157
      9  O3B       12.4380   30.2470  -30.2710 O.3   3901  NAP3901    -0.2175
     10  C2B       11.8660   31.5430  -28.3080 C.3   3901  NAP3901     0.2314
     11  O2B       13.2870   31.3990  -28.0170 O.3   3901  NAP3901    -0.2630
     12  C1B       11.6290   32.8440  -29.0540 C.3   3901  NAP3901     0.3158
     13  N9A       11.3730   34.0120  -28.2340 N.pl3 3901  NAP3901    -0.1439
     14  C8A       10.6720   34.0180  -27.0620 C.3   3901  NAP3901     0.3377
     15  N7A       10.5710   35.3000  -26.5730 N.2   3901  NAP3901    -0.2095
     16  C5A       11.2240   36.0380  -27.5050 C.2   3901  NAP3901     0.2526
     17  C6A       11.4840   37.4220  -27.4560 C.2   3901  NAP3901     0.4393
     18  N6A       11.0450   38.2810  -26.5670 N.pl3 3901  NAP3901     0.2180
     19  N1A       12.2850   37.9630  -28.5200 N.2   3901  NAP3901     0.0021
     20  C2A       12.7950   37.1550  -29.5060 C.3   3901  NAP3901     0.5254
     21  N3A       12.5820   35.8270  -29.5030 N.2   3901  NAP3901    -0.0055
     22  C4A       11.7300   35.2370  -28.4990 C.2   3901  NAP3901     0.3518
     23  O3         5.9970   29.6910  -30.2190 O.3   3901  NAP3901    -0.2703
     24  PN         5.5460   28.2810  -29.9290 P.3   3901  NAP3901     0.2189
     25  O1N        5.3280   27.5540  -31.0930 O.2   3901  NAP3901    -0.5170
     26  O2N        6.4240   27.7450  -28.8290 O.3   3901  NAP3901    -0.4371
     27  O5D        4.3420   28.7580  -29.2790 O.3   3901  NAP3901    -0.3112
     28  C5D        3.9400   28.9920  -27.9350 C.3   3901  NAP3901     0.1813
     29  C4D        3.3600   27.8840  -27.1240 C.3   3901  NAP3901     0.1799
     30  O4D        2.0790   27.4930  -27.7030 O.3   3901  NAP3901    -0.3327
     31  C3D        4.1400   26.4970  -27.2100 C.3   3901  NAP3901     0.2158
     32  O3D        5.3990   26.5590  -26.4500 O.3   3901  NAP3901    -0.2175
     33  C2D        3.0340   25.5420  -26.7320 C.3   3901  NAP3901     0.2309
     34  O2D        2.8820   25.6860  -25.2890 O.3   3901  NAP3901    -0.2158
     35  C1D        1.8530   26.0780  -27.5120 C.3   3901  NAP3901     0.2263
     36  N1N        1.5560   25.4910  -28.8520 N.pl3 3901  NAP3901    -0.2787
     37  C2N        0.3550   24.7620  -28.9750 C.3   3901  NAP3901     0.1244
     38  C3N        0.1220   24.0540  -30.1830 C.2   3901  NAP3901     0.0544
     39  C7N       -1.1530   23.2580  -30.3620 C.2   3901  NAP3901     0.2818
     40  O7N       -1.3540   22.6460  -31.4050 O.2   3901  NAP3901    -0.2670
     41  N7N       -1.9920   23.2840  -29.3330 N.am  3901  NAP3901    -0.0839
     42  C4N        1.0830   24.0720  -31.2630 C.2   3901  NAP3901     0.0033
     43  C5N        2.3140   24.8130  -31.1540 C.2   3901  NAP3901     0.0157
     44  C6N        2.5310   25.5090  -29.9610 C.2   3901  NAP3901     0.0633
     45  P2B       13.8230   31.3780  -26.4830 P.3   3901  NAP3901     0.5328
     46  O1X       13.1210   30.2410  -25.7630 O.3   3901  NAP3901    -0.1145
     47  O2X       15.3220   31.1180  -26.6180 O.2   3901  NAP3901    -0.2224
     48  O3X       13.4970   32.7470  -25.8650 O.3   3901  NAP3901    -0.1145
@<TRIPOS>BOND
     1    40    39    2
     2    42    43    1
     3    42    38    2
     4    43    44    2
     5    25    24    2
     6     2     1    2
     7    39    38    1
     8    39    41   am
     9     9     8    1
    10    23    24    1
    11    23     1    1
    12    38    37    1
    13     6     5    1
    14     6     7    1
    15     6     8    1
    16     4     5    1
    17     4     1    1
    18    44    36    1
    19    24    27    1
    20    24    26    1
    21     1     3    1
    22     7    12    1
    23    20    21    1
    24    20    19    1
    25    21    22    2
    26     8    10    1
    27    27    28    1
    28    12    10    1
    29    12    13    1
    30    37    36    1
    31    36    35    1
    32    19    17    2
    33    22    13    1
    34    22    16    1
    35    10    11    1
    36    13    14    1
    37    11    45    1
    38    28    29    1
    39    30    35    1
    40    30    29    1
    41    35    33    1
    42    16    17    1
    43    16    15    2
    44    17    18    1
    45    31    29    1
    46    31    33    1
    47    31    32    1
    48    14    15    1
    49    33    34    1
    50    47    45    2
    51    45    48    1
    52    45    46    1
