@<TRIPOS>MOLECULE
3bv9_III_C_1.pdb
 47 50 0 0 0
SMALL
GASTEIGER

@<TRIPOS>ATOM
      1  N         11.7390   16.6600   12.2050 N.3   401  DAR401     -0.1228
      2  CA        12.2190   17.8200   12.6330 C.3   401  DAR401      0.1722
      3  CB        12.3040   18.9690   11.5750 C.3   401  DAR401      0.0575
      4  CG        10.9970   19.6800   11.3960 C.2   401  DAR401      0.0160
      5  CD         9.6910   19.2600   11.0360 C.2   401  DAR401      0.1886
      6  NE         9.3830   17.7860   11.0730 N.pl3 401  DAR401     -0.0578
      7  CZ         8.3930   17.1820   10.5640 C.cat 401  DAR401      0.5393
      8  NH1        7.4410   17.8480    9.8840 N.pl3 401  DAR401      0.1358
      9  NH2        8.3300   15.8920   10.7060 N.pl3 401  DAR401      0.1358
     10  C         13.6600   17.6060   13.1490 C.2   401  DAR401      0.2437
     11  O         14.3910   16.7870   12.4920 O.2   401  DAR401     -0.2733
     12  N         14.1550   18.2360   14.3540 N.am  402  OIC402     -0.2735
     13  CA        15.6290   18.3080   14.6410 C.3   402  OIC402      0.1520
     14  C         15.6680   16.7870   15.0130 C.2   402  OIC402      0.2440
     15  O         14.8150   16.0880   15.6440 O.2   402  OIC402     -0.2731
     16  CB        15.6620   19.0960   15.8740 C.3   402  OIC402      0.0309
     17  CG        14.8480   20.2470   15.4020 C.3   402  OIC402      0.0204
     18  CD        13.5950   19.5530   14.8370 C.3   402  OIC402      0.0758
     19  C4        14.4890   21.3810   16.4020 C.3   402  OIC402      0.0017
     20  C5        13.5320   20.8730   17.5160 C.3   402  OIC402      0.0001
     21  C6        12.2250   20.3500   16.8910 C.3   402  OIC402      0.0017
     22  C7        12.5250   19.1880   15.9230 C.3   402  OIC402      0.0198
     23  N         16.8510   15.9920   14.5970 N.am  403  PRO403     -0.2716
     24  CA        17.1570   14.5490   14.8280 C.3   403  PRO403      0.1536
     25  C         17.1490   14.3330   16.3830 C.2   403  PRO403      0.2598
     26  O         17.8260   15.0210   17.1960 O.2   403  PRO403     -0.2715
     27  CB        18.4610   14.3690   14.2000 C.3   403  PRO403      0.0310
     28  CG        19.0920   15.6380   13.8150 C.3   403  PRO403      0.0237
     29  CD        17.9600   16.6050   13.8440 C.3   403  PRO403      0.0939
     30  N         16.2500   13.3460   16.6600 N.am  404  DAL404     -0.1964
     31  CA        15.8490   12.8330   17.9400 C.3   404  DAL404      0.1728
     32  CB        16.1530   11.3590   18.2000 C.3   404  DAL404      0.0334
     33  C         15.0450   13.5100   19.0040 C.2   404  DAL404      0.2616
     34  O         15.1260   13.0390   20.2120 O.2   404  DAL404     -0.2715
     35  CA        13.4320   15.2750   19.3650 C.3   405  PHE405      0.1787
     36  CB        13.0520   16.3840   18.5050 C.3   405  PHE405      0.0575
     37  CG        12.0920   17.2960   19.1710 C.ar  405  PHE405     -0.0200
     38  CD2       10.5440   17.2540   18.9290 C.ar  405  PHE405     -0.0045
     39  CD1       12.6250   18.3470   20.1420 C.ar  405  PHE405     -0.0045
     40  CE2        9.5950   18.1810   19.5890 C.ar  405  PHE405     -0.0046
     41  CE1       11.6520   19.3360   20.8520 C.ar  405  PHE405     -0.0046
     42  CZ        10.1340   19.2290   20.5490 C.ar  405  PHE405     -0.0219
     43  C         12.3320   14.2920   19.7620 C.2   405  PHE405      0.2809
     44  C33        9.1640   20.2120   21.2250 C.3   405  PHE405      0.0310
     45  O         11.7600   13.4910   18.9690 O.2   405  PHE405     -0.2698
     46  N         14.3250   14.4920   18.5440 N.am  405  PHE405     -0.1959
     47  N         11.8760   14.2860   21.0670 N.am  406  NH2406     -0.0863
@<TRIPOS>BOND
     1     8     7    1
     2     7     9    1
     3     7     6    2
     4     5     6    1
     5     5     4    2
     6     4     3    1
     7     3     2    1
     8     1     2    1
     9    11    10    2
    10     2    10    1
    11    10    12   am
    12    28    29    1
    13    28    27    1
    14    29    23    1
    15    27    24    1
    16    12    13    1
    17    12    18    1
    18    23    24    1
    19    23    14   am
    20    13    14    1
    21    13    16    1
    22    24    25    1
    23    18    17    1
    24    18    22    1
    25    14    15    2
    26    17    16    1
    27    17    19    1
    28    22    21    1
    29    25    30   am
    30    25    26    2
    31    19    20    1
    32    30    31    1
    33    21    20    1
    34    31    32    1
    35    31    33    1
    36    36    37    1
    37    36    35    1
    38    46    33   am
    39    46    35    1
    40    38    37   ar
    41    38    40   ar
    42    45    43    2
    43    33    34    2
    44    37    39   ar
    45    35    43    1
    46    40    42   ar
    47    43    47   am
    48    39    41   ar
    49    42    41   ar
    50    42    44    1
