@<TRIPOS>MOLECULE
3bvb_017_B_1.pdb
 39 42 0 0 0
SMALL
GASTEIGER

@<TRIPOS>ATOM
      1  N1         8.0340   57.2280   13.7800 N.pl3 401  017401     -0.1281
      2  N1        18.3750   68.6570   20.1750 N.3   401  017401     -0.0749
      3  C2         8.4550   58.4550   14.2740 C.ar  401  017401      0.0892
      4  C3         9.7570   58.9070   14.0660 C.ar  401  017401      0.0194
      5  C4        10.2000   60.1120   14.5510 C.ar  401  017401      0.0213
      6  C5         9.3540   60.9140   15.2930 C.ar  401  017401      0.1223
      7  C6         8.0190   60.5100   15.4740 C.ar  401  017401      0.0213
      8  C7         7.6000   59.2520   15.0290 C.ar  401  017401      0.0194
      9  S8        10.4420   62.2660   15.8340 S.O2  401  017401      0.0634
     10  O9        11.4800   62.4290   14.8370 O.2   401  017401     -0.1528
     11  O10        9.5230   63.3280   16.2310 O.2   401  017401     -0.1528
     12  N11       11.1830   61.7540   17.2860 N.3   401  017401     -0.1529
     13  C12       10.3420   61.5500   18.4840 C.3   401  017401      0.0958
     14  C13       10.7190   62.2700   19.8050 C.3   401  017401      0.0178
     15  C14       10.4990   63.7900   19.5990 C.3   401  017401      0.0015
     16  C15        9.6690   61.7890   20.8300 C.3   401  017401      0.0015
     17  C16       12.5300   61.1070   17.2530 C.3   401  017401      0.1304
     18  C17       13.5730   62.0410   17.9410 C.3   401  017401      0.1898
     19  O18       14.6860   61.3240   18.4980 O.3   401  017401     -0.2197
     20  C19       14.1090   63.1300   17.0060 C.3   401  017401      0.1347
     21  N20       15.0270   63.9890   17.7960 N.am  401  017401     -0.1675
     22  C21       14.7050   65.2870   18.0430 C.2   401  017401      0.4211
     23  O22       13.7070   65.9000   17.6560 O.2   401  017401     -0.2246
     24  O23       15.6850   65.8030   18.8400 O.3   401  017401     -0.4345
     25  C24       15.5860   67.2390   19.1250 C.3   401  017401      0.2063
     26  C25       16.2060   67.4560   20.5090 C.3   401  017401      0.1897
     27  O26       17.6270   67.3850   20.3100 O.3   401  017401     -0.3165
     28  C27       17.9210   67.9290   19.0010 C.3   401  017401      0.2742
     29  O28       18.7560   67.0290   18.3360 O.3   401  017401     -0.3204
     30  C29       18.0690   66.4330   17.2620 C.3   401  017401      0.1464
     31  C30       16.9400   67.4030   16.8700 C.3   401  017401      0.0424
     32  C31       16.5730   68.0030   18.2470 C.3   401  017401      0.1154
     33  C32       14.8840   62.6330   15.7620 C.3   401  017401      0.0508
     34  C33       16.6120   64.2390   14.7830 C.ar  401  017401     -0.0042
     35  C34       17.0310   65.3160   14.0040 C.ar  401  017401     -0.0003
     36  C35       16.0340   66.0110   13.3300 C.ar  401  017401     -0.0000
     37  C36       14.7220   65.5930   13.3960 C.ar  401  017401     -0.0003
     38  C37       14.3230   64.5230   14.1760 C.ar  401  017401     -0.0042
     39  C38       15.3010   63.7860   14.8580 C.ar  401  017401     -0.0204
@<TRIPOS>BOND
     1    36    37   ar
     2    36    35   ar
     3    37    38   ar
     4     1     3    1
     5    35    34   ar
     6     4     3   ar
     7     4     5   ar
     8    38    39   ar
     9     3     8   ar
    10     5     6   ar
    11    34    39   ar
    12    10     9    2
    13    39    33    1
    14     8     7   ar
    15     6     7   ar
    16     6     9    1
    17    33    20    1
    18     9    11    2
    19     9    12    1
    20    31    30    1
    21    31    32    1
    22    20    21    1
    23    20    18    1
    24    17    12    1
    25    17    18    1
    26    30    29    1
    27    12    13    1
    28    23    22    2
    29    21    22   am
    30    18    19    1
    31    22    24    1
    32    32    28    1
    33    32    25    1
    34    29    28    1
    35    13    14    1
    36    24    25    1
    37    28     2    1
    38    28    27    1
    39    25    26    1
    40    15    14    1
    41    14    16    1
    42    27    26    1
