@<TRIPOS>MOLECULE
3bvd_HEM_A_1.pdb
 43 50 0 0 0
SMALL
GASTEIGER

@<TRIPOS>ATOM
      1 FE        -39.5920   16.3810    3.2110 Fe    800  HEM800      0.0000
      2  CHA      -40.5820   19.2820    4.5920 C.2   800  HEM800      0.0000
      3  CHB      -42.8590   15.5330    2.6180 C.2   800  HEM800      0.0000
      4  CHC      -38.6270   13.2120    2.2400 C.2   800  HEM800      0.0000
      5  CHD      -36.2940   17.3240    3.3300 C.2   800  HEM800      0.0000
      6  NA       -41.4170   17.1960    3.6620 N.ar  800  HEM800      0.0000
      7  C1A      -41.5610   18.5240    3.9980 C.ar  800  HEM800      0.0000
      8  C2A      -42.8870   18.9620    3.6130 C.ar  800  HEM800      0.0000
      9  C3A      -43.5150   17.9240    3.0670 C.ar  800  HEM800      0.0000
     10  C4A      -42.6030   16.7960    3.0880 C.ar  800  HEM800      0.0000
     11  CMA      -44.9550   17.9150    2.5080 C.3   800  HEM800      0.0000
     12  CAA      -43.4710   20.3750    3.8000 C.3   800  HEM800      0.0000
     13  CBA      -44.2730   20.4090    5.0940 C.3   800  HEM800      0.0000
     14  CGA      -44.5060   21.8190    5.5690 C.2   800  HEM800      0.0000
     15  O1A      -45.4260   21.9900    6.4070 O.co2 800  HEM800      0.0000
     16  O2A      -43.7900   22.7610    5.1290 O.co2 800  HEM800      0.0000
     17  NB       -40.5550   14.6960    2.5490 N.2   800  HEM800      0.0000
     18  C1B      -41.9210   14.5560    2.3870 C.2   800  HEM800      0.0000
     19  C2B      -42.1930   13.2060    1.9350 C.2   800  HEM800      0.0000
     20  C3B      -41.0300   12.5630    1.8330 C.2   800  HEM800      0.0000
     21  C4B      -39.9740   13.4840    2.2170 C.2   800  HEM800      0.0000
     22  CMB      -43.5850   12.6150    1.6310 C.3   800  HEM800      0.0000
     23  CAB      -40.8500   11.0960    1.3870 C.2   800  HEM800      0.0000
     24  CBB      -41.1890   10.1160    2.2290 C.2   800  HEM800      0.0000
     25  NC       -37.8100   15.4540    2.8260 N.ar  800  HEM800      0.0000
     26  C1C      -37.6290   14.1250    2.4880 C.ar  800  HEM800      0.0000
     27  C2C      -36.2050   13.8550    2.4440 C.ar  800  HEM800      0.0000
     28  C3C      -35.5570   14.9890    2.7430 C.ar  800  HEM800      0.0000
     29  C4C      -36.5550   16.0150    2.9920 C.ar  800  HEM800      0.0000
     30  CMC      -35.5670   12.4890    2.1020 C.3   800  HEM800      0.0000
     31  CAC      -34.0240   15.1880    2.8220 C.2   800  HEM800      0.0000
     32  CBC      -33.2720   15.2450    1.7210 C.2   800  HEM800      0.0000
     33  ND       -38.5770   18.0350    3.8940 N.2   800  HEM800      0.0000
     34  C1D      -37.2110   18.2510    3.7670 C.2   800  HEM800      0.0000
     35  C2D      -36.9150   19.6080    4.1690 C.2   800  HEM800      0.0000
     36  C3D      -38.2550   20.2200    4.5650 C.2   800  HEM800      0.0000
     37  C4D      -39.2290   19.1710    4.3600 C.2   800  HEM800      0.0000
     38  CMD      -35.5550   20.3260    4.2050 C.3   800  HEM800      0.0000
     39  CAD      -38.4900   21.6590    5.0700 C.3   800  HEM800      0.0000
     40  CBD      -38.6170   21.6620    6.5870 C.3   800  HEM800      0.0000
     41  CGD      -38.9790   23.0420    7.0630 C.2   800  HEM800      0.0000
     42  O1D      -38.5790   23.3870    8.2010 O.co2 800  HEM800      0.0000
     43  O2D      -39.6610   23.7960    6.3200 O.co2 800  HEM800      0.0000
@<TRIPOS>BOND
     1    23    20    1
     2    23    24    2
     3    22    19    1
     4    32    31    2
     5    20    19    2
     6    20    21    1
     7    19    18    1
     8    30    27    1
     9    21     4    2
    10    21    17    1
    11     4    26    1
    12    18    17    2
    13    18     3    1
    14    27    26   ar
    15    27    28   ar
    16    26    25   ar
    17    11     9    1
    18    17     1    1
    19     3    10    2
    20    28    31    1
    21    28    29   ar
    22    25    29   ar
    23    25     1    1
    24    29     5    1
    25     9    10   ar
    26     9     8   ar
    27    10     6   ar
    28     1     6    1
    29     1    33    1
    30     5    34    2
    31     8    12    1
    32     8     7   ar
    33     6     7   ar
    34    34    33    1
    35    34    35    1
    36    12    13    1
    37    33    37    2
    38     7     2    2
    39    35    38    1
    40    35    36    2
    41    37    36    1
    42    37     2    1
    43    36    39    1
    44    39    40    1
    45    13    14    1
    46    16    14   ar
    47    14    15   ar
    48    43    41   ar
    49    40    41    1
    50    41    42   ar
