@<TRIPOS>MOLECULE
3bvh_III_G_1.pdb
 30 31 0 0 0
SMALL
GASTEIGER

@<TRIPOS>ATOM
      1  N         42.6290    9.6740   65.9470 N.3     1  GLY1       -0.1210
      2  CA        42.4650    9.8860   67.4100 C.3     1  GLY1        0.1940
      3  C         43.4620   10.8930   67.9460 C.2     1  GLY1        0.2454
      4  O         43.6770   11.9350   67.3250 O.2     1  GLY1       -0.2732
      5  N         44.0840   10.6180   69.1040 N.am    2  PRO2       -0.2717
      6  CA        45.0660   11.5270   69.7030 C.3     2  PRO2        0.1535
      7  C         46.3600   11.5770   68.9040 C.2     2  PRO2        0.2598
      8  O         46.7660   10.5830   68.2950 O.2     2  PRO2       -0.2715
      9  CB        45.2880   10.9360   71.0910 C.3     2  PRO2        0.0310
     10  CG        44.0080   10.2560   71.3770 C.3     2  PRO2        0.0237
     11  CD        43.7060    9.5750   70.0690 C.3     2  PRO2        0.0939
     12  N         47.0070   12.7370   68.9170 N.am    3  ARG3       -0.1964
     13  CA        48.2580   12.9170   68.1950 C.3     3  ARG3        0.1714
     14  C         49.4150   12.8500   69.1850 C.2     3  ARG3        0.2459
     15  O         49.6470   13.7940   69.9450 O.2     3  ARG3       -0.2730
     16  CB        48.2740   14.2720   67.4840 C.3     3  ARG3        0.0347
     17  CG        49.1020   14.2830   66.2100 C.3     3  ARG3        0.0492
     18  CD        48.2540   13.9070   65.0010 C.3     3  ARG3        0.2205
     19  NE        47.4070   12.7410   65.2410 N.pl3   3  ARG3       -0.0865
     20  CZ        46.5340   12.2580   64.3620 C.cat   3  ARG3        0.5346
     21  NH1       46.3920   12.8390   63.1790 N.pl3   3  ARG3        0.1354
     22  NH2       45.7940   11.2010   64.6690 N.pl3   3  ARG3        0.1354
     23  N         50.1540   11.7260   69.1930 N.am    4  PRO4       -0.2699
     24  CA        51.2910   11.5490   70.1010 C.3     4  PRO4        0.1791
     25  C         52.1370   12.8150   70.2320 C.2     4  PRO4        0.3825
     26  O         52.2410   13.3400   71.3650 O.co2   4  PRO4       -0.2438
     27  CB        52.0560   10.3950   69.4610 C.3     4  PRO4        0.0332
     28  CG        50.9460    9.5400   68.9320 C.3     4  PRO4        0.0238
     29  CD        50.0170   10.5630   68.2950 C.3     4  PRO4        0.0940
     30  OXT       52.6750   13.2690   69.1990 O.co2   4  PRO4       -0.2438
@<TRIPOS>BOND
     1    21    20    1
     2    20    22    1
     3    20    19    2
     4    18    19    1
     5    18    17    1
     6     1     2    1
     7    17    16    1
     8     4     3    2
     9     2     3    1
    10    16    13    1
    11     3     5   am
    12    13    12    1
    13    13    14    1
    14    29    28    1
    15    29    23    1
    16     8     7    2
    17     7    12   am
    18     7     6    1
    19    28    27    1
    20     5     6    1
    21     5    11    1
    22    14    23   am
    23    14    15    2
    24    23    24    1
    25    30    25   ar
    26    27    24    1
    27     6     9    1
    28    11    10    1
    29    24    25    1
    30    25    26   ar
    31     9    10    1
