@<TRIPOS>MOLECULE
3bvj_XMP_A_1.pdb
 24 26 0 0 0
SMALL
GASTEIGER

@<TRIPOS>ATOM
      1  P         25.7470  -13.2100   14.5020 P.3   2000  XMP2000     0.5327
      2  O1P       26.3790  -13.9560   15.6420 O.3   2000  XMP2000    -0.1145
      3  O2P       26.7320  -12.7900   13.4550 O.2   2000  XMP2000    -0.2224
      4  O5'       25.3170  -11.8830   15.2970 O.3   2000  XMP2000    -0.2675
      5  O3P       24.4690  -13.7350   13.9150 O.3   2000  XMP2000    -0.1145
      6  C5'       24.8540  -10.7180   14.6500 C.3   2000  XMP2000     0.1859
      7  C4'       24.8140   -9.5980   15.6840 C.3   2000  XMP2000     0.1801
      8  O4'       24.0270   -8.6500   14.9810 O.3   2000  XMP2000    -0.3326
      9  C1'       22.7350   -8.4860   15.6110 C.3   2000  XMP2000     0.2293
     10  N9        21.7990   -8.5370   14.4730 N.pl3 2000  XMP2000    -0.2353
     11  C4        21.1280   -7.4910   13.9860 C.2   2000  XMP2000     0.2316
     12  N3        21.0010   -6.1960   14.3440 N.2   2000  XMP2000    -0.2901
     13  N1        19.5030   -5.6810   12.5690 N.2   2000  XMP2000    -0.2311
     14  C2        20.2260   -5.3190   13.6580 C.1   2000  XMP2000     0.3668
     15  O2        20.1970   -4.1390   14.0700 O.2   2000  XMP2000    -0.1744
     16  C6        19.5840   -6.9650   12.1600 C.1   2000  XMP2000     0.2388
     17  O6        18.9420   -7.3510   11.1800 O.2   2000  XMP2000    -0.2068
     18  C5        20.4180   -7.9430   12.9030 C.2   2000  XMP2000     0.2183
     19  N7        20.7010   -9.2370   12.7240 N.2   2000  XMP2000    -0.2322
     20  C8        21.5640   -9.6070   13.6900 C.3   2000  XMP2000     0.2246
     21  C2'       22.5610   -9.5610   16.6860 C.3   2000  XMP2000     0.2310
     22  O2'       21.9260   -8.9820   17.8510 O.3   2000  XMP2000    -0.2158
     23  C3'       24.0160   -9.9480   16.9370 C.3   2000  XMP2000     0.2158
     24  O3'       24.4980   -9.1690   18.0270 O.3   2000  XMP2000    -0.2175
@<TRIPOS>BOND
     1    17    16    2
     2    16    13    2
     3    16    18    1
     4    13    14    2
     5    19    18    2
     6    19    20    1
     7    18    11    1
     8     3     1    2
     9    14    15    2
    10    14    12    2
    11    20    10    1
    12     5     1    1
    13    11    12    2
    14    11    10    1
    15    10     9    1
    16     1     4    1
    17     1     2    1
    18     6     4    1
    19     6     7    1
    20     8     9    1
    21     8     7    1
    22     9    21    1
    23     7    23    1
    24    21    23    1
    25    21    22    1
    26    23    24    1
