@<TRIPOS>MOLECULE
3bvt_WZ1_A_1.pdb
 24 25 0 0 0
SMALL
GASTEIGER

@<TRIPOS>ATOM
      1  O41       28.5880   63.7460   11.2490 O.3   1050  WZ11050    -0.2194
      2  C41       28.2010   65.0380   11.7790 C.3   1050  WZ11050     0.1941
      3  C51       26.7090   64.9210   12.1710 C.3   1050  WZ11050     0.1818
      4  C61       26.4100   63.9160   13.3080 C.3   1050  WZ11050     0.2141
      5  O61       25.2870   63.0850   12.9570 O.3   1050  WZ11050    -0.2176
      6  O01       26.2260   66.2380   12.5700 O.3   1050  WZ11050    -0.3257
      7  C11       26.2510   67.2390   11.5080 C.3   1050  WZ11050     0.2678
      8  O11       25.5990   66.7860   10.3180 O.3   1050  WZ11050    -0.3259
      9  C71       24.3690   67.5120   10.0630 C.3   1050  WZ11050     0.1769
     10  C21       27.6900   67.4920   11.0360 C.3   1050  WZ11050     0.2203
     11  O21       28.4140   68.2540   12.0090 O.3   1050  WZ11050    -0.2167
     12  C31       28.4380   66.1740   10.7290 C.3   1050  WZ11050     0.1182
     13  S12       30.2130   66.5840   10.4890 S.3   1050  WZ11050    -0.1048
     14  C12       30.7440   65.2860    9.3440 C.3   1050  WZ11050     0.1956
     15  O02       29.9470   65.2990    8.1340 O.3   1050  WZ11050    -0.3398
     16  C52       30.0930   66.4900    7.3260 C.3   1050  WZ11050     0.1820
     17  C62       29.0010   66.4470    6.2660 C.3   1050  WZ11050     0.2142
     18  O62       27.7240   66.6200    6.9550 O.3   1050  WZ11050    -0.2176
     19  C42       31.5030   66.4440    6.7330 C.3   1050  WZ11050     0.2143
     20  O42       31.7000   67.6090    5.9230 O.3   1050  WZ11050    -0.2176
     21  C32       32.5190   66.4390    7.8840 C.3   1050  WZ11050     0.2181
     22  O32       33.7950   66.0690    7.3050 O.3   1050  WZ11050    -0.2175
     23  C22       32.2400   65.3890    8.9800 C.3   1050  WZ11050     0.2219
     24  O22       32.7190   64.0860    8.5730 O.3   1050  WZ11050    -0.2167
@<TRIPOS>BOND
     1    20    19    1
     2    17    18    1
     3    17    16    1
     4    19    16    1
     5    19    21    1
     6    22    21    1
     7    16    15    1
     8    21    23    1
     9    15    14    1
    10    24    23    1
    11    23    14    1
    12    14    13    1
    13     9     8    1
    14     8     7    1
    15    13    12    1
    16    12    10    1
    17    12     2    1
    18    10     7    1
    19    10    11    1
    20     1     2    1
    21     7     6    1
    22     2     3    1
    23     3     6    1
    24     3     4    1
    25     5     4    1
