@<TRIPOS>MOLECULE
3bvu_WZ2_A_1.pdb
 35 37 0 0 0
SMALL
GASTEIGER

@<TRIPOS>ATOM
      1  C51       30.0880   66.6380    7.2560 C.3   1050  WZ21050     0.1835
      2  O01       29.9180   65.4940    8.1550 O.3   1050  WZ21050    -0.3256
      3  C11       30.7380   65.6320    9.3030 C.3   1050  WZ21050     0.2695
      4  O11       30.3670   66.7820   10.0650 O.3   1050  WZ21050    -0.3259
      5  C21       32.2080   65.6890    8.9350 C.3   1050  WZ21050     0.2406
      6  O21       32.5870   64.2840    8.5600 O.3   1050  WZ21050    -0.2149
      7  C31       32.5290   66.5750    7.7190 C.3   1050  WZ21050     0.2198
      8  O31       33.8060   66.1030    7.1880 O.3   1050  WZ21050    -0.2174
      9  C41       31.4790   66.4650    6.6200 C.3   1050  WZ21050     0.2144
     10  O41       31.6420   67.5700    5.6950 O.3   1050  WZ21050    -0.2176
     11  C61       28.9560   66.5230    6.2050 C.3   1050  WZ21050     0.2142
     12  O61       27.7000   66.7500    6.8740 O.3   1050  WZ21050    -0.2176
     13  C52       28.6930   67.6720   11.5140 C.3   1050  WZ21050     0.1785
     14  O02       27.2920   67.5220   11.7620 O.3   1050  WZ21050    -0.3258
     15  C12       26.7700   68.1640   12.9380 C.3   1050  WZ21050     0.2678
     16  O12       27.0780   69.5670   12.9260 O.3   1050  WZ21050    -0.3259
     17  C22       26.2150   70.1450   11.8850 C.3   1050  WZ21050     0.1769
     18  C01       27.3720   67.4920   14.1500 C.3   1050  WZ21050     0.2203
     19  O22       27.0340   66.0810   14.1040 O.3   1050  WZ21050    -0.2167
     20  C32       28.8920   67.6750   14.0820 C.3   1050  WZ21050     0.1182
     21  C42       29.4820   67.2350   12.7540 C.3   1050  WZ21050     0.1940
     22  O42       30.8120   67.7840   12.7040 O.3   1050  WZ21050    -0.2194
     23  C62       28.9520   66.7390   10.3500 C.3   1050  WZ21050     0.1770
     24  C53       28.3150   66.7300   18.1650 C.3   1050  WZ21050     0.1820
     25  O03       28.6450   67.9760   17.5090 O.3   1050  WZ21050    -0.3398
     26  C13       29.8530   67.9270   16.7170 C.3   1050  WZ21050     0.1956
     27  S13       29.7570   66.7150   15.4040 S.3   1050  WZ21050    -0.1048
     28  C23       31.0160   67.5650   17.6040 C.3   1050  WZ21050     0.2219
     29  O23       31.2730   68.5700   18.5820 O.3   1050  WZ21050    -0.2167
     30  C33       30.8040   66.2030   18.2390 C.3   1050  WZ21050     0.2181
     31  O33       31.9060   65.7830   19.0490 O.3   1050  WZ21050    -0.2175
     32  C43       29.5080   66.2800   19.0450 C.3   1050  WZ21050     0.2143
     33  O43       29.1430   65.0410   19.6150 O.3   1050  WZ21050    -0.2176
     34  C63       27.0410   66.8750   18.9650 C.3   1050  WZ21050     0.2142
     35  O63       27.0640   67.7160   19.9760 O.3   1050  WZ21050    -0.2176
@<TRIPOS>BOND
     1    10     9    1
     2    11    12    1
     3    11     1    1
     4     9     1    1
     5     9     7    1
     6     8     7    1
     7     1     2    1
     8     7     5    1
     9     2     3    1
    10     6     5    1
    11     5     3    1
    12     3     4    1
    13     4    23    1
    14    23    13    1
    15    13    14    1
    16    13    21    1
    17    14    15    1
    18    17    16    1
    19    22    21    1
    20    21    20    1
    21    16    15    1
    22    15    18    1
    23    20    18    1
    24    20    27    1
    25    19    18    1
    26    27    26    1
    27    26    25    1
    28    26    28    1
    29    25    24    1
    30    28    30    1
    31    28    29    1
    32    24    34    1
    33    24    32    1
    34    30    32    1
    35    30    31    1
    36    34    35    1
    37    32    33    1
