@<TRIPOS>MOLECULE
3bvv_WZ3_A_1.pdb
 35 37 0 0 0
SMALL
GASTEIGER

@<TRIPOS>ATOM
      1  O21       32.6920   64.1210    8.6080 O.3   1049  WZ31049    -0.2149
      2  C21       32.3670   65.4830    9.0190 C.3   1049  WZ31049     0.2406
      3  C31       32.6620   66.4830    7.8570 C.3   1049  WZ31049     0.2198
      4  O31       33.9130   66.0710    7.2380 O.3   1049  WZ31049    -0.2174
      5  C41       31.5570   66.5060    6.7850 C.3   1049  WZ31049     0.2144
      6  O41       31.7150   67.6080    5.8800 O.3   1049  WZ31049    -0.2176
      7  C51       30.1810   66.5780    7.4770 C.3   1049  WZ31049     0.1835
      8  C61       29.0210   66.5100    6.4910 C.3   1049  WZ31049     0.2142
      9  O61       27.7730   66.6730    7.2020 O.3   1049  WZ31049    -0.2176
     10  O51       30.0140   65.4590    8.3950 O.3   1049  WZ31049    -0.3256
     11  C11       30.9040   65.5310    9.5350 C.3   1049  WZ31049     0.2695
     12  O11       30.6440   66.6940   10.3570 O.3   1049  WZ31049    -0.3255
     13  C32       29.6670   66.6130   11.3870 C.3   1049  WZ31049     0.1858
     14  C42       29.8300   67.6900   12.4790 C.3   1049  WZ31049     0.2111
     15  O42       31.1690   67.8090   12.9570 O.3   1049  WZ31049    -0.2177
     16  C22       28.2560   66.8590   10.8470 C.3   1049  WZ31049     0.2374
     17  O22       28.1330   68.2060   10.3910 O.3   1049  WZ31049    -0.2150
     18  C12       27.2440   66.6430   11.9790 C.3   1049  WZ31049     0.2694
     19  O12       25.9650   66.9730   11.4460 O.3   1049  WZ31049    -0.3259
     20  C72       25.3910   65.7940   10.8920 C.3   1049  WZ31049     0.1769
     21  O52       27.5420   67.5020   13.1160 O.3   1049  WZ31049    -0.3257
     22  C52       28.8690   67.3560   13.6320 C.3   1049  WZ31049     0.1801
     23  C62       29.0210   68.2960   14.8040 C.3   1049  WZ31049     0.1770
     24  O62       29.9200   67.5960   15.6790 O.3   1049  WZ31049    -0.3259
     25  C13       30.1910   68.3400   16.8710 C.3   1049  WZ31049     0.2695
     26  O53       28.9590   68.3550   17.6620 O.3   1049  WZ31049    -0.3274
     27  C53       28.5270   67.0000   18.0170 C.3   1049  WZ31049     0.1623
     28  C63       27.0270   66.9450   18.3750 C.3   1049  WZ31049     0.1009
     29  S63       26.6470   67.4410   20.0720 S.3   1049  WZ31049    -0.0794
     30  C43       29.5620   66.4140   18.9990 C.3   1049  WZ31049     0.2127
     31  O43       29.0010   65.2150   19.5930 O.3   1049  WZ31049    -0.2177
     32  C33       30.8930   66.2680   18.1950 C.3   1049  WZ31049     0.2198
     33  O33       31.9560   65.6150   18.9220 O.3   1049  WZ31049    -0.2174
     34  C23       31.3370   67.6620   17.6590 C.3   1049  WZ31049     0.2406
     35  O23       31.7790   68.5300   18.7230 O.3   1049  WZ31049    -0.2149
@<TRIPOS>BOND
     1     6     5    1
     2     8     9    1
     3     8     7    1
     4     5     7    1
     5     5     3    1
     6     4     3    1
     7     7    10    1
     8     3     2    1
     9    10    11    1
    10     1     2    1
    11     2    11    1
    12    11    12    1
    13    12    13    1
    14    17    16    1
    15    16    13    1
    16    16    18    1
    17    20    19    1
    18    13    14    1
    19    19    18    1
    20    18    21    1
    21    14    15    1
    22    14    22    1
    23    21    22    1
    24    22    23    1
    25    23    24    1
    26    24    25    1
    27    25    34    1
    28    25    26    1
    29    34    32    1
    30    34    35    1
    31    26    27    1
    32    27    28    1
    33    27    30    1
    34    32    33    1
    35    32    30    1
    36    28    29    1
    37    30    31    1
