@<TRIPOS>MOLECULE
3bw2_FMN_A_1.pdb
 31 33 0 0 0
SMALL
GASTEIGER

@<TRIPOS>ATOM
      1  N1        58.8010  134.2540  -59.4280 N.2   370  FMN370     -0.2887
      2  C2        58.8680  134.5320  -60.8040 C.1   370  FMN370      0.3669
      3  O2        58.4100  135.5840  -61.2420 O.2   370  FMN370     -0.1744
      4  N3        59.4400  133.6250  -61.6810 N.2   370  FMN370     -0.2300
      5  C4        59.9630  132.4110  -61.2660 C.1   370  FMN370      0.2513
      6  O4        60.4610  131.6260  -62.0940 O.2   370  FMN370     -0.2057
      7  C4A       59.8930  132.1020  -59.8800 C.2   370  FMN370      0.2703
      8  N5        60.3750  130.8880  -59.3960 N.2   370  FMN370     -0.3885
      9  C5A       60.2890  130.5500  -58.0430 C.2   370  FMN370      0.1233
     10  C6        60.7730  129.2910  -57.6030 C.3   370  FMN370      0.0606
     11  C7        60.7060  128.8810  -56.2260 C.3   370  FMN370      0.0111
     12  C7M       60.4910  127.3590  -56.0470 C.3   370  FMN370      0.0008
     13  C8        60.0740  129.8250  -55.3350 C.3   370  FMN370      0.0238
     14  C8M       59.2860  129.4000  -54.0960 C.3   370  FMN370      0.0047
     15  C9        59.6040  131.1090  -55.7580 C.2   370  FMN370     -0.0093
     16  C9A       59.7050  131.4760  -57.1210 C.2   370  FMN370      0.0750
     17  N10       59.2310  132.7280  -57.5970 N.pl3 370  FMN370     -0.2548
     18  C10       59.3070  133.0450  -58.9700 C.2   370  FMN370      0.2449
     19  C1'       58.7760  133.8130  -56.6180 C.3   370  FMN370      0.1336
     20  C2'       57.2270  133.7830  -56.5770 C.3   370  FMN370      0.2048
     21  O2'       56.7280  134.5300  -57.6760 O.3   370  FMN370     -0.2185
     22  C3'       56.6440  134.4460  -55.2820 C.3   370  FMN370      0.2165
     23  O3'       57.1470  135.7820  -55.2530 O.3   370  FMN370     -0.2175
     24  C4'       57.0430  133.7470  -53.9720 C.3   370  FMN370      0.2147
     25  O4'       56.8470  132.3440  -54.1500 O.3   370  FMN370     -0.2176
     26  C5'       56.1710  134.2570  -52.7860 C.3   370  FMN370      0.1892
     27  O5'       56.5230  133.6090  -51.5310 O.3   370  FMN370     -0.2674
     28  P         55.9310  132.2050  -50.9370 P.3   370  FMN370      0.5327
     29  O1P       54.6360  132.5600  -51.5860 O.3   370  FMN370     -0.1145
     30  O2P       56.4120  132.8290  -49.6400 O.3   370  FMN370     -0.1145
     31  O3P       56.9730  131.5510  -51.8250 O.2   370  FMN370     -0.2224
@<TRIPOS>BOND
     1     6     5    2
     2     4     5    2
     3     4     2    2
     4     5     7    1
     5     3     2    2
     6     2     1    2
     7     7     8    2
     8     7    18    1
     9     1    18    2
    10     8     9    2
    11    18    17    1
    12     9    10    1
    13     9    16    1
    14    21    20    1
    15    10    11    1
    16    17    16    1
    17    17    19    1
    18    16    15    2
    19    19    20    1
    20    20    22    1
    21    11    12    1
    22    11    13    1
    23    15    13    1
    24    13    14    1
    25    22    23    1
    26    22    24    1
    27    25    24    1
    28    24    26    1
    29    26    27    1
    30    31    28    2
    31    29    28    1
    32    27    28    1
    33    28    30    1
