@<TRIPOS>MOLECULE
3bw3_FMN_A_1.pdb
 31 33 0 0 0
SMALL
GASTEIGER

@<TRIPOS>ATOM
      1  N1         2.3130   77.8430  -59.3120 N.2   370  FMN370     -0.2887
      2  C2         2.4190   78.1410  -60.6720 C.1   370  FMN370      0.3669
      3  O2         1.9490   79.1930  -61.1010 O.2   370  FMN370     -0.1744
      4  N3         3.0430   77.2580  -61.5410 N.2   370  FMN370     -0.2300
      5  C4         3.5780   76.0510  -61.1210 C.1   370  FMN370      0.2513
      6  O4         4.1200   75.2900  -61.9390 O.2   370  FMN370     -0.2057
      7  C4A        3.4680   75.7240  -59.7420 C.2   370  FMN370      0.2703
      8  N5         3.9570   74.5140  -59.2460 N.2   370  FMN370     -0.3885
      9  C5A        3.8240   74.1680  -57.8960 C.2   370  FMN370      0.1233
     10  C6         4.3130   72.9180  -57.4380 C.3   370  FMN370      0.0606
     11  C7         4.1940   72.5090  -56.0630 C.3   370  FMN370      0.0111
     12  C7M        3.9840   70.9860  -55.8870 C.3   370  FMN370      0.0008
     13  C8         3.5090   73.4430  -55.1980 C.3   370  FMN370      0.0238
     14  C8M        2.6760   73.0080  -53.9910 C.3   370  FMN370      0.0047
     15  C9         3.0360   74.7150  -55.6410 C.2   370  FMN370     -0.0093
     16  C9A        3.1860   75.0820  -56.9960 C.2   370  FMN370      0.0750
     17  N10        2.7080   76.3250  -57.4880 N.pl3 370  FMN370     -0.2548
     18  C10        2.8280   76.6460  -58.8490 C.2   370  FMN370      0.2449
     19  C1'        2.2270   77.4130  -56.5230 C.3   370  FMN370      0.1336
     20  C2'        0.6820   77.3850  -56.4860 C.3   370  FMN370      0.2048
     21  O2'        0.1800   78.1260  -57.5910 O.3   370  FMN370     -0.2185
     22  C3'        0.1000   78.0590  -55.1940 C.3   370  FMN370      0.2165
     23  O3'        0.5900   79.4020  -55.1910 O.3   370  FMN370     -0.2175
     24  C4'        0.5070   77.3770  -53.8690 C.3   370  FMN370      0.2147
     25  O4'        0.3930   75.9580  -54.0390 O.3   370  FMN370     -0.2176
     26  C5'       -0.4170   77.8500  -52.7080 C.3   370  FMN370      0.1892
     27  O5'       -0.0710   77.2350  -51.4420 O.3   370  FMN370     -0.2674
     28  P         -0.6620   75.8350  -50.8080 P.3   370  FMN370      0.5327
     29  O1P       -1.9780   76.1830  -51.4380 O.3   370  FMN370     -0.1145
     30  O2P       -0.1240   76.4940  -49.5620 O.3   370  FMN370     -0.1145
     31  O3P        0.3450   75.1440  -51.7180 O.2   370  FMN370     -0.2224
@<TRIPOS>BOND
     1     6     5    2
     2     4     5    2
     3     4     2    2
     4     5     7    1
     5     3     2    2
     6     2     1    2
     7     7     8    2
     8     7    18    1
     9     1    18    2
    10     8     9    2
    11    18    17    1
    12     9    10    1
    13     9    16    1
    14    21    20    1
    15    17    16    1
    16    17    19    1
    17    10    11    1
    18    16    15    2
    19    19    20    1
    20    20    22    1
    21    11    12    1
    22    11    13    1
    23    15    13    1
    24    13    14    1
    25    22    23    1
    26    22    24    1
    27    25    24    1
    28    24    26    1
    29    26    27    1
    30    31    28    2
    31    27    28    1
    32    29    28    1
    33    28    30    1
