@<TRIPOS>MOLECULE
3bw4_FMN_A_1.pdb
 31 33 0 0 0
SMALL
GASTEIGER

@<TRIPOS>ATOM
      1  N1       -54.4370   21.1370  -59.2190 N.2   370  FMN370     -0.2887
      2  C2       -54.3510   21.3970  -60.5900 C.1   370  FMN370      0.3669
      3  O2       -54.8050   22.4480  -61.0390 O.2   370  FMN370     -0.1744
      4  N3       -53.7670   20.4780  -61.4500 N.2   370  FMN370     -0.2300
      5  C4       -53.2470   19.2700  -61.0060 C.1   370  FMN370      0.2513
      6  O4       -52.7360   18.4690  -61.8110 O.2   370  FMN370     -0.2057
      7  C4A      -53.3340   18.9860  -59.6170 C.2   370  FMN370      0.2703
      8  N5       -52.8530   17.7840  -59.1040 N.2   370  FMN370     -0.3885
      9  C5A      -52.9590   17.4700  -57.7480 C.2   370  FMN370      0.1233
     10  C6       -52.4740   16.2220  -57.2790 C.3   370  FMN370      0.0606
     11  C7       -52.5640   15.8340  -55.8940 C.3   370  FMN370      0.0111
     12  C7M      -52.7660   14.3170  -55.6920 C.3   370  FMN370      0.0008
     13  C8       -53.2200   16.7890  -55.0310 C.3   370  FMN370      0.0238
     14  C8M      -54.0280   16.3770  -53.7990 C.3   370  FMN370      0.0047
     15  C9       -53.6890   18.0640  -55.4850 C.2   370  FMN370     -0.0093
     16  C9A      -53.5630   18.4100  -56.8510 C.2   370  FMN370      0.0750
     17  N10      -54.0340   19.6520  -57.3580 N.pl3 370  FMN370     -0.2548
     18  C10      -53.9360   19.9420  -58.7340 C.2   370  FMN370      0.2449
     19  C1'      -54.4940   20.7640  -56.4050 C.3   370  FMN370      0.1336
     20  C2'      -56.0440   20.7350  -56.3750 C.3   370  FMN370      0.2048
     21  O2'      -56.5330   21.4930  -57.4720 O.3   370  FMN370     -0.2185
     22  C3'      -56.6420   21.3750  -55.0700 C.3   370  FMN370      0.2165
     23  O3'      -56.1470   22.7130  -54.9980 O.3   370  FMN370     -0.2175
     24  C4'      -56.2460   20.6630  -53.7720 C.3   370  FMN370      0.2147
     25  O4'      -56.3950   19.2560  -53.9630 O.3   370  FMN370     -0.2176
     26  C5'      -57.1630   21.1300  -52.6100 C.3   370  FMN370      0.1892
     27  O5'      -56.8200   20.4880  -51.3620 O.3   370  FMN370     -0.2674
     28  P        -57.3520   19.0530  -50.7840 P.3   370  FMN370      0.5327
     29  O1P      -56.2900   18.4490  -51.6480 O.2   370  FMN370     -0.2224
     30  O2P      -58.6830   19.5240  -51.2910 O.3   370  FMN370     -0.1145
     31  O3P      -56.8800   19.6210  -49.4460 O.3   370  FMN370     -0.1145
@<TRIPOS>BOND
     1     6     5    2
     2     4     5    2
     3     4     2    2
     4     3     2    2
     5     5     7    1
     6     2     1    2
     7     7     8    2
     8     7    18    1
     9     1    18    2
    10     8     9    2
    11    18    17    1
    12     9    10    1
    13     9    16    1
    14    21    20    1
    15    17    16    1
    16    17    19    1
    17    10    11    1
    18    16    15    2
    19    19    20    1
    20    20    22    1
    21    11    12    1
    22    11    13    1
    23    15    13    1
    24    22    23    1
    25    22    24    1
    26    13    14    1
    27    25    24    1
    28    24    26    1
    29    26    27    1
    30    29    28    2
    31    27    28    1
    32    30    28    1
    33    28    31    1
