@<TRIPOS>MOLECULE
3bw7_301_A_1.pdb
 15 16 0 0 0
SMALL
GASTEIGER

@<TRIPOS>ATOM
      1  C15       37.2510    3.3420    1.5880 C.3   1536  3011536     0.0304
      2  C14       36.3000    3.0240    2.7440 C.2   1536  3011536    -0.0299
      3  C13       36.3100    3.7820    3.9100 C.2   1536  3011536    -0.0219
      4  C12       37.1020    4.9260    3.9670 C.3   1536  3011536     0.1031
      5  C11       36.6600    6.1430    3.4580 C.2   1536  3011536     0.2139
      6  N1        35.8420    8.4730    2.3930 N.2   1536  3011536    -0.0283
      7  C2        35.4430    9.6120    1.8540 C.3   1536  3011536     0.4008
      8  N3        35.9930   10.7670    2.1860 N.2   1536  3011536    -0.1640
      9  C4        36.9820   10.8120    3.0900 C.1   1536  3011536     0.0580
     10  C5        37.4260    9.6360    3.6770 C.2   1536  3011536     0.2281
     11  C6        36.8270    8.4390    3.3030 C.2   1536  3011536     0.3996
     12  N10       37.2290    7.2800    3.8210 N.2   1536  3011536    -0.0334
     13  N7        38.3980    9.9620    4.5240 N.2   1536  3011536    -0.2266
     14  C8        38.5640   11.2810    4.4750 C.3   1536  3011536     0.2618
     15  N9        37.7040   11.8040    3.6040 N.2   1536  3011536    -0.1914
@<TRIPOS>BOND
     1     1     2    1
     2     7     8    1
     3     7     6    1
     4     8     9    2
     5     6    11    2
     6     2     3    2
     7     9    15    2
     8     9    10    1
     9    11    10    1
    10    11    12    1
    11     5    12    2
    12     5     4    1
    13    15    14    1
    14    10    13    2
    15     3     4    1
    16    14    13    1
