@<TRIPOS>MOLECULE
3bwc_SAM_A_1.pdb
 27 29 0 0 0
SMALL
GASTEIGER

@<TRIPOS>ATOM
      1  N          2.7250   53.4570   60.7050 N.3   501  SAM501     -0.1208
      2  CA         3.9000   54.0210   59.9800 C.3   501  SAM501      0.1952
      3  C          4.4410   52.9960   58.9790 C.2   501  SAM501      0.3819
      4  O          5.6400   52.9320   58.7030 O.co2 501  SAM501     -0.2441
      5  OXT        3.6840   52.2050   58.4110 O.co2 501  SAM501     -0.2441
      6  CB         4.9680   54.4710   60.9830 C.3   501  SAM501      0.0414
      7  CG         5.6820   55.7770   60.6370 C.3   501  SAM501      0.0503
      8  SD         5.5420   57.0300   61.9380 S.3   501  SAM501     -0.1761
      9  CE         4.6120   58.3390   61.1040 C.3   501  SAM501      0.0590
     10  C5'        7.2250   57.7010   61.9780 C.3   501  SAM501      0.0806
     11  C4'        7.4070   58.6960   63.1220 C.3   501  SAM501      0.1622
     12  O4'        8.7120   58.6130   63.6660 O.3   501  SAM501     -0.3153
     13  C3'        7.1910   60.1410   62.6860 C.3   501  SAM501      0.2168
     14  O3'        6.0280   60.6620   63.2880 O.3   501  SAM501     -0.2175
     15  C2'        8.4380   60.8850   63.1300 C.3   501  SAM501      0.2569
     16  O2'        8.1320   62.0940   63.7840 O.3   501  SAM501     -0.2130
     17  C1'        9.1330   59.9020   64.0630 C.3   501  SAM501      0.3185
     18  N9        10.6020   60.0420   64.0410 N.pl3 501  SAM501     -0.1439
     19  C8        11.4290   60.1930   62.9580 C.3   501  SAM501      0.3377
     20  N7        12.7030   60.2910   63.4040 N.2   501  SAM501     -0.2095
     21  C5        12.7040   60.2060   64.7510 C.2   501  SAM501      0.2526
     22  C6        13.7190   60.2470   65.7060 C.2   501  SAM501      0.4393
     23  N6        14.9910   60.3950   65.3520 N.pl3 501  SAM501      0.2180
     24  N1        13.3940   60.1300   67.0400 N.2   501  SAM501      0.0021
     25  C2        12.0790   59.9750   67.4330 C.3   501  SAM501      0.5254
     26  N3        11.0790   59.9360   66.4810 N.2   501  SAM501     -0.0055
     27  C4        11.3870   60.0510   65.1630 C.2   501  SAM501      0.3518
@<TRIPOS>BOND
     1     5     3   ar
     2     4     3   ar
     3     3     2    1
     4     2     1    1
     5     2     6    1
     6     7     6    1
     7     7     8    1
     8     9     8    1
     9     8    10    1
    10    10    11    1
    11    13    11    1
    12    13    15    1
    13    13    14    1
    14    19    20    1
    15    19    18    1
    16    11    12    1
    17    15    16    1
    18    15    17    1
    19    20    21    2
    20    12    17    1
    21    18    17    1
    22    18    27    1
    23    21    27    1
    24    21    22    1
    25    27    26    2
    26    23    22    1
    27    22    24    2
    28    26    25    1
    29    24    25    1
