@<TRIPOS>MOLECULE
3bwd_GDP_D_1.pdb
 28 30 0 0 0
SMALL
GASTEIGER

@<TRIPOS>ATOM
      1  PB        15.1280    6.3720   16.0910 P.3   200  GDP200      0.5373
      2  O1B       13.8130    6.0430   15.6010 O.3   200  GDP200     -0.1143
      3  O2B       15.9180    6.8660   15.0550 O.2   200  GDP200     -0.2221
      4  O3B       15.0550    7.3780   17.1970 O.3   200  GDP200     -0.1143
      5  O3A       15.7570    5.0200   16.7210 O.3   200  GDP200     -0.2261
      6  PA        17.2960    4.4780   16.6290 P.3   200  GDP200      0.2231
      7  O1A       17.5310    3.9300   15.3280 O.2   200  GDP200     -0.5169
      8  O2A       18.3050    5.4740   17.0320 O.3   200  GDP200     -0.4370
      9  O5'       17.2090    3.3020   17.6240 O.3   200  GDP200     -0.3111
     10  C5'       16.7990    3.4830   18.9470 C.3   200  GDP200      0.1813
     11  C4'       17.2030    2.2920   19.8260 C.3   200  GDP200      0.1799
     12  O4'       16.5770    1.1020   19.4800 O.3   200  GDP200     -0.3326
     13  C3'       18.6800    2.0650   19.8210 C.3   200  GDP200      0.2158
     14  O3'       19.0520    1.7380   21.1410 O.3   200  GDP200     -0.2175
     15  C2'       18.7790    0.8390   18.9770 C.3   200  GDP200      0.2310
     16  O2'       19.9030    0.0370   19.1350 O.3   200  GDP200     -0.2158
     17  C1'       17.5170    0.1120   19.2090 C.3   200  GDP200      0.2293
     18  N9        17.0640   -0.5990   18.0340 N.pl3 200  GDP200     -0.2354
     19  C8        16.7610   -0.0960   16.8390 C.3   200  GDP200      0.2246
     20  N7        16.2770   -1.0230   15.9960 N.2   200  GDP200     -0.2322
     21  C5        16.2940   -2.1640   16.6830 C.2   200  GDP200      0.2182
     22  C6        15.9700   -3.5370   16.3950 C.1   200  GDP200      0.2372
     23  O6        15.5410   -3.9420   15.3490 O.2   200  GDP200     -0.2069
     24  N1        16.1410   -4.3800   17.4040 N.2   200  GDP200     -0.2485
     25  C2        16.5860   -4.0540   18.6090 C.1   200  GDP200      0.2531
     26  N2        16.6780   -5.0670   19.5050 N.pl3 200  GDP200     -0.0226
     27  N3        16.9220   -2.8310   18.9580 N.2   200  GDP200     -0.3074
     28  C4        16.7770   -1.8700   18.0280 C.2   200  GDP200      0.2300
@<TRIPOS>BOND
     1     3     1    2
     2     7     6    2
     3    23    22    2
     4     2     1    1
     5    20    21    2
     6    20    19    1
     7     1     5    1
     8     1     4    1
     9    22    21    1
    10    22    24    2
    11     6     5    1
    12     6     8    1
    13     6     9    1
    14    21    28    1
    15    19    18    1
    16    24    25    2
    17     9    10    1
    18    28    18    1
    19    28    27    2
    20    18    17    1
    21    25    27    2
    22    25    26    1
    23    10    11    1
    24    15    16    1
    25    15    17    1
    26    15    13    1
    27    17    12    1
    28    12    11    1
    29    13    11    1
    30    13    14    1
