@<TRIPOS>MOLECULE
3bwf_DWC_A_1.pdb
 31 37 0 0 0
SMALL
GASTEIGER

@<TRIPOS>ATOM
      1  O9        21.4310  -40.5260    0.7200 O.2   315  DWC315      0.0000
      2  C1        20.6120  -39.5920    0.8160 C.1   315  DWC315      0.0000
      3  C2        20.0610  -38.8480   -0.2140 C.ar  315  DWC315      0.0000
      4  C3        20.2310  -38.9350   -1.6280 C.ar  315  DWC315      0.0000
      5  C4        21.0640  -39.8200   -2.3450 C.2   315  DWC315      0.0000
      6  C5        21.1200  -39.7620   -3.7560 C.2   315  DWC315      0.0000
      7  C6        20.3350  -38.8340   -4.4700 C.2   315  DWC315      0.0000
      8  C7        19.5040  -38.0470   -2.4090 C.ar  315  DWC315      0.0000
      9  N21       19.5510  -37.9580   -3.8030 N.pl3 315  DWC315      0.0000
     10  C22       18.6490  -37.1450   -1.7840 C.ar  315  DWC315      0.0000
     11  N19       17.9390  -36.2710   -2.5450 N.pl3 315  DWC315      0.0000
     12 OS         18.2330  -36.5540   -4.6190 Os    315  DWC315      0.0000
     13  C17       16.0570  -36.6120   -4.9800 C.2   315  DWC315      0.0000
     14  C16       16.6390  -37.8660   -5.4010 C.2   315  DWC315      0.0000
     15  C14       17.5770  -37.5910   -6.4560 C.2   315  DWC315      0.0000
     16  C13       17.5730  -36.1750   -6.6770 C.3   315  DWC315      0.0000
     17  C12       16.6410  -35.5700   -5.7680 C.2   315  DWC315      0.0000
     18  C10       19.5000  -35.1790   -4.7110 C.3   315  DWC315      0.0000
     19  O11       20.2600  -34.3710   -4.7880 O.3   315  DWC315      0.0000
     20  N20       20.1150  -39.1530    2.0310 N.2   315  DWC315      0.0000
     21  C31       19.2320  -38.1350    1.7810 C.1   315  DWC315      0.0000
     22  O8        18.6390  -37.5500    2.6790 O.2   315  DWC315      0.0000
     23  C30       19.1720  -37.9140    0.4020 C.ar  315  DWC315      0.0000
     24  C29       18.4460  -37.0060   -0.4170 C.ar  315  DWC315      0.0000
     25  C28       17.5270  -35.9680   -0.2910 C.2   315  DWC315      0.0000
     26  C23       17.2140  -35.5450   -1.6100 C.3   315  DWC315      0.0000
     27  C24       16.2820  -34.5310   -1.8350 C.2   315  DWC315      0.0000
     28  C25       15.7040  -33.8940   -0.7380 C.2   315  DWC315      0.0000
     29  C26       15.9880  -34.2990    0.5890 C.2   315  DWC315      0.0000
     30  O15       15.3620  -33.6850    1.6440 O.2   315  DWC315      0.0000
     31  C27       16.8970  -35.3650    0.8120 C.2   315  DWC315      0.0000
@<TRIPOS>BOND
     1    16    15    1
     2    16    17    1
     3    16    12    1
     4    15    14    2
     5    17    13    2
     6    14    13    1
     7    19    18    1
     8    18    12    1
     9    12     9    1
    10    12    11    1
    11     7     9    1
    12     7     6    2
    13     9     8    1
    14     6     5    1
    15    11    10    1
    16    11    26    1
    17     8    10   ar
    18     8     4   ar
    19     5     4    2
    20    27    26    1
    21    27    28    2
    22    10    24   ar
    23     4     3   ar
    24    26    25    1
    25    28    29    1
    26    24    25    2
    27    24    23   ar
    28    25    31    1
    29     3    23   ar
    30     3     2    1
    31    23    21    1
    32    29    31    2
    33    29    30    1
    34     1     2    2
    35     2    20    2
    36    21    20    2
    37    21    22    2
