@<TRIPOS>MOLECULE
3bwh_MAN_A_1.pdb
 11 11 0 0 0
SMALL
GASTEIGER

@<TRIPOS>ATOM
      1  C1        33.9180   -5.3200   42.7410 C.3   249  MAN249      0.1777
      2  C2        33.6710   -6.7910   42.4200 C.3   249  MAN249      0.2141
      3  C3        33.9140   -7.0680   40.9340 C.3   249  MAN249      0.2173
      4  C4        33.0310   -6.1560   40.0840 C.3   249  MAN249      0.2142
      5  C5        33.2430   -4.7050   40.5000 C.3   249  MAN249      0.1810
      6  C6        32.1930   -3.8530   39.8220 C.3   249  MAN249      0.2141
      7  O2        32.3260   -7.1370   42.7640 O.3   249  MAN249     -0.2176
      8  O3        33.6540   -8.4450   40.6150 O.3   249  MAN249     -0.2175
      9  O4        33.3900   -6.2670   38.7100 O.3   249  MAN249     -0.2176
     10  O5        33.0780   -4.5150   41.9130 O.3   249  MAN249     -0.3481
     11  O6        32.5990   -2.4820   39.8860 O.3   249  MAN249     -0.2176
@<TRIPOS>BOND
     1     9     4    1
     2     6    11    1
     3     6     5    1
     4     4     5    1
     5     4     3    1
     6     5    10    1
     7     8     3    1
     8     3     2    1
     9    10     1    1
    10     2     1    1
    11     2     7    1
