@<TRIPOS>MOLECULE
3bwh_NAG_A_1.pdb
 14 14 0 0 0
SMALL
GASTEIGER

@<TRIPOS>ATOM
      1  C1        38.9200    8.1260   44.9240 C.3   246  NAG246      0.1665
      2  C2        39.5410    7.6470   46.2260 C.3   246  NAG246      0.1576
      3  C3        40.1020    6.2250   46.1890 C.3   246  NAG246      0.2069
      4  C4        39.1740    5.2560   45.4520 C.3   246  NAG246      0.2134
      5  C5        38.9850    5.8530   44.0800 C.3   246  NAG246      0.1809
      6  C6        38.0640    4.9130   43.3160 C.3   246  NAG246      0.2141
      7  C7        40.8330    9.5280   47.0930 C.2   246  NAG246      0.2420
      8  C8        39.6920    9.7800   48.0190 C.3   246  NAG246      0.0964
      9  N2        40.7140    8.5000   46.2580 N.am  246  NAG246     -0.2019
     10  O3        40.4260    5.7930   47.5200 O.3   246  NAG246     -0.2184
     11  O4        39.7320    3.9520   45.1880 O.3   246  NAG246     -0.2176
     12  O5        38.3540    7.1250   44.1180 O.3   246  NAG246     -0.3489
     13  O6        38.4450    5.0500   41.9510 O.3   246  NAG246     -0.2176
     14  O7        41.8340   10.2370   47.0860 O.2   246  NAG246     -0.2733
@<TRIPOS>BOND
     1    13     6    1
     2     6     5    1
     3     5    12    1
     4     5     4    1
     5    12     1    1
     6     1     2    1
     7    11     4    1
     8     4     3    1
     9     3     2    1
    10     3    10    1
    11     2     9    1
    12     9     7   am
    13    14     7    2
    14     7     8    1
