@<TRIPOS>MOLECULE
3bwj_ARX_A_1.pdb
 50 52 0 0 0
SMALL
GASTEIGER

@<TRIPOS>ATOM
      1  N1        23.1710   26.3690    7.5560 N.2   351  ARX351      0.0021
      2  C2        24.0430   27.3810    7.6620 C.3   351  ARX351      0.5254
      3  N3        25.3550   27.2370    7.9450 N.2   351  ARX351     -0.0055
      4  C4        25.8840   26.0060    8.1280 C.2   351  ARX351      0.3518
      5  C5        25.0130   24.8410    8.0200 C.2   351  ARX351      0.2526
      6  C6        23.5810   25.0690    7.7130 C.2   351  ARX351      0.4393
      7  N6        22.7430   23.9950    7.6090 N.pl3 351  ARX351      0.2180
      8  N7        25.7800   23.7630    8.2720 N.2   351  ARX351     -0.2095
      9  C8        27.0270   24.1860    8.5130 C.3   351  ARX351      0.3377
     10  N9        27.0960   25.5190    8.4280 N.pl3 351  ARX351     -0.1438
     11  O5'       29.6630   22.8450    9.4920 O.2   351  ARX351     -0.2706
     12  O3'       29.9640   26.1520   11.9030 O.3   351  ARX351     -0.2170
     13  O2'       29.0070   27.9100   10.1370 O.3   351  ARX351     -0.2130
     14  O4'       29.4840   25.5210    8.3440 O.3   351  ARX351     -0.3067
     15  C5'       30.5390   23.7150    9.5380 C.2   351  ARX351      0.2714
     16  C3'       29.2820   25.6030   10.7420 C.3   351  ARX351      0.2249
     17  C2'       28.3910   26.6480   10.1030 C.3   351  ARX351      0.2574
     18  C4'       30.1970   25.1850    9.5590 C.3   351  ARX351      0.2293
     19  C1'       28.3280   26.3210    8.6350 C.3   351  ARX351      0.3190
     20  C26       35.7640   19.7640    7.6010 C.2   351  ARX351      0.2418
     21  O28       36.7260   20.1060    6.9220 O.2   351  ARX351     -0.2733
     22  C25       34.4010   19.7650    6.9550 C.3   351  ARX351      0.0868
     23  C24       34.0940   21.1600    6.4050 C.3   351  ARX351      0.0097
     24  C23       33.5710   22.0920    7.4870 C.3   351  ARX351      0.0023
     25  C22       32.4400   21.4350    8.2830 C.3   351  ARX351      0.0234
     26  C21       32.2310   22.0290    9.6720 C.3   351  ARX351      0.1152
     27  N20       31.8460   23.4180    9.5940 N.am  351  ARX351     -0.2033
     28  N27       35.8270   19.3740    8.8720 N.am  351  ARX351     -0.1978
     29  C29       37.0350   19.3320    9.6920 C.3   351  ARX351      0.1728
     30  C37       36.8030   18.3720   10.8750 C.3   351  ARX351      0.0348
     31  C38       38.0340   18.0830   11.7410 C.3   351  ARX351      0.0492
     32  C39       38.0240   18.8420   13.0850 C.3   351  ARX351      0.2205
     33  N40       37.4000   18.1340   14.2020 N.pl3 351  ARX351     -0.0865
     34  C41       36.1530   18.3920   14.6260 C.cat 351  ARX351      0.5346
     35  N43       35.9590   19.0230   15.7930 N.pl3 351  ARX351      0.1354
     36  N42       35.1530   18.0260   13.9310 N.pl3 351  ARX351      0.1354
     37  C30       37.3900   20.7160   10.1890 C.2   351  ARX351      0.2616
     38  O35       38.5710   21.0280   10.3210 O.2   351  ARX351     -0.2715
     39  N31       36.3500   21.5330   10.4370 N.am  351  ARX351     -0.1963
     40  C32       36.1130   22.5140   11.5270 C.3   351  ARX351      0.1745
     41  C78       36.7070   23.9100   11.2190 C.3   351  ARX351      0.0349
     42  C79       38.2280   23.9250   11.0120 C.3   351  ARX351      0.0492
     43  C85       38.7890   25.3250   10.7680 C.3   351  ARX351      0.2205
     44  N77       40.0010   25.3040    9.9650 N.pl3 351  ARX351     -0.0865
     45  C86       40.2690   26.2090    9.0070 C.cat 351  ARX351      0.5346
     46  N93       40.2770   27.4440    9.2820 N.pl3 351  ARX351      0.1354
     47  N94       40.5510   25.8200    7.7540 N.pl3 351  ARX351      0.1354
     48  C75       36.3220   21.9960   12.9650 C.2   351  ARX351      0.2806
     49  O77       35.4060   21.3600   13.5000 O.2   351  ARX351     -0.2698
     50  N76       37.4730   22.2240   13.6370 N.am  351  ARX351     -0.0863
@<TRIPOS>BOND
     1    23    22    1
     2    23    24    1
     3    21    20    2
     4    22    20    1
     5    24    25    1
     6     1     2    1
     7     1     6    2
     8    20    28   am
     9     7     6    1
    10     2     3    1
    11     6     5    1
    12    47    45    1
    13     3     4    2
    14     5     4    1
    15     5     8    2
    16     4    10    1
    17     8     9    1
    18    25    26    1
    19    14    19    1
    20    14    18    1
    21    10     9    1
    22    10    19    1
    23    19    17    1
    24    28    29    1
    25    45    46    1
    26    45    44    2
    27    11    15    2
    28    15    18    1
    29    15    27   am
    30    18    16    1
    31    27    26    1
    32    29    37    1
    33    29    30    1
    34    44    43    1
    35    17    13    1
    36    17    16    1
    37    37    38    2
    38    37    39   am
    39    39    40    1
    40    16    12    1
    41    43    42    1
    42    30    31    1
    43    42    41    1
    44    41    40    1
    45    40    48    1
    46    31    32    1
    47    48    49    2
    48    48    50   am
    49    32    33    1
    50    36    34    1
    51    33    34    2
    52    34    35    1
