@<TRIPOS>MOLECULE
3bwk_C1P_A_1.pdb
 37 39 0 0 0
SMALL
GASTEIGER

@<TRIPOS>ATOM
      1  N1         8.7230  -20.2820   52.2150 N.am  300  C1P300     -0.1808
      2  C15        8.8950  -21.4270   52.8710 C.2   300  C1P300      0.3238
      3  O16        8.0060  -22.2820   52.8880 O.2   300  C1P300     -0.2508
      4  N9        10.0410  -21.6910   53.5470 N.am  300  C1P300     -0.2577
      5  C14       11.1710  -20.7480   53.6540 C.3   300  C1P300      0.1271
      6  C13       12.4860  -21.5070   53.4910 C.3   300  C1P300      0.1637
      7  O12       12.4500  -22.6370   54.2870 O.3   300  C1P300     -0.3501
      8  C11       11.4860  -23.5950   53.9330 C.3   300  C1P300      0.1637
      9  C10       10.1790  -22.9470   54.2930 C.3   300  C1P300      0.1271
     10  C2         7.5140  -20.0320   51.4130 C.3   300  C1P300      0.1743
     11  C3         7.7340  -21.0070   50.2160 C.2   300  C1P300      0.2612
     12  O4         8.8470  -21.1150   49.6600 O.2   300  C1P300     -0.2715
     13  N28        6.6900  -21.7460   49.8830 N.am  300  C1P300     -0.2057
     14  C19        6.7380  -22.7370   48.7710 C.3   300  C1P300      0.0975
     15  C18        5.8250  -22.3050   47.6310 C.3   300  C1P300      0.0474
     16  C17        4.3300  -22.3660   47.9880 C.3   300  C1P300      0.1577
     17  S33        3.3210  -23.6420   47.1550 S.O2  300  C1P300      0.0087
     18  O34        2.9470  -23.1890   45.8420 O.2   300  C1P300     -0.1686
     19  O35        4.1160  -24.8720   46.9760 O.2   300  C1P300     -0.1686
     20  C32        1.8450  -23.9340   48.0120 C.ar  300  C1P300      0.1057
     21  C36        1.6450  -23.4550   49.3100 C.ar  300  C1P300      0.0183
     22  C37        0.4610  -23.7020   50.0060 C.ar  300  C1P300      0.0013
     23  C29       -0.5660  -24.4220   49.3780 C.ar  300  C1P300      0.0001
     24  C30       -0.3960  -24.9230   48.0690 C.ar  300  C1P300      0.0013
     25  C31        0.8200  -24.6640   47.3840 C.ar  300  C1P300      0.0183
     26  C20        6.3830  -24.1390   49.2640 C.3   300  C1P300      0.0264
     27  C21        7.4740  -24.6640   50.1760 C.3   300  C1P300      0.0281
     28  C22        7.1390  -26.0240   50.7290 C.ar  300  C1P300     -0.0221
     29  C23        7.6630  -27.1680   50.1290 C.ar  300  C1P300     -0.0043
     30  C24        7.3540  -28.4360   50.6240 C.ar  300  C1P300     -0.0003
     31  C25        6.5050  -28.5600   51.7310 C.ar  300  C1P300     -0.0000
     32  C26        5.9840  -27.4020   52.3590 C.ar  300  C1P300     -0.0003
     33  C27        6.3090  -26.1240   51.8560 C.ar  300  C1P300     -0.0043
     34  C5         7.5040  -18.6130   50.8350 C.3   300  C1P300      0.0312
     35  C6         7.4270  -17.4990   51.8490 C.3   300  C1P300      0.0022
     36  C7         6.2710  -17.6320   52.8270 C.3   300  C1P300      0.0001
     37  C8         7.4170  -16.1680   51.1070 C.3   300  C1P300      0.0001
@<TRIPOS>BOND
     1    18    17    2
     2    19    17    2
     3    17    16    1
     4    17    20    1
     5    25    20   ar
     6    25    24   ar
     7    15    16    1
     8    15    14    1
     9    20    21   ar
    10    24    23   ar
    11    14    26    1
    12    14    13    1
    13    26    27    1
    14    21    22   ar
    15    23    22   ar
    16    12    11    2
    17    13    11   am
    18    29    30   ar
    19    29    28   ar
    20    27    28    1
    21    11    10    1
    22    30    31   ar
    23    28    33   ar
    24    34    10    1
    25    34    35    1
    26    37    35    1
    27    10     1    1
    28    31    32   ar
    29    35    36    1
    30    33    32   ar
    31     1     2   am
    32     2     3    2
    33     2     4   am
    34     6     5    1
    35     6     7    1
    36     4     5    1
    37     4     9    1
    38     8     7    1
    39     8     9    1
