@<TRIPOS>MOLECULE
3bwl_I3A_A_1.pdb
 11 12 0 0 0
SMALL
GASTEIGER

@<TRIPOS>ATOM
      1  O         22.3010   10.0690   27.5610 O.2   601  I3A601     -0.2831
      2  C3'       21.2450   10.2320   28.1630 C.2   601  I3A601      0.2357
      3  C3        21.2590   10.6600   29.6050 C.2   601  I3A601      0.0624
      4  C2        20.0390   10.9330   30.2800 C.2   601  I3A601      0.1021
      5  N         20.4700   11.3120   31.5290 N.2   601  I3A601     -0.2437
      6  C8        21.8300   11.3080   31.6320 C.2   601  I3A601      0.0808
      7  C9        22.3830   10.9210   30.4150 C.2   601  I3A601      0.0184
      8  C4        23.7810   10.8130   30.2610 C.2   601  I3A601     -0.0198
      9  C5        24.6250   11.1530   31.3510 C.3   601  I3A601      0.0521
     10  C6        24.0700   11.5800   32.5690 C.2   601  I3A601     -0.0199
     11  C7        22.6690   11.6450   32.7070 C.2   601  I3A601      0.0149
@<TRIPOS>BOND
     1     1     2    2
     2     2     3    1
     3     3     4    2
     4     3     7    1
     5     8     7    2
     6     8     9    1
     7     4     5    1
     8     7     6    1
     9     9    10    1
    10     5     6    2
    11     6    11    1
    12    10    11    2
