@<TRIPOS>MOLECULE
3bwm_DNC_A_1.pdb
 14 14 0 0 0
SMALL
GASTEIGER

@<TRIPOS>ATOM
      1  C1        -4.5400  -12.5550  -16.2070 C.ar  302  DNC302      0.2376
      2  O1        -4.9790  -12.7460  -14.9300 O.3   302  DNC302     -0.2830
      3  C2        -4.4190  -11.1870  -16.7510 C.ar  302  DNC302      0.2565
      4  O2        -4.7300  -10.1190  -15.9720 O.3   302  DNC302     -0.2813
      5  C3        -3.9460  -11.0220  -18.1390 C.ar  302  DNC302      0.1864
      6  N1        -3.7970   -9.7460  -18.6960 N.pl3 302  DNC302      0.0610
      7  O3        -4.3380   -8.7720  -18.2000 O.2   302  DNC302     -0.1260
      8  O4        -3.1050   -9.5950  -19.6860 O.2   302  DNC302     -0.1260
      9  C4        -3.6390  -12.1570  -18.8760 C.ar  302  DNC302      0.0517
     10  C5        -3.7730  -13.4330  -18.3280 C.ar  302  DNC302      0.1479
     11  N2        -3.4310  -14.5410  -19.1120 N.pl3 302  DNC302      0.0578
     12  O5        -3.0530  -14.3450  -20.2510 O.2   302  DNC302     -0.1261
     13  O6        -3.4830  -15.6920  -18.6640 O.2   302  DNC302     -0.1261
     14  C6        -4.2110  -13.6290  -17.0160 C.ar  302  DNC302      0.0695
@<TRIPOS>BOND
     1    12    11    2
     2     8     6    2
     3    11    13    2
     4    11    10    1
     5     9    10   ar
     6     9     5   ar
     7     6     7    2
     8     6     5    1
     9    10    14   ar
    10     5     3   ar
    11    14     1   ar
    12     3     1   ar
    13     3     4    1
    14     1     2    1
