@<TRIPOS>MOLECULE
3bwm_SAM_A_1.pdb
 27 29 0 0 0
SMALL
GASTEIGER

@<TRIPOS>ATOM
      1  N         -9.4360   -7.0620  -12.6230 N.3   301  SAM301     -0.1208
      2  CA       -10.4130   -7.7640  -13.5030 C.3   301  SAM301      0.1952
      3  C        -10.9990   -9.0000  -12.8290 C.2   301  SAM301      0.3819
      4  O        -10.3250   -9.7440  -12.1090 O.co2 301  SAM301     -0.2441
      5  OXT      -12.1760   -9.3000  -13.0060 O.co2 301  SAM301     -0.2441
      6  CB        -9.7470   -8.2220  -14.8000 C.3   301  SAM301      0.0414
      7  CG        -8.9970   -7.1410  -15.5640 C.3   301  SAM301      0.0503
      8  SD        -8.4160   -7.7930  -17.1470 S.3   301  SAM301     -0.1761
      9  CE        -7.0440   -8.8400  -16.5830 C.3   301  SAM301      0.0590
     10  C5'       -7.3440   -6.4940  -17.8540 C.3   301  SAM301      0.0806
     11  C4'       -8.1130   -5.2200  -18.1680 C.3   301  SAM301      0.1622
     12  O4'       -7.3080   -4.0610  -18.0740 O.3   301  SAM301     -0.3153
     13  C3'       -8.7150   -5.2580  -19.5710 C.3   301  SAM301      0.2168
     14  O3'      -10.1140   -5.0880  -19.4150 O.3   301  SAM301     -0.2175
     15  C2'       -8.0020   -4.1280  -20.3120 C.3   301  SAM301      0.2569
     16  O2'       -8.8220   -3.4980  -21.2520 O.3   301  SAM301     -0.2130
     17  C1'       -7.6190   -3.1960  -19.1620 C.3   301  SAM301      0.3185
     18  N9        -6.4770   -2.2900  -19.3950 N.pl3 301  SAM301     -0.1439
     19  C8        -5.3020   -2.5430  -20.0470 C.3   301  SAM301      0.3377
     20  N7        -4.5310   -1.4370  -19.9740 N.2   301  SAM301     -0.2095
     21  C5        -5.2020   -0.4870  -19.2890 C.2   301  SAM301      0.2526
     22  C6        -4.8980    0.8150  -18.9200 C.2   301  SAM301      0.4393
     23  N6        -3.7380    1.3650  -19.2590 N.pl3 301  SAM301      0.2180
     24  N1        -5.8080    1.5340  -18.1820 N.2   301  SAM301      0.0021
     25  C2        -7.0310    0.9870  -17.8250 C.3   301  SAM301      0.5254
     26  N3        -7.3170   -0.3020  -18.1970 N.2   301  SAM301     -0.0055
     27  C4        -6.4230   -1.0180  -18.9060 C.2   301  SAM301      0.3518
@<TRIPOS>BOND
     1    16    15    1
     2    15    13    1
     3    15    17    1
     4    19    20    1
     5    19    18    1
     6    20    21    2
     7    13    14    1
     8    13    11    1
     9    18    17    1
    10    18    27    1
    11    21    22    1
    12    21    27    1
    13    23    22    1
    14    17    12    1
    15    22    24    2
    16    27    26    2
    17    26    25    1
    18    24    25    1
    19    11    12    1
    20    11    10    1
    21    10     8    1
    22     8     9    1
    23     8     7    1
    24     7     6    1
    25     6     2    1
    26     2     3    1
    27     2     1    1
    28     5     3   ar
    29     3     4   ar
