@<TRIPOS>MOLECULE
3bwn_PMP_A_1.pdb
 16 16 0 0 0
SMALL
GASTEIGER

@<TRIPOS>ATOM
      1  N1         8.9300   -3.1890   80.3700 N.2   1001  PMP1001    -0.2711
      2  C2         8.5310   -3.0500   81.6730 C.2   1001  PMP1001     0.0922
      3  C2A        9.1870   -3.9130   82.7130 C.3   1001  PMP1001     0.0550
      4  C3         7.5370   -2.1100   82.0440 C.2   1001  PMP1001     0.2023
      5  O3         7.0810   -1.9080   83.3250 O.2   1001  PMP1001    -0.2859
      6  C4         6.9380   -1.2800   80.9990 C.2   1001  PMP1001     0.0189
      7  C4A        5.8490   -0.2880   81.3640 C.3   1001  PMP1001     0.1347
      8  N4A        6.0730    0.9800   80.6730 N.3   1001  PMP1001    -0.1265
      9  C5         7.3220   -1.4970   79.5940 C.3   1001  PMP1001     0.0774
     10  C6         8.4230   -2.4480   79.3540 C.3   1001  PMP1001     0.1319
     11  C5A        7.1310   -0.2610   78.6480 C.3   1001  PMP1001     0.1598
     12  O4P        6.9840   -0.7350   77.2580 O.3   1001  PMP1001    -0.2698
     13  P          6.6040    0.3980   76.1950 P.3   1001  PMP1001     0.5326
     14  O1P        7.6820    1.4500   76.2050 O.3   1001  PMP1001    -0.1145
     15  O2P        6.5990   -0.4880   74.9830 O.2   1001  PMP1001    -0.2224
     16  O3P        5.2730    0.9850   76.6080 O.3   1001  PMP1001    -0.1145
@<TRIPOS>BOND
     1    15    13    2
     2    13    14    1
     3    13    16    1
     4    13    12    1
     5    12    11    1
     6    11     9    1
     7    10     9    1
     8    10     1    1
     9     9     6    1
    10     1     2    2
    11     8     7    1
    12     6     7    1
    13     6     4    2
    14     2     4    1
    15     2     3    1
    16     4     5    1
