@<TRIPOS>MOLECULE
3bwn_PHE_F_1.pdb
 12 12 0 0 0
SMALL
GASTEIGER

@<TRIPOS>ATOM
      1  N         55.9870   -0.8520   94.6930 N.3   2001  PHE2001    -0.1205
      2  CA        57.0480   -0.4600   95.6570 C.3   2001  PHE2001     0.1986
      3  C         57.1520    1.0660   95.7760 C.2   2001  PHE2001     0.3822
      4  O         57.9660    1.7960   95.1590 O.co2 2001  PHE2001    -0.2440
      5  CB        58.3990   -1.0700   95.2760 C.3   2001  PHE2001     0.0569
      6  CG        59.2530   -1.4290   96.4790 C.ar  2001  PHE2001    -0.0202
      7  CD1       60.6210   -1.1810   96.4830 C.ar  2001  PHE2001    -0.0042
      8  CD2       58.6740   -1.9650   97.6140 C.ar  2001  PHE2001    -0.0042
      9  CE1       61.4140   -1.5010   97.5910 C.ar  2001  PHE2001    -0.0003
     10  CE2       59.4370   -2.2710   98.7020 C.ar  2001  PHE2001    -0.0003
     11  CZ        60.8160   -2.0360   98.6920 C.ar  2001  PHE2001    -0.0000
     12  OXT       56.3330    1.6430   96.5300 O.co2 2001  PHE2001    -0.2440
@<TRIPOS>BOND
     1     1     2    1
     2     4     3   ar
     3     5     2    1
     4     5     6    1
     5     2     3    1
     6     3    12   ar
     7     6     7   ar
     8     6     8   ar
     9     7     9   ar
    10     9    11   ar
    11     8    10   ar
    12    11    10   ar
