@<TRIPOS>MOLECULE
3bwr_GAL_A_1.pdb
 11 11 0 0 0
SMALL
GASTEIGER

@<TRIPOS>ATOM
      1  C1        46.2450  -11.0800   42.3610 C.3   299  GAL299      0.1777
      2  C2        46.0380   -9.9700   43.3850 C.3   299  GAL299      0.2141
      3  C3        45.2870   -8.7870   42.7750 C.3   299  GAL299      0.2173
      4  C4        45.9200   -8.3400   41.4640 C.3   299  GAL299      0.2142
      5  C5        46.1590   -9.5530   40.5620 C.3   299  GAL299      0.1810
      6  C6        46.9380   -9.1850   39.3030 C.3   299  GAL299      0.2141
      7  O2        45.3070  -10.4600   44.4870 O.3   299  GAL299     -0.2176
      8  O3        45.2950   -7.7050   43.6780 O.3   299  GAL299     -0.2175
      9  O4        47.1240   -7.6640   41.7450 O.3   299  GAL299     -0.2176
     10  O5        46.8980  -10.5500   41.2380 O.3   299  GAL299     -0.3481
     11  O6        47.1590  -10.3520   38.5450 O.3   299  GAL299     -0.2176
@<TRIPOS>BOND
     1    11     6    1
     2     6     5    1
     3     5    10    1
     4     5     4    1
     5    10     1    1
     6     4     9    1
     7     4     3    1
     8     1     2    1
     9     3     2    1
    10     3     8    1
    11     2     7    1
