@<TRIPOS>MOLECULE
3bwr_SIA_A_1.pdb
 20 20 0 0 0
SMALL
GASTEIGER

@<TRIPOS>ATOM
      1  C1        42.6620  -16.5530   43.2430 C.2   298  SIA298      0.3914
      2  C2        43.4420  -17.8170   42.9570 C.3   298  SIA298      0.2203
      3  C3        42.5970  -19.0530   43.2740 C.3   298  SIA298      0.0760
      4  C4        41.4300  -19.2540   42.3050 C.3   298  SIA298      0.1773
      5  C5        41.8610  -19.0880   40.8510 C.3   298  SIA298      0.1552
      6  C6        42.7000  -17.8240   40.6810 C.3   298  SIA298      0.1710
      7  C7        43.1880  -17.6640   39.2350 C.3   298  SIA298      0.2134
      8  C8        44.2380  -16.5660   39.0560 C.3   298  SIA298      0.2173
      9  C9        44.3440  -16.1570   37.5920 C.3   298  SIA298      0.2175
     10  C10       40.5630  -19.8040   38.8980 C.2   298  SIA298      0.2420
     11  C11       39.2950  -19.5970   38.1220 C.3   298  SIA298      0.0964
     12  N5        40.7050  -19.0340   39.9750 N.am  298  SIA298     -0.2020
     13  O1A       41.7300  -16.5800   44.0800 O.co2 298  SIA298     -0.2430
     14  O1B       43.0130  -15.4980   42.6690 O.co2 298  SIA298     -0.2430
     15  O4        40.8890  -20.5670   42.5010 O.3   298  SIA298     -0.2211
     16  O6        43.8160  -17.8750   41.5780 O.3   298  SIA298     -0.3429
     17  O7        43.7640  -18.8990   38.8030 O.3   298  SIA298     -0.2176
     18  O8        43.9090  -15.4040   39.8310 O.3   298  SIA298     -0.2175
     19  O9        45.3150  -15.1130   37.4630 O.3   298  SIA298     -0.2175
     20  O10       41.3980  -20.6230   38.5560 O.2   298  SIA298     -0.2733
@<TRIPOS>BOND
     1    19     9    1
     2     9     8    1
     3    11    10    1
     4    20    10    2
     5    17     7    1
     6    10    12   am
     7     8     7    1
     8     8    18    1
     9     7     6    1
    10    12     5    1
    11     6     5    1
    12     6    16    1
    13     5     4    1
    14    16     2    1
    15     4    15    1
    16     4     3    1
    17    14     1   ar
    18     2     1    1
    19     2     3    1
    20     1    13   ar
