@<TRIPOS>MOLECULE
3bwy_SAM_A_1.pdb
 27 29 0 0 0
SMALL
GASTEIGER

@<TRIPOS>ATOM
      1  N         -9.3610   -7.1010  -12.7830 N.3   301  SAM301     -0.1208
      2  CA       -10.2940   -7.7940  -13.7370 C.3   301  SAM301      0.1952
      3  C        -10.9760   -8.9400  -12.9980 C.2   301  SAM301      0.3819
      4  O        -10.2670   -9.6200  -12.2370 O.co2 301  SAM301     -0.2441
      5  OXT      -12.1610   -9.1920  -13.2050 O.co2 301  SAM301     -0.2441
      6  CB        -9.6120   -8.3530  -14.9810 C.3   301  SAM301      0.0414
      7  CG        -8.9200   -7.2620  -15.8030 C.3   301  SAM301      0.0503
      8  SD        -8.2910   -7.9480  -17.3210 S.3   301  SAM301     -0.1761
      9  CE        -6.8460   -8.8330  -16.6850 C.3   301  SAM301      0.0590
     10  C5'       -7.2700   -6.4950  -17.9050 C.3   301  SAM301      0.0806
     11  C4'       -7.9140   -5.2030  -18.4400 C.3   301  SAM301      0.1622
     12  O4'       -7.1180   -4.0240  -18.3430 O.3   301  SAM301     -0.3153
     13  C3'       -8.5680   -5.2910  -19.8140 C.3   301  SAM301      0.2168
     14  O3'       -9.9550   -5.0620  -19.6380 O.3   301  SAM301     -0.2175
     15  C2'       -7.9280   -4.1180  -20.5550 C.3   301  SAM301      0.2569
     16  O2'       -8.7500   -3.4590  -21.5280 O.3   301  SAM301     -0.2130
     17  C1'       -7.5560   -3.1730  -19.4220 C.3   301  SAM301      0.3185
     18  N9        -6.4460   -2.2830  -19.6620 N.pl3 301  SAM301     -0.1439
     19  C8        -5.2630   -2.5460  -20.3510 C.3   301  SAM301      0.3377
     20  N7        -4.4360   -1.4740  -20.2390 N.2   301  SAM301     -0.2095
     21  C5        -5.0930   -0.5270  -19.4790 C.2   301  SAM301      0.2526
     22  C6        -4.7180    0.7420  -19.0110 C.2   301  SAM301      0.4393
     23  N6        -3.5370    1.3130  -19.3250 N.pl3 301  SAM301      0.2180
     24  N1        -5.5840    1.4180  -18.2250 N.2   301  SAM301      0.0021
     25  C2        -6.8440    0.8540  -17.9260 C.3   301  SAM301      0.5254
     26  N3        -7.2200   -0.3840  -18.3510 N.2   301  SAM301     -0.0055
     27  C4        -6.3400   -1.0560  -19.1080 C.2   301  SAM301      0.3518
@<TRIPOS>BOND
     1    16    15    1
     2    15    13    1
     3    15    17    1
     4    19    20    1
     5    19    18    1
     6    20    21    2
     7    13    14    1
     8    13    11    1
     9    18    17    1
    10    18    27    1
    11    21    27    1
    12    21    22    1
    13    17    12    1
    14    23    22    1
    15    27    26    2
    16    22    24    2
    17    11    12    1
    18    11    10    1
    19    26    25    1
    20    24    25    1
    21    10     8    1
    22     8     9    1
    23     8     7    1
    24     7     6    1
    25     6     2    1
    26     2     3    1
    27     2     1    1
    28     5     3   ar
    29     3     4   ar
