@<TRIPOS>MOLECULE
3bwy_DNC_A_1.pdb
 14 14 0 0 0
SMALL
GASTEIGER

@<TRIPOS>ATOM
      1  C1        -4.4590  -12.5880  -16.3100 C.ar  302  DNC302      0.2376
      2  O1        -4.9680  -12.6630  -15.0840 O.3   302  DNC302     -0.2830
      3  C2        -4.3340  -11.2430  -16.8210 C.ar  302  DNC302      0.2565
      4  O2        -4.6240  -10.2540  -16.0000 O.3   302  DNC302     -0.2813
      5  C3        -3.7630  -11.0810  -18.1450 C.ar  302  DNC302      0.1864
      6  N1        -3.5550   -9.8370  -18.6930 N.pl3 302  DNC302      0.0610
      7  O3        -3.9820   -8.8420  -18.1900 O.2   302  DNC302     -0.1260
      8  O4        -2.9130   -9.7380  -19.7650 O.2   302  DNC302     -0.1260
      9  C4        -3.4370  -12.2100  -18.8740 C.ar  302  DNC302      0.0517
     10  C5        -3.5750  -13.4800  -18.3590 C.ar  302  DNC302      0.1479
     11  N2        -3.1650  -14.6090  -19.1290 N.pl3 302  DNC302      0.0578
     12  O5        -2.7260  -14.4060  -20.2290 O.2   302  DNC302     -0.1261
     13  O6        -3.2000  -15.7200  -18.6060 O.2   302  DNC302     -0.1261
     14  C6        -4.0880  -13.6800  -17.0970 C.ar  302  DNC302      0.0695
@<TRIPOS>BOND
     1    12    11    2
     2     8     6    2
     3    11    13    2
     4    11    10    1
     5     9    10   ar
     6     9     5   ar
     7     6     7    2
     8     6     5    1
     9    10    14   ar
    10     5     3   ar
    11    14     1   ar
    12     3     1   ar
    13     3     4    1
    14     1     2    1
