@<TRIPOS>MOLECULE
3bx5_304_A_1.pdb
 24 25 0 0 0
SMALL
GASTEIGER

@<TRIPOS>ATOM
      1  C1        -3.9560   34.7720   23.4390 C.ar  501  304501      0.0043
      2  C2        -5.1100   35.2550   22.8030 C.ar  501  304501     -0.0028
      3  C3        -2.5920   36.0230   21.9120 C.ar  501  304501      0.0209
      4  C4        -2.9960   39.3860   18.0620 C.ar  501  304501      0.1120
      5  C5        -2.6850   35.1400   23.0000 C.ar  501  304501      0.0563
      6  C6        -5.0320   36.1310   21.7100 C.ar  501  304501     -0.0065
      7  C7        -3.7470   36.5130   21.2620 C.ar  501  304501      0.0699
      8  C8        -2.8280   38.0290   17.9980 C.ar  501  304501      0.1065
      9  C9        -2.4400   39.2510   15.9130 C.ar  501  304501      0.1793
     10  C10       -1.4200   34.6560   23.6620 C.2   501  304501      0.2649
     11  C11       -2.9530   37.0090   19.0050 C.2   501  304501      0.2766
     12  C12       -6.3040   36.6290   21.0810 C.3   501  304501      0.0324
     13  C13        0.7640   39.1240   14.9160 C.3   501  304501      0.0018
     14  C14       -2.1660   38.4070   12.5310 C.3   501  304501      0.0234
     15  C15       -0.4420   33.2660   25.4660 C.3   501  304501      0.1388
     16  C16       -0.2700   38.2900   14.1850 C.3   501  304501      0.0216
     17  C17       -1.3500   39.1690   13.5850 C.3   501  304501      0.0946
     18  N18       -2.7830   40.0720   16.8930 N.ar  501  304501     -0.2211
     19  N19       -3.6010   37.4070   20.1650 N.am  501  304501     -0.1753
     20  N20       -2.1910   39.7250   14.6500 N.pl3 501  304501     -0.2165
     21  N21       -1.5220   33.6100   24.5640 N.am  501  304501     -0.1998
     22  O22       -0.3440   35.1940   23.4060 O.2   501  304501     -0.2684
     23  O23       -2.5090   35.8740   18.8350 O.2   501  304501     -0.2674
     24  S24       -2.3850   37.5820   16.4130 S.2   501  304501     -0.0454
@<TRIPOS>BOND
     1    14    17    1
     2    17    16    1
     3    17    20    1
     4    16    13    1
     5    20     9    1
     6     9    24   ar
     7     9    18   ar
     8    24     8   ar
     9    18     4   ar
    10     8     4   ar
    11     8    11    1
    12    23    11    2
    13    11    19   am
    14    19     7    1
    15    12     6    1
    16     7     6   ar
    17     7     3   ar
    18     6     2   ar
    19     3     5   ar
    20     2     1   ar
    21     5     1   ar
    22     5    10    1
    23    22    10    2
    24    10    21   am
    25    21    15    1
