@<TRIPOS>MOLECULE
3bxd_INS_A_1.pdb
 12 12 0 0 0
SMALL
GASTEIGER

@<TRIPOS>ATOM
      1  C1        32.1250   21.4950   31.0900 C.3   303  INS303      0.2175
      2  C2        32.1180   20.9890   32.5380 C.3   303  INS303      0.2175
      3  C3        33.4780   21.2320   33.1760 C.3   303  INS303      0.2175
      4  C4        34.5360   20.4880   32.3850 C.3   303  INS303      0.2175
      5  C5        34.5610   20.9880   30.9420 C.3   303  INS303      0.2175
      6  C6        33.2100   20.7600   30.2850 C.3   303  INS303      0.2175
      7  O1        30.8500   21.2630   30.5100 O.3   303  INS303     -0.2175
      8  O2        31.8140   19.5920   32.5660 O.3   303  INS303     -0.2175
      9  O3        33.4710   20.7250   34.5120 O.3   303  INS303     -0.2175
     10  O4        35.8030   20.7660   32.9710 O.3   303  INS303     -0.2175
     11  O5        35.5890   20.2990   30.2250 O.3   303  INS303     -0.2175
     12  O6        33.2330   21.2250   28.9340 O.3   303  INS303     -0.2175
@<TRIPOS>BOND
     1    12     6    1
     2    11     5    1
     3     6     5    1
     4     6     1    1
     5     7     1    1
     6     5     4    1
     7     1     2    1
     8     4    10    1
     9     4     3    1
    10     2     8    1
    11     2     3    1
    12     3     9    1
