@<TRIPOS>MOLECULE
3bxe_13P_A_1.pdb
 10 9 0 0 0
SMALL
GASTEIGER

@<TRIPOS>ATOM
      1  P        -43.0440    4.4020    4.7760 P.3   401  13P401      0.5330
      2  O1P      -44.4530    4.5630    5.3160 O.3   401  13P401     -0.1145
      3  O2P      -41.9090    4.6880    5.7580 O.3   401  13P401     -0.1145
      4  O3P      -42.8640    5.0660    3.4200 O.2   401  13P401     -0.2224
      5  O1       -42.8990    2.8190    4.4800 O.3   401  13P401     -0.2621
      6  C1       -43.0600    1.8880    5.5780 C.3   401  13P401      0.2204
      7  C2       -42.3320    0.5840    5.3600 C.2   401  13P401      0.2140
      8  O2       -41.5340    0.4550    4.4390 O.2   401  13P401     -0.2906
      9  C3       -42.6000   -0.5740    6.2970 C.3   401  13P401      0.2485
     10  O3       -42.0420   -1.7950    5.7660 O.3   401  13P401     -0.2118
@<TRIPOS>BOND
     1     4     1    2
     2     8     7    2
     3     5     1    1
     4     5     6    1
     5     1     2    1
     6     1     3    1
     7     7     6    1
     8     7     9    1
     9    10     9    1
