@<TRIPOS>MOLECULE
3bxf_FBP_A_1.pdb
 20 20 0 0 0
SMALL
GASTEIGER

@<TRIPOS>ATOM
      1  P1        11.4180    1.0530    0.8330 P.3   401  FBP401      0.5328
      2  O1P       11.1050    2.3340    1.5890 O.3   401  FBP401     -0.1145
      3  O2P       10.1900    0.5190    0.1150 O.3   401  FBP401     -0.1145
      4  O3P       12.4970    1.3050   -0.2120 O.2   401  FBP401     -0.2224
      5  O1        11.9820   -0.0070    1.9090 O.3   401  FBP401     -0.2648
      6  C1        11.1930   -0.2390    3.0500 C.3   401  FBP401      0.2152
      7  C2        11.9920   -0.7500    4.2460 C.3   401  FBP401      0.2780
      8  O2        11.0670   -1.0680    5.3130 O.3   401  FBP401     -0.1897
      9  C3        13.0410    0.1990    4.7890 C.3   401  FBP401      0.2408
     10  O3        12.5050    1.2580    5.5360 O.3   401  FBP401     -0.2149
     11  C4        13.8780   -0.7220    5.6480 C.3   401  FBP401      0.2167
     12  O4        15.1980   -0.2420    5.6830 O.3   401  FBP401     -0.2175
     13  C5        13.8560   -1.9600    4.7690 C.3   401  FBP401      0.1808
     14  O5        12.6880   -1.9320    3.9530 O.3   401  FBP401     -0.3255
     15  C6        13.9990   -3.2710    5.4920 C.3   401  FBP401      0.1859
     16  O6        13.9910   -4.2620    4.4890 O.3   401  FBP401     -0.2675
     17  P2        14.2760   -5.7830    4.8420 P.3   401  FBP401      0.5327
     18  O4P       15.6710   -5.9070    5.4140 O.3   401  FBP401     -0.1145
     19  O5P       14.0920   -6.5640    3.5590 O.2   401  FBP401     -0.2224
     20  O6P       13.2400   -6.1520    5.8600 O.3   401  FBP401     -0.1145
@<TRIPOS>BOND
     1     4     1    2
     2     3     1    1
     3     1     2    1
     4     1     5    1
     5     5     6    1
     6     6     7    1
     7    19    17    2
     8    14     7    1
     9    14    13    1
    10     7     9    1
    11     7     8    1
    12    16    17    1
    13    16    15    1
    14    13    15    1
    15    13    11    1
    16     9    10    1
    17     9    11    1
    18    17    18    1
    19    17    20    1
    20    11    12    1
