@<TRIPOS>MOLECULE
3bxf_13P_B_1.pdb
 10 9 0 0 0
SMALL
GASTEIGER

@<TRIPOS>ATOM
      1  P        -15.6510   -2.5840  -11.9590 P.3   401  13P401      0.5330
      2  O1P      -17.1510   -2.7260  -12.0300 O.3   401  13P401     -0.1145
      3  O2P      -14.9240   -3.4180  -12.9980 O.2   401  13P401     -0.2224
      4  O3P      -15.1840   -2.5320  -10.5160 O.3   401  13P401     -0.1145
      5  O1       -15.3690   -1.0510  -12.4480 O.3   401  13P401     -0.2621
      6  C1       -15.8810   -0.5780  -13.7060 C.3   401  13P401      0.2204
      7  C2       -15.1250    0.6530  -14.1480 C.2   401  13P401      0.2140
      8  O2       -14.1590    1.0510  -13.5050 O.2   401  13P401     -0.2906
      9  C3       -15.5670    1.3820  -15.3920 C.3   401  13P401      0.2485
     10  O3       -14.8460    2.6150  -15.5070 O.3   401  13P401     -0.2118
@<TRIPOS>BOND
     1    10     9    1
     2     9     7    1
     3     7     6    1
     4     7     8    2
     5     6     5    1
     6     3     1    2
     7     5     1    1
     8     2     1    1
     9     1     4    1
