@<TRIPOS>MOLECULE
3bxg_BG6_A_1.pdb
 16 16 0 0 0
SMALL
GASTEIGER

@<TRIPOS>ATOM
      1  C1        68.7950   84.7340   60.6060 C.3   401  BG6401      0.3024
      2  C2        68.0100   85.4190   61.7310 C.3   401  BG6401      0.2434
      3  O1        68.1560   84.8970   59.3530 O.3   401  BG6401     -0.1869
      4  O5        69.0460   83.3600   60.9700 O.3   401  BG6401     -0.3237
      5  C3        68.9700   85.5970   62.9110 C.3   401  BG6401      0.2199
      6  O2        67.4420   86.6780   61.3140 O.3   401  BG6401     -0.2148
      7  C4        69.7480   84.2630   63.1350 C.3   401  BG6401      0.2143
      8  O3        68.1700   85.9160   64.1050 O.3   401  BG6401     -0.2174
      9  C5        70.1130   83.3610   61.9260 C.3   401  BG6401      0.1808
     10  O4        70.9670   84.5370   63.8340 O.3   401  BG6401     -0.2176
     11  C6        70.4700   81.9430   62.4000 C.3   401  BG6401      0.1859
     12  O6        70.5590   80.9820   61.3250 O.3   401  BG6401     -0.2675
     13  P         70.6440   79.3970   61.5930 P.3   401  BG6401      0.5327
     14  O1P       70.4280   78.8050   60.2150 O.2   401  BG6401     -0.2224
     15  O2P       72.0320   79.1270   62.1250 O.3   401  BG6401     -0.1145
     16  O3P       69.5120   79.0800   62.5640 O.3   401  BG6401     -0.1145
@<TRIPOS>BOND
     1     3     1    1
     2    14    13    2
     3     1     4    1
     4     1     2    1
     5     4     9    1
     6     6     2    1
     7    12    13    1
     8    12    11    1
     9    13    15    1
    10    13    16    1
    11     2     5    1
    12     9    11    1
    13     9     7    1
    14     5     7    1
    15     5     8    1
    16     7    10    1
