@<TRIPOS>MOLECULE
3bxh_F6P_A_1.pdb
 16 16 0 0 0
SMALL
GASTEIGER

@<TRIPOS>ATOM
      1  O1        68.7520   85.6110   59.3080 O.3   401  F6P401     -0.2148
      2  C1        67.8700   84.9980   60.2120 C.3   401  F6P401      0.2434
      3  C2        68.5320   84.5330   61.5100 C.3   401  F6P401      0.2807
      4  O2        67.5000   84.3900   62.5210 O.3   401  F6P401     -0.1896
      5  C3        69.6360   85.3910   62.1290 C.3   401  F6P401      0.2409
      6  O3        69.1760   86.4830   62.8810 O.3   401  F6P401     -0.2149
      7  C4        70.3140   84.3680   63.0170 C.3   401  F6P401      0.2167
      8  O4        71.6090   84.7590   63.3680 O.3   401  F6P401     -0.2175
      9  C5        70.3730   83.2140   62.0340 C.3   401  F6P401      0.1808
     10  O5        69.1720   83.2840   61.2820 O.3   401  F6P401     -0.3254
     11  C6        70.5590   81.8510   62.6610 C.3   401  F6P401      0.1859
     12  O6        70.5920   80.9710   61.5460 O.3   401  F6P401     -0.2675
     13  P         70.6840   79.3960   61.7630 P.3   401  F6P401      0.5327
     14  O1P       72.0230   79.0890   62.3620 O.3   401  F6P401     -0.1145
     15  O2P       70.5890   78.7310   60.4230 O.2   401  F6P401     -0.2224
     16  O3P       69.5450   78.9800   62.6880 O.3   401  F6P401     -0.1145
@<TRIPOS>BOND
     1     1     2    1
     2     2     3    1
     3    15    13    2
     4    10     3    1
     5    10     9    1
     6     3     5    1
     7     3     4    1
     8    12    13    1
     9    12    11    1
    10    13    14    1
    11    13    16    1
    12     9    11    1
    13     9     7    1
    14     5     6    1
    15     5     7    1
    16     7     8    1
