@<TRIPOS>MOLECULE
3bxi_HEM_A_1.pdb
 43 50 0 0 0
SMALL
GASTEIGER

@<TRIPOS>ATOM
      1  CHA        8.8520    0.3280   29.0900 C.2   613  HEM613      0.0000
      2  CHB        9.3550    4.9540   29.0020 C.2   613  HEM613      0.0000
      3  CHC       11.2250    4.7870   24.7340 C.2   613  HEM613      0.0000
      4  CHD       10.9610    0.0180   24.7580 C.2   613  HEM613      0.0000
      5  C1A        8.7860    1.5780   29.5080 C.2   613  HEM613      0.0000
      6  C2A        8.2460    2.0250   30.7620 C.2   613  HEM613      0.0000
      7  C3A        8.3740    3.3390   30.7500 C.2   613  HEM613      0.0000
      8  C4A        9.0080    3.6840   29.4720 C.2   613  HEM613      0.0000
      9  CMA        7.9340    4.2940   31.8590 C.3   613  HEM613      0.0000
     10  CAA        7.6540    1.1100   31.8640 C.3   613  HEM613      0.0000
     11  CBA        8.7870    0.5570   32.7420 C.3   613  HEM613      0.0000
     12  CGA        8.3840   -0.3830   33.8580 C.2   613  HEM613      0.0000
     13  O1A        8.9930   -1.5210   33.8290 O.co2 613  HEM613      0.0000
     14  O2A        7.5300    0.0020   34.7830 O.co2 613  HEM613      0.0000
     15  C1B        9.8820    5.3480   27.8000 C.ar  613  HEM613      0.0000
     16  C2B       10.1090    6.7120   27.3800 C.ar  613  HEM613      0.0000
     17  C3B       10.6070    6.6390   26.1470 C.ar  613  HEM613      0.0000
     18  C4B       10.7230    5.2620   25.8550 C.ar  613  HEM613      0.0000
     19  CMB        9.8220    7.9780   28.1630 C.3   613  HEM613      0.0000
     20  CAB       11.0280    7.8370   25.1990 C.2   613  HEM613      0.0000
     21  CBB       11.3980    9.0830   25.6560 C.2   613  HEM613      0.0000
     22  C1C       11.3620    3.4950   24.3430 C.2   613  HEM613      0.0000
     23  C2C       12.0100    3.0080   23.0790 C.2   613  HEM613      0.0000
     24  C3C       11.9290    1.6390   23.1100 C.2   613  HEM613      0.0000
     25  C4C       11.2420    1.3150   24.3560 C.2   613  HEM613      0.0000
     26  CMC       12.7270    3.8520   21.9230 C.3   613  HEM613      0.0000
     27  CAC       12.4210    0.5450   22.0650 C.2   613  HEM613      0.0000
     28  CBC       13.0930    0.7150   20.9070 C.2   613  HEM613      0.0000
     29  C1D       10.3010   -0.3070   25.9440 C.ar  613  HEM613      0.0000
     30  C2D        9.8050   -1.6250   26.2390 C.ar  613  HEM613      0.0000
     31  C3D        9.1510   -1.5700   27.5060 C.ar  613  HEM613      0.0000
     32  C4D        9.3240   -0.1640   27.9040 C.ar  613  HEM613      0.0000
     33  CMD        9.8520   -2.9530   25.5560 C.3   613  HEM613      0.0000
     34  CAD        8.4620   -2.8810   28.0780 C.3   613  HEM613      0.0000
     35  CBD        6.8410   -2.8090   27.9340 C.3   613  HEM613      0.0000
     36  CGD        6.0660   -3.9450   28.5490 C.2   613  HEM613      0.0000
     37  O1D        5.4610   -3.8060   29.6560 O.co2 613  HEM613      0.0000
     38  O2D        6.0890   -4.9940   27.9280 O.co2 613  HEM613      0.0000
     39  NA         9.2360    2.5730   28.7580 N.2   613  HEM613      0.0000
     40  NB        10.2740    4.5030   26.8540 N.ar  613  HEM613      0.0000
     41  NC        10.9080    2.4420   25.0990 N.2   613  HEM613      0.0000
     42  ND         9.9830    0.5440   26.9690 N.ar  613  HEM613      0.0000
     43 FE         10.3020    2.4320   27.0370 Fe    613  HEM613      0.0000
@<TRIPOS>BOND
     1    28    27    2
     2    26    23    1
     3    27    24    1
     4    23    24    2
     5    23    22    1
     6    24    25    1
     7    22     3    2
     8    22    41    1
     9    25     4    1
    10    25    41    2
    11     3    18    1
    12     4    29    2
    13    41    43    1
    14    20    21    2
    15    20    17    1
    16    33    30    1
    17    18    17   ar
    18    18    40   ar
    19    29    30   ar
    20    29    42   ar
    21    17    16   ar
    22    30    31   ar
    23    40    43    1
    24    40    15   ar
    25    42    43    1
    26    42    32   ar
    27    43    39    1
    28    16    15   ar
    29    16    19    1
    30    31    32   ar
    31    31    34    1
    32    15     2    1
    33    32     1    2
    34    38    36   ar
    35    35    34    1
    36    35    36    1
    37    36    37   ar
    38    39     8    1
    39    39     5    2
    40     2     8    2
    41     1     5    1
    42     8     7    1
    43     5     6    1
    44     7     6    2
    45     7     9    1
    46     6    10    1
    47    10    11    1
    48    11    12    1
    49    13    12   ar
    50    12    14   ar
