@<TRIPOS>MOLECULE
3bxm_III_I_1.pdb
 21 20 0 0 0
SMALL
GASTEIGER

@<TRIPOS>ATOM
      1  C         20.1760   43.5030   46.3000 C.2     1  ACE1        0.2423
      2  O         19.8730   44.3600   47.1750 O.2     1  ACE1       -0.2733
      3  CH3       21.0900   42.3490   46.6230 C.3     1  ACE1        0.0964
      4  N         19.8550   43.6570   44.9930 N.am    2  ASP2       -0.1972
      5  CA        18.9350   44.6820   44.5500 C.3     2  ASP2        0.1839
      6  C         18.1470   44.1880   43.3120 C.2     2  ASP2        0.2622
      7  O         18.5220   43.2100   42.6530 O.2     2  ASP2       -0.2715
      8  CB        19.6740   45.9380   44.1680 C.3     2  ASP2        0.1450
      9  CG        20.4110   46.5400   45.3570 C.2     2  ASP2        0.3671
     10  OD1       19.7730   47.2590   46.1450 O.co2   2  ASP2       -0.2456
     11  OD2       21.6200   46.2050   45.5670 O.co2   2  ASP2       -0.2456
     12  N         17.0280   44.8220   43.0060 N.am    3  GLU3       -0.1941
     13  CA        16.2420   44.3590   41.8080 C.3     3  GLU3        0.1984
     14  C         17.1380   44.4330   40.5390 C.2     3  GLU3        0.3842
     15  O         16.9070   43.6490   39.5830 O.co2   3  GLU3       -0.2437
     16  CB        14.9540   45.2090   41.5810 C.3     3  GLU3        0.0451
     17  CG        15.2350   46.4680   40.9230 C.3     3  GLU3        0.1164
     18  CD        13.9690   47.2340   40.4950 C.2     3  GLU3        0.3649
     19  OE1       13.0630   46.7110   39.7720 O.co2   3  GLU3       -0.2457
     20  OE2       13.9440   48.4070   40.8380 O.co2   3  GLU3       -0.2457
     21  OXT       18.0820   45.2340   40.4660 O.co2   3  GLU3       -0.2437
@<TRIPOS>BOND
     1    15    14   ar
     2    19    18   ar
     3    21    14   ar
     4    18    20   ar
     5    18    17    1
     6    14    13    1
     7    17    16    1
     8    16    13    1
     9    13    12    1
    10     7     6    2
    11    12     6   am
    12     6     5    1
    13     8     5    1
    14     8     9    1
    15     5     4    1
    16     4     1   am
    17     9    11   ar
    18     9    10   ar
    19     1     3    1
    20     1     2    2
