@<TRIPOS>MOLECULE
3bxm_NAG_A_1.pdb
 14 14 0 0 0
SMALL
GASTEIGER

@<TRIPOS>ATOM
      1  C1        11.7780   25.8120   58.0110 C.3   1755  NAG1755     0.1665
      2  C2        11.5980   24.3560   57.6100 C.3   1755  NAG1755     0.1576
      3  C3        10.1530   23.8950   57.8770 C.3   1755  NAG1755     0.2069
      4  C4         9.5970   24.2880   59.2350 C.3   1755  NAG1755     0.2134
      5  C5         9.9250   25.7350   59.5030 C.3   1755  NAG1755     0.1809
      6  C6         9.4660   26.1690   60.9010 C.3   1755  NAG1755     0.2141
      7  C7        13.1380   23.6270   55.8880 C.2   1755  NAG1755     0.2420
      8  C8        13.4500   23.4330   54.4460 C.3   1755  NAG1755     0.0964
      9  N2        11.9420   24.1620   56.1990 N.am  1755  NAG1755    -0.2019
     10  O3        10.1490   22.5010   57.8850 O.3   1755  NAG1755    -0.2184
     11  O4         8.1900   24.1530   59.1400 O.3   1755  NAG1755    -0.2176
     12  O5        11.3260   25.9360   59.3570 O.3   1755  NAG1755    -0.3489
     13  O6        10.1980   25.3920   61.8230 O.3   1755  NAG1755    -0.2176
     14  O7        13.9880   23.3080   56.7310 O.2   1755  NAG1755    -0.2733
@<TRIPOS>BOND
     1     8     7    1
     2     7     9   am
     3     7    14    2
     4     9     2    1
     5     2     3    1
     6     2     1    1
     7     3    10    1
     8     3     4    1
     9     1    12    1
    10    11     4    1
    11     4     5    1
    12    12     5    1
    13     5     6    1
    14     6    13    1
