@<TRIPOS>MOLECULE
3bxo_UPP_A_1.pdb
 31 33 0 0 0
SMALL
GASTEIGER

@<TRIPOS>ATOM
      1  N1        22.4980    4.2510   24.2050 N.am  239  UPP239     -0.1766
      2  C2        23.3600    4.2870   23.1640 C.1   239  UPP239      0.2845
      3  N3        23.9590    5.4210   22.8580 N.2   239  UPP239     -0.2452
      4  C4        23.7250    6.5300   23.5860 C.1   239  UPP239      0.2182
      5  C5        22.8240    6.5110   24.6780 C.2   239  UPP239      0.1242
      6  C6        22.1950    5.3530   24.9530 C.2   239  UPP239      0.0929
      7  O2        23.6040    3.3000   22.4870 O.2   239  UPP239     -0.1918
      8  O4        24.2970    7.5560   23.2680 O.2   239  UPP239     -0.2085
      9  C1B       21.8170    3.0090   24.4680 C.3   239  UPP239      0.2401
     10  C2B       22.2850    2.2870   25.7350 C.3   239  UPP239      0.2319
     11  O2'       23.4430    1.4920   25.3830 O.3   239  UPP239     -0.2157
     12  C3B       21.0310    1.3860   25.9360 C.3   239  UPP239      0.2158
     13  C4B       19.8430    2.3100   25.5080 C.3   239  UPP239      0.1799
     14  O4'       20.4060    3.3200   24.6320 O.3   239  UPP239     -0.3320
     15  O3'       21.0710    0.3040   24.9750 O.3   239  UPP239     -0.2175
     16  C5B       19.0560    2.9520   26.6500 C.3   239  UPP239      0.1813
     17  O5'       18.6860    1.9160   27.5390 O.3   239  UPP239     -0.3112
     18  PA        17.1060    2.0330   27.6870 P.3   239  UPP239      0.2197
     19  O1A       16.6660    0.7110   28.4800 O.2   239  UPP239     -0.5170
     20  O2A       16.7430    3.3210   28.5460 O.3   239  UPP239     -0.4371
     21  O3A       16.5010    2.1930   26.1730 O.3   239  UPP239     -0.2612
     22  PB        14.9660    1.8510   25.7750 P.3   239  UPP239      0.2746
     23  O1B       13.8800    2.1840   26.9130 O.3   239  UPP239     -0.4272
     24  O2B       14.6580    2.7600   24.5150 O.2   239  UPP239     -0.5080
     25  O3B       14.8450    0.2980   25.3570 O.3   239  UPP239     -0.4398
     26  C1'       14.5940    0.0480   24.0230 C.ar  239  UPP239      0.1446
     27  C2'       13.6440    0.7130   23.2600 C.ar  239  UPP239      0.0373
     28  C3'       13.4310    0.3830   21.9320 C.ar  239  UPP239      0.0031
     29  C4'       14.1360   -0.6350   21.3310 C.ar  239  UPP239      0.0002
     30  C5'       15.0650   -1.3180   22.0880 C.ar  239  UPP239      0.0031
     31  C6'       15.2740   -0.9860   23.4060 C.ar  239  UPP239      0.0373
@<TRIPOS>BOND
     1    29    28   ar
     2    29    30   ar
     3    28    27   ar
     4    30    31   ar
     5     7     2    2
     6     3     2    2
     7     3     4    2
     8     2     1   am
     9    27    26   ar
    10     8     4    2
    11    31    26   ar
    12     4     5    1
    13    26    25    1
    14     1     9    1
    15     1     6    1
    16     9    14    1
    17     9    10    1
    18    24    22    2
    19    14    13    1
    20     5     6    2
    21    15    12    1
    22    25    22    1
    23    11    10    1
    24    13    12    1
    25    13    16    1
    26    10    12    1
    27    22    21    1
    28    22    23    1
    29    21    18    1
    30    16    17    1
    31    17    18    1
    32    18    19    2
    33    18    20    1
