@<TRIPOS>MOLECULE
3bxo_SAM_A_1.pdb
 27 29 0 0 0
SMALL
GASTEIGER

@<TRIPOS>ATOM
      1  N          6.7970    0.1490   17.2280 N.3   238  SAM238     -0.1208
      2  CA         6.2860   -0.2520   18.5530 C.3   238  SAM238      0.1952
      3  C          6.5010    0.8720   19.5370 C.2   238  SAM238      0.3819
      4  O          6.3160    0.7140   20.7280 O.co2 238  SAM238     -0.2441
      5  OXT        6.8220    1.9680   19.1340 O.co2 238  SAM238     -0.2441
      6  CB         6.9510   -1.5570   18.9980 C.3   238  SAM238      0.0414
      7  CG         8.4730   -1.4020   18.9650 C.3   238  SAM238      0.0503
      8  SD         9.2840   -2.7180   19.9340 S.3   238  SAM238     -0.1761
      9  CE        10.7980   -1.8360   20.4580 C.3   238  SAM238      0.0590
     10  C5'        9.8910   -3.8140   18.6180 C.3   238  SAM238      0.0806
     11  C4'        8.7060   -4.5510   17.9850 C.3   238  SAM238      0.1622
     12  O4'        9.1670   -5.1880   16.7760 O.3   238  SAM238     -0.3153
     13  C3'        8.1500   -5.6580   18.9060 C.3   238  SAM238      0.2168
     14  O3'        6.7330   -5.4470   19.0880 O.3   238  SAM238     -0.2175
     15  C2'        8.4530   -6.9700   18.1120 C.3   238  SAM238      0.2569
     16  O2'        7.4200   -7.9580   18.2290 O.3   238  SAM238     -0.2130
     17  C1'        8.4800   -6.4440   16.6590 C.3   238  SAM238      0.3185
     18  N9         9.2710   -7.2580   15.7390 N.pl3 238  SAM238     -0.1439
     19  C8        10.5000   -7.8060   15.9420 C.3   238  SAM238      0.3377
     20  N7        10.8840   -8.4420   14.8630 N.2   238  SAM238     -0.2095
     21  C5         9.9480   -8.3300   13.8900 C.2   238  SAM238      0.2526
     22  C6         9.8350   -8.7630   12.5360 C.2   238  SAM238      0.4393
     23  N6        10.8240   -9.5230   11.9290 N.pl3 238  SAM238      0.2180
     24  N1         8.7170   -8.4460   11.8720 N.2   238  SAM238      0.0021
     25  C2         7.7710   -7.7170   12.4510 C.3   238  SAM238      0.5254
     26  N3         7.8360   -7.2760   13.7080 N.2   238  SAM238     -0.0055
     27  C4         8.9070   -7.5550   14.4540 C.2   238  SAM238      0.3518
@<TRIPOS>BOND
     1    24    25    1
     2    24    22    2
     3    23    22    1
     4    25    26    1
     5    22    21    1
     6    26    27    2
     7    21    27    1
     8    21    20    2
     9    27    18    1
    10    20    19    1
    11    18    19    1
    12    18    17    1
    13    17    12    1
    14    17    15    1
    15    12    11    1
    16     1     2    1
    17    11    10    1
    18    11    13    1
    19    15    16    1
    20    15    13    1
    21     2     6    1
    22     2     3    1
    23    10     8    1
    24    13    14    1
    25     7     6    1
    26     7     8    1
    27     5     3   ar
    28     3     4   ar
    29     8     9    1
