@<TRIPOS>MOLECULE
3bxr_DRR_B_1.pdb
 49 52 0 0 0
SMALL
GASTEIGER

@<TRIPOS>ATOM
      1  CBR       10.2940   -3.0930   15.2920 C.3   201  DRR201      0.0001
      2  CBQ        8.9040   -3.7210   15.1790 C.3   201  DRR201      0.0031
      3  CBO        8.6050   -4.6750   16.3390 C.3   201  DRR201      0.0393
      4  CBP        9.5620   -5.8700   16.3040 C.3   201  DRR201      0.0032
      5  CBN        7.1500   -5.1480   16.2700 C.3   201  DRR201      0.2189
      6  NBM        6.1900   -4.0370   16.3630 N.2   201  DRR201     -0.1899
      7  CBK        5.6430   -3.4700   15.2910 C.1   201  DRR201      0.1470
      8  OBL        5.9580   -3.7460   14.1340 O.2   201  DRR201     -0.2253
      9  CBS        6.8190   -6.1120   17.4110 C.1   201  DRR201      0.1491
     10  OBT        6.8870   -5.7440   18.5840 O.2   201  DRR201     -0.2251
     11  NBU        6.4290   -7.3240   17.0250 N.2   201  DRR201     -0.2046
     12  CBV        6.0600   -8.3670   17.9940 C.3   201  DRR201      0.1414
     13  CBW        5.4020   -9.5500   17.2770 C.3   201  DRR201      0.0745
     14  CBJ        4.2230   -9.1190   16.4010 C.3   201  DRR201      0.2075
     15  OBI        3.2680   -8.3530   17.1550 O.3   201  DRR201     -0.4754
     16  CBH        3.1960   -7.0560   16.7450 C.ar  201  DRR201      0.1385
     17  CBG        3.1980   -6.7210   15.3930 C.ar  201  DRR201      0.0366
     18  CBF        3.1440   -5.3860   15.0010 C.ar  201  DRR201     -0.0011
     19  CBE        3.1210   -6.0450   17.6990 C.ar  201  DRR201      0.0366
     20  CBD        3.0670   -4.7080   17.3080 C.ar  201  DRR201     -0.0011
     21  CBC        3.0900   -4.3770   15.9570 C.ar  201  DRR201     -0.0191
     22  CBB        3.1930   -2.9170   15.4980 C.3   201  DRR201      0.0650
     23  CBA        4.6210   -2.3650   15.5740 C.3   201  DRR201      0.2044
     24  NAZ        4.8310   -1.3470   14.5360 N.am  201  DRR201     -0.1882
     25  CAX        5.9090   -0.5670   14.5650 C.2   201  DRR201      0.2658
     26  OAY        6.7300   -0.5860   15.4810 O.2   201  DRR201     -0.2712
     27  CAN        6.0660    0.3790   13.3720 C.3   201  DRR201      0.1962
     28  CAO        7.2790    1.2980   13.5340 C.3   201  DRR201      0.0610
     29  CAP        7.5170    2.0930   12.2480 C.ar  201  DRR201     -0.0195
     30  CAR        7.3550    3.4740   12.2580 C.ar  201  DRR201     -0.0011
     31  CAT        7.4850    4.1950   11.0750 C.ar  201  DRR201      0.0366
     32  CAQ        7.8250    1.4330   11.0610 C.ar  201  DRR201     -0.0011
     33  CAS        7.9540    2.1570    9.8780 C.ar  201  DRR201      0.0366
     34  CAU        7.7760    3.5390    9.8830 C.ar  201  DRR201      0.1385
     35  OAV        7.8330    4.2730    8.7370 O.3   201  DRR201     -0.4755
     36  CAW        7.0790    3.7040    7.6520 C.3   201  DRR201      0.2054
     37  CAC        5.6300    3.4440    8.0740 C.3   201  DRR201      0.0485
     38  CAB        5.0130    4.7090    8.6710 C.3   201  DRR201      0.0215
     39  CAA        3.5710    4.4740    9.1230 C.3   201  DRR201      0.1218
     40  CAD        3.4190    3.8540   10.5140 C.1   201  DRR201      0.1269
     41  OAE        3.5210    4.5470   11.5250 O.2   201  DRR201     -0.2270
     42  N          3.1800    2.5430   10.5350 N.2   201  DRR201     -0.1913
     43  CA         2.9230    1.8150   11.7860 C.3   201  DRR201      0.2189
     44  CB         1.5570    1.1360   11.6350 C.3   201  DRR201      0.0393
     45  CG1        0.4880    2.1640   11.2560 C.3   201  DRR201      0.0032
     46  CG2        1.1330    0.3800   12.8960 C.3   201  DRR201      0.0032
     47  C          4.0180    0.7950   12.1110 C.1   201  DRR201      0.1495
     48  O          4.0770   -0.2870   11.5290 O.2   201  DRR201     -0.2251
     49  NAM        4.8410    1.1440   13.0990 N.2   201  DRR201     -0.1969
@<TRIPOS>BOND
     1    36    37    1
     2    36    35    1
     3    37    38    1
     4    38    39    1
     5    35    34    1
     6    39    40    1
     7    33    34   ar
     8    33    32   ar
     9    34    31   ar
    10    40    42    2
    11    40    41    2
    12    42    43    1
    13    32    29   ar
    14    31    30   ar
    15    45    44    1
    16    48    47    2
    17    44    43    1
    18    44    46    1
    19    43    47    1
    20    47    49    2
    21    29    30   ar
    22    29    28    1
    23    49    27    1
    24    27    28    1
    25    27    25    1
    26     8     7    2
    27    24    25   am
    28    24    23    1
    29    25    26    2
    30    18    17   ar
    31    18    21   ar
    32     2     1    1
    33     2     3    1
    34     7    23    1
    35     7     6    2
    36    17    16   ar
    37    22    23    1
    38    22    21    1
    39    21    20   ar
    40     5     3    1
    41     5     6    1
    42     5     9    1
    43     4     3    1
    44    14    15    1
    45    14    13    1
    46    16    15    1
    47    16    19   ar
    48    11     9    2
    49    11    12    1
    50    13    12    1
    51    20    19   ar
    52     9    10    2
