@<TRIPOS>MOLECULE
3bxs_DRS_A_1.pdb
 26 27 0 0 0
SMALL
GASTEIGER

@<TRIPOS>ATOM
      1  CAA        0.6290    2.1110   11.2580 C.3   201  DRS201      0.0032
      2  CAX        1.6930    1.1060   11.7040 C.3   201  DRS201      0.0393
      3  CAB        1.2360    0.3760   12.9690 C.3   201  DRS201      0.0032
      4  CAZ        3.0390    1.8050   11.9230 C.3   201  DRS201      0.2189
      5  CAU        4.0770    0.7950   12.4180 C.1   201  DRS201      0.1496
      6  OAE        4.1770   -0.3150   11.8980 O.2   201  DRS201     -0.2251
      7  N          4.8290    1.2110   13.4340 N.2   201  DRS201     -0.1947
      8  CA         5.8410    0.3490   14.0630 C.3   201  DRS201      0.2211
      9  C          5.3400    0.0150   15.4710 C.2   201  DRS201      0.3878
     10  OXT        4.1500    0.1630   15.7470 O.co2 201  DRS201     -0.2435
     11  O          6.1020   -0.4260   16.3300 O.co2 201  DRS201     -0.2435
     12  CB         7.1910    1.0650   14.1520 C.3   201  DRS201      0.0632
     13  CG         7.5810    1.6630   12.7980 C.ar  201  DRS201     -0.0194
     14  CD2        7.5240    3.0430   12.6370 C.ar  201  DRS201     -0.0011
     15  CE2        7.7210    3.6070   11.3800 C.ar  201  DRS201      0.0366
     16  CD1        7.8600    0.8410   11.7100 C.ar  201  DRS201     -0.0011
     17  CE1        8.0570    1.4060   10.4520 C.ar  201  DRS201      0.0366
     18  CZ         7.9770    2.7860   10.2860 C.ar  201  DRS201      0.1385
     19  OH         8.0800    3.3590    9.0550 O.3   201  DRS201     -0.4755
     20  CAM        7.1850    2.7860    8.0850 C.3   201  DRS201      0.2054
     21  CAK        5.7150    2.8350    8.5100 C.3   201  DRS201      0.0485
     22  CAL        5.2100    4.2670    8.7060 C.3   201  DRS201      0.0215
     23  CAN        3.7400    4.2910    9.1340 C.3   201  DRS201      0.1218
     24  CAS        3.5430    3.7630   10.5580 C.1   201  DRS201      0.1269
     25  OAC        3.4460    4.5350   11.5110 O.2   201  DRS201     -0.2270
     26  NAP        3.4900    2.4390   10.6760 N.2   201  DRS201     -0.1913
@<TRIPOS>BOND
     1    20    21    1
     2    20    19    1
     3    21    22    1
     4    22    23    1
     5    19    18    1
     6    23    24    1
     7    18    17   ar
     8    18    15   ar
     9    17    16   ar
    10    24    26    2
    11    24    25    2
    12    26     4    1
    13     1     2    1
    14    15    14   ar
    15     2     4    1
    16     2     3    1
    17    16    13   ar
    18     6     5    2
    19     4     5    1
    20     5     7    2
    21    14    13   ar
    22    13    12    1
    23     7     8    1
    24     8    12    1
    25     8     9    1
    26     9    10   ar
    27     9    11   ar
