@<TRIPOS>MOLECULE
3bxu_HEM_A_1.pdb
 43 50 0 0 0
SMALL
GASTEIGER

@<TRIPOS>ATOM
      1 FE         15.4570   -2.4410    7.6820 Fe     72  HEM72       0.0000
      2  CHA       15.6180   -5.3250    9.5240 C.2    72  HEM72       0.0000
      3  CHB       18.2720   -3.3780    5.9970 C.2    72  HEM72       0.0000
      4  CHC       15.1790    0.3060    5.6770 C.2    72  HEM72       0.0000
      5  CHD       12.9100   -1.3060    9.6200 C.2    72  HEM72       0.0000
      6  NA        16.6670   -4.0500    7.7570 N.ar   72  HEM72       0.0000
      7  C1A       16.6150   -5.1000    8.6310 C.ar   72  HEM72       0.0000
      8  C2A       17.7680   -5.9310    8.4190 C.ar   72  HEM72       0.0000
      9  C3A       18.5140   -5.4010    7.4520 C.ar   72  HEM72       0.0000
     10  C4A       17.8240   -4.2130    7.0020 C.ar   72  HEM72       0.0000
     11  CMA       19.8510   -5.9200    6.8930 C.3    72  HEM72       0.0000
     12  CAA       18.0460   -7.1870    9.2570 C.3    72  HEM72       0.0000
     13  CBA       18.7980   -6.7460   10.5120 C.3    72  HEM72       0.0000
     14  CGA       19.0120   -7.9100   11.4470 C.2    72  HEM72       0.0000
     15  O1A       18.1480   -8.0510   12.3460 O.co2  72  HEM72       0.0000
     16  O2A       20.0140   -8.6440   11.2970 O.co2  72  HEM72       0.0000
     17  NB        16.5100   -1.6810    6.1250 N.2    72  HEM72       0.0000
     18  C1B       17.6650   -2.2060    5.5980 C.2    72  HEM72       0.0000
     19  C2B       18.1320   -1.3320    4.5420 C.2    72  HEM72       0.0000
     20  C3B       17.2730   -0.3170    4.4600 C.2    72  HEM72       0.0000
     21  C4B       16.2450   -0.5150    5.4520 C.2    72  HEM72       0.0000
     22  CMB       19.3860   -1.6120    3.6980 C.3    72  HEM72       0.0000
     23  CAB       17.2740    0.8690    3.4910 C.2    72  HEM72       0.0000
     24  CBB       17.2980    0.5580    2.1560 C.2    72  HEM72       0.0000
     25  NC        14.2650   -0.8180    7.6460 N.ar   72  HEM72       0.0000
     26  C1C       14.3130    0.1980    6.7300 C.ar   72  HEM72       0.0000
     27  C2C       13.2970    1.1530    7.0770 C.ar   72  HEM72       0.0000
     28  C3C       12.6620    0.7080    8.1760 C.ar   72  HEM72       0.0000
     29  C4C       13.2830   -0.5380    8.5560 C.ar   72  HEM72       0.0000
     30  CMC       13.0560    2.4430    6.2800 C.3    72  HEM72       0.0000
     31  CAC       11.5140    1.3660    8.9700 C.2    72  HEM72       0.0000
     32  CBC       10.4570    1.9160    8.3030 C.2    72  HEM72       0.0000
     33  ND        14.4620   -3.1890    9.2620 N.2    72  HEM72       0.0000
     34  C1D       13.4150   -2.5470    9.8990 C.2    72  HEM72       0.0000
     35  C2D       12.9000   -3.3780   10.9440 C.2    72  HEM72       0.0000
     36  C3D       13.7230   -4.6160   10.9220 C.2    72  HEM72       0.0000
     37  C4D       14.6760   -4.4160    9.8520 C.2    72  HEM72       0.0000
     38  CMD       11.7600   -3.0670   11.8970 C.3    72  HEM72       0.0000
     39  CAD       13.4930   -5.7910   11.8690 C.3    72  HEM72       0.0000
     40  CBD       14.2130   -5.6350   13.1850 C.3    72  HEM72       0.0000
     41  CGD       15.6150   -6.0920   12.9960 C.2    72  HEM72       0.0000
     42  O1D       16.5440   -5.3470   13.3700 O.co2  72  HEM72       0.0000
     43  O2D       15.8060   -7.1920   12.4330 O.co2  72  HEM72       0.0000
@<TRIPOS>BOND
     1    24    23    2
     2    23    20    1
     3    22    19    1
     4    20    19    2
     5    20    21    1
     6    19    18    1
     7    21     4    2
     8    21    17    1
     9    18     3    1
    10    18    17    2
    11     4    26    1
    12     3    10    2
    13    17     1    1
    14    30    27    1
    15    26    27   ar
    16    26    25   ar
    17    11     9    1
    18    10     9   ar
    19    10     6   ar
    20    27    28   ar
    21     9     8   ar
    22    25     1    1
    23    25    29   ar
    24     1     6    1
    25     1    33    1
    26     6     7   ar
    27    28    29   ar
    28    28    31    1
    29    32    31    2
    30     8     7   ar
    31     8    12    1
    32    29     5    1
    33     7     2    2
    34    12    13    1
    35    33    37    2
    36    33    34    1
    37     2    37    1
    38     5    34    2
    39    37    36    1
    40    34    35    1
    41    13    14    1
    42    36    35    2
    43    36    39    1
    44    35    38    1
    45    16    14   ar
    46    14    15   ar
    47    39    40    1
    48    43    41   ar
    49    41    40    1
    50    41    42   ar
