@<TRIPOS>MOLECULE
3bxx_NAP_A_1.pdb
 48 52 0 0 0
SMALL
GASTEIGER

@<TRIPOS>ATOM
      1  PA       -72.0370   23.6160   49.6070 P.3   338  NAP338      0.2189
      2  O1A      -71.1090   23.6240   48.4710 O.2   338  NAP338     -0.5170
      3  O2A      -73.0230   24.7040   49.5340 O.3   338  NAP338     -0.4371
      4  O5B      -71.3450   23.5100   51.0560 O.3   338  NAP338     -0.3112
      5  C5B      -70.2690   22.6380   51.2920 C.3   338  NAP338      0.1813
      6  C4B      -69.3130   23.3240   52.2670 C.3   338  NAP338      0.1820
      7  O4B      -68.1980   22.4740   52.4520 O.3   338  NAP338     -0.3136
      8  C3B      -68.7290   24.6260   51.7270 C.3   338  NAP338      0.2157
      9  O3B      -69.3960   25.8140   52.1140 O.3   338  NAP338     -0.2175
     10  C2B      -67.2950   24.6100   52.2290 C.3   338  NAP338      0.2314
     11  O2B      -67.0950   25.6850   53.1310 O.3   338  NAP338     -0.2630
     12  C1B      -67.0250   23.2120   52.7970 C.3   338  NAP338      0.3158
     13  N9A      -65.8580   22.4570   52.2500 N.pl3 338  NAP338     -0.1439
     14  C8A      -65.5280   22.2710   50.9110 C.3   338  NAP338      0.3377
     15  N7A      -64.4240   21.4960   50.7850 N.2   338  NAP338     -0.2095
     16  C5A      -64.0300   21.1690   52.0370 C.2   338  NAP338      0.2526
     17  C6A      -62.9330   20.4070   52.4630 C.2   338  NAP338      0.4393
     18  N6A      -62.0940   19.8710   51.5570 N.pl3 338  NAP338      0.2180
     19  N1A      -62.7590   20.2500   53.8380 N.2   338  NAP338      0.0021
     20  C2A      -63.6740   20.8490   54.7060 C.3   338  NAP338      0.5254
     21  N3A      -64.7610   21.6090   54.2790 N.2   338  NAP338     -0.0055
     22  C4A      -64.9160   21.7620   52.9570 C.2   338  NAP338      0.3518
     23  O3       -73.0180   22.3370   49.6510 O.3   338  NAP338     -0.2703
     24  PN       -74.4780   22.1700   50.3190 P.3   338  NAP338      0.2189
     25  O1N      -75.3720   22.3060   49.1470 O.2   338  NAP338     -0.5170
     26  O2N      -74.6330   23.0360   51.5300 O.3   338  NAP338     -0.4371
     27  O5D      -74.3070   20.6490   50.7680 O.3   338  NAP338     -0.3112
     28  C5D      -73.7780   20.4060   52.0520 C.3   338  NAP338      0.1813
     29  C4D      -73.7150   18.9200   52.4040 C.3   338  NAP338      0.1799
     30  O4D      -74.9400   18.2900   52.1520 O.3   338  NAP338     -0.3327
     31  C3D      -72.6500   18.1620   51.6190 C.3   338  NAP338      0.2158
     32  O3D      -72.2130   17.1150   52.4790 O.3   338  NAP338     -0.2175
     33  C2D      -73.4410   17.7310   50.3830 C.3   338  NAP338      0.2309
     34  O2D      -72.9670   16.6600   49.5630 O.3   338  NAP338     -0.2158
     35  C1D      -74.7460   17.3540   51.1060 C.3   338  NAP338      0.2263
     36  N1N      -75.9510   17.2140   50.2300 N.pl3 338  NAP338     -0.2787
     37  C2N      -76.3130   18.2810   49.4650 C.3   338  NAP338      0.1244
     38  C3N      -77.4020   18.2360   48.6340 C.2   338  NAP338      0.0544
     39  C7N      -77.9630   19.5570   48.2190 C.2   338  NAP338      0.2818
     40  O7N      -79.1700   19.5020   47.4930 O.2   338  NAP338     -0.2670
     41  N7N      -77.3490   20.6950   48.5420 N.am  338  NAP338     -0.0839
     42  C4N      -78.1430   17.0570   48.5830 C.2   338  NAP338      0.0033
     43  C5N      -77.7820   15.9600   49.3630 C.2   338  NAP338      0.0157
     44  C6N      -76.6700   16.0430   50.1900 C.2   338  NAP338      0.0633
     45  P2B      -65.7110   26.5310   53.0400 P.3   338  NAP338      0.5328
     46  O1X      -65.2360   26.8030   51.6170 O.2   338  NAP338     -0.2224
     47  O2X      -65.8500   27.9030   53.6830 O.3   338  NAP338     -0.1145
     48  O3X      -64.7480   25.6170   53.7890 O.3   338  NAP338     -0.1145
@<TRIPOS>BOND
     1    40    39    2
     2    39    41   am
     3    39    38    1
     4     2     1    2
     5    42    38    2
     6    42    43    1
     7    38    37    1
     8    25    24    2
     9    43    44    2
    10    37    36    1
    11     3     1    1
    12    34    33    1
    13     1    23    1
    14     1     4    1
    15    23    24    1
    16    44    36    1
    17    36    35    1
    18    24    27    1
    19    24    26    1
    20    33    35    1
    21    33    31    1
    22    27    28    1
    23    15    14    1
    24    15    16    2
    25    14    13    1
    26     4     5    1
    27    35    30    1
    28     5     6    1
    29    18    17    1
    30    46    45    2
    31    31    29    1
    32    31    32    1
    33     8     9    1
    34     8    10    1
    35     8     6    1
    36    16    17    1
    37    16    22    1
    38    28    29    1
    39    30    29    1
    40    10    12    1
    41    10    11    1
    42    13    12    1
    43    13    22    1
    44     6     7    1
    45     7    12    1
    46    17    19    2
    47    22    21    2
    48    45    11    1
    49    45    47    1
    50    45    48    1
    51    19    20    1
    52    21    20    1
