@<TRIPOS>MOLECULE
3bxx_QUE_A_1.pdb
 22 24 0 0 0
SMALL
GASTEIGER

@<TRIPOS>ATOM
      1  C1       -70.3540   21.2380   42.2870 C.ar  342  QUE342      0.0843
      2  C2       -70.8390   20.3360   41.3440 C.ar  342  QUE342      0.2050
      3  C3       -71.6050   19.1300   41.7630 C.ar  342  QUE342      0.1158
      4  C4       -71.8090   18.9340   43.2150 C.ar  342  QUE342      0.1549
      5  C5       -71.2800   19.8870   44.0830 C.ar  342  QUE342      0.0798
      6  C6       -70.5620   21.0200   43.6550 C.ar  342  QUE342      0.2020
      7  C9       -72.1620   18.0820   40.8540 C.ar  342  QUE342      0.2433
      8  C10      -72.8960   16.9420   41.4620 C.ar  342  QUE342      0.2685
      9  C11      -73.0920   16.8700   42.9420 C.ar  342  QUE342      0.1872
     10  C14      -73.7480   15.6750   43.5860 C.ar  342  QUE342      0.0413
     11  C15      -74.5920   14.6940   43.0310 C.ar  342  QUE342      0.0066
     12  C16      -75.0410   13.5860   43.7610 C.ar  342  QUE342      0.0455
     13  C17      -74.6100   13.3980   45.0670 C.ar  342  QUE342      0.2343
     14  C18      -73.7050   14.3820   45.6800 C.ar  342  QUE342      0.2344
     15  C19      -73.3090   15.4580   44.9010 C.ar  342  QUE342      0.0485
     16  O12      -72.4830   17.8500   43.7000 O.2   342  QUE342     -0.4498
     17  O13      -72.0730   18.1180   39.5950 O.2   342  QUE342     -0.2828
     18  O23      -73.2770   14.2390   46.9580 O.3   342  QUE342     -0.2831
     19  O24      -74.9500   12.3820   45.8890 O.3   342  QUE342     -0.2831
     20  O27      -73.4090   16.0390   40.5840 O.3   342  QUE342     -0.2798
     21  O29      -70.0940   21.8970   44.6040 O.3   342  QUE342     -0.2864
     22  O30      -70.6030   20.5680   40.0400 O.3   342  QUE342     -0.2862
@<TRIPOS>BOND
     1    17     7    2
     2    22     2    1
     3    20     8    1
     4     7     8   ar
     5     7     3   ar
     6     2     3   ar
     7     2     1   ar
     8     8     9   ar
     9     3     4   ar
    10     1     6   ar
    11     9    10    1
    12     9    16   ar
    13    11    10   ar
    14    11    12   ar
    15     4    16   ar
    16     4     5   ar
    17    10    15   ar
    18     6     5   ar
    19     6    21    1
    20    12    13   ar
    21    15    14   ar
    22    13    14   ar
    23    13    19    1
    24    14    18    1
