@<TRIPOS>MOLECULE
3bxz_ADP_A_1.pdb
 27 29 0 0 0
SMALL
GASTEIGER

@<TRIPOS>ATOM
      1  PB        49.7220   -4.7730    8.8960 P.3   901  ADP901      0.5373
      2  O1B       48.9910   -3.8790    9.8220 O.3   901  ADP901     -0.1143
      3  O2B       51.0810   -5.3340    9.5880 O.3   901  ADP901     -0.1143
      4  O3B       48.8170   -5.8750    8.4810 O.2   901  ADP901     -0.2221
      5  PA        51.3230   -3.0300    7.3580 P.3   901  ADP901      0.2231
      6  O1A       52.3160   -2.8950    8.4570 O.3   901  ADP901     -0.4370
      7  O2A       50.6610   -1.7820    7.0420 O.2   901  ADP901     -0.5169
      8  O3A       50.1440   -3.9680    7.6820 O.3   901  ADP901     -0.2261
      9  O5'       51.8920   -3.5970    6.0380 O.3   901  ADP901     -0.3111
     10  C5'       52.6770   -4.7450    5.8880 C.3   901  ADP901      0.1813
     11  C4'       53.9000   -4.1950    5.0770 C.3   901  ADP901      0.1821
     12  O4'       53.9580   -4.8360    3.7930 O.3   901  ADP901     -0.3135
     13  C3'       53.8470   -2.6630    4.7640 C.3   901  ADP901      0.2184
     14  O3'       54.9120   -1.9500    5.3530 O.3   901  ADP901     -0.2174
     15  C2'       53.8700   -2.4740    3.2540 C.3   901  ADP901      0.2570
     16  O2'       54.9880   -1.6400    2.8500 O.3   901  ADP901     -0.2130
     17  C1'       53.9310   -3.8620    2.6940 C.3   901  ADP901      0.3186
     18  N9        52.7400   -4.2360    1.8210 N.pl3 901  ADP901     -0.1439
     19  C8        51.4020   -4.2630    2.2090 C.3   901  ADP901      0.3377
     20  N7        50.6430   -4.6730    1.1550 N.2   901  ADP901     -0.2095
     21  C5        51.4280   -4.9120    0.1120 C.2   901  ADP901      0.2526
     22  C6        51.2390   -5.3320   -1.1860 C.2   901  ADP901      0.4393
     23  N6        50.0160   -5.6350   -1.6250 N.pl3 901  ADP901      0.2180
     24  N1        52.3240   -5.4650   -2.0420 N.2   901  ADP901      0.0021
     25  C2        53.6220   -5.1800   -1.6450 C.3   901  ADP901      0.5254
     26  N3        53.8240   -4.7690   -0.3590 N.2   901  ADP901     -0.0055
     27  C4        52.7780   -4.6090    0.5390 C.2   901  ADP901      0.3518
@<TRIPOS>BOND
     1    24    25    1
     2    24    22    2
     3    25    26    1
     4    23    22    1
     5    22    21    1
     6    26    27    2
     7    21    27    1
     8    21    20    2
     9    27    18    1
    10    20    19    1
    11    18    19    1
    12    18    17    1
    13    17    15    1
    14    17    12    1
    15    16    15    1
    16    15    13    1
    17    12    11    1
    18    13    11    1
    19    13    14    1
    20    11    10    1
    21    10     9    1
    22     9     5    1
    23     7     5    2
    24     5     8    1
    25     5     6    1
    26     8     1    1
    27     4     1    2
    28     1     3    1
    29     1     2    1
