@<TRIPOS>MOLECULE
3by0_DBS_A_1.pdb
 17 17 0 0 0
SMALL
GASTEIGER

@<TRIPOS>ATOM
      1  O4        26.7950   77.3750   63.2350 O.3   191  DBS191     -0.2831
      2  C4        26.8630   78.6580   62.7800 C.ar  191  DBS191      0.2344
      3  C7        25.9700   79.0970   61.8110 C.ar  191  DBS191      0.0454
      4  C1        27.8270   79.5190   63.2840 C.ar  191  DBS191      0.2386
      5  O1        28.6910   79.0620   64.2330 O.3   191  DBS191     -0.2830
      6  C16       27.9060   80.8300   62.8250 C.ar  191  DBS191      0.0971
      7  C13       27.0090   81.2690   61.8540 C.ar  191  DBS191      0.0080
      8  C10       26.0440   80.4050   61.3460 C.ar  191  DBS191      0.0036
      9  C19       28.9420   81.7780   63.3680 C.2   191  DBS191      0.2685
     10  O7        29.3940   82.6440   62.6350 O.2   191  DBS191     -0.2682
     11  N1        29.3250   81.6470   64.6410 N.am  191  DBS191     -0.1890
     12  C22       30.3250   82.4920   65.2840 C.3   191  DBS191      0.2307
     13  C28       29.7580   82.8090   66.6660 C.3   191  DBS191      0.2152
     14  O13       28.5790   83.6130   66.5360 O.3   191  DBS191     -0.2179
     15  C25       31.6440   81.7750   65.3850 C.2   191  DBS191      0.3869
     16  O10       32.0050   81.0510   64.4270 O.co2 191  DBS191     -0.2437
     17  O15       32.3390   81.9190   66.4160 O.co2 191  DBS191     -0.2437
@<TRIPOS>BOND
     1     8     3   ar
     2     8     7   ar
     3     3     2   ar
     4     7     6   ar
     5    10     9    2
     6     2     1    1
     7     2     4   ar
     8     6     4   ar
     9     6     9    1
    10     4     5    1
    11     9    11   am
    12    16    15   ar
    13    11    12    1
    14    12    15    1
    15    12    13    1
    16    15    17   ar
    17    14    13    1
