@<TRIPOS>MOLECULE
3by0_DBH_A_1.pdb
 11 11 0 0 0
SMALL
GASTEIGER

@<TRIPOS>ATOM
      1  O17       33.2540   76.1660   68.3820 O.co2 192  DBH192     -0.2404
      2  C21       32.2130   75.5010   68.1840 C.2   192  DBH192      0.3910
      3  O9        31.4370   75.1820   69.1130 O.co2 192  DBH192     -0.2404
      4  C18       31.8810   75.0740   66.7840 C.ar  192  DBH192      0.1218
      5  C15       32.6650   74.1110   66.1520 C.ar  192  DBH192      0.0100
      6  C12       32.3660   73.7090   64.8530 C.ar  192  DBH192      0.0037
      7  C3        30.7990   75.6360   66.1180 C.ar  192  DBH192      0.2405
      8  O3        30.0310   76.5800   66.7330 O.3   192  DBH192     -0.2829
      9  C6        30.5000   75.2370   64.8220 C.ar  192  DBH192      0.2345
     10  C9        31.2810   74.2730   64.1870 C.ar  192  DBH192      0.0454
     11  O6        29.4390   75.7870   64.1680 O.3   192  DBH192     -0.2831
@<TRIPOS>BOND
     1    11     9    1
     2    10     9   ar
     3    10     6   ar
     4     9     7   ar
     5     6     5   ar
     6     7     8    1
     7     7     4   ar
     8     5     4   ar
     9     4     2    1
    10     2     1   ar
    11     2     3   ar
