@<TRIPOS>MOLECULE
3bym_AM0_A_1.pdb
 35 39 0 0 0
SMALL
GASTEIGER

@<TRIPOS>ATOM
      1  N3        25.0650   34.8940   81.7620 N.2     1  AM01       -0.1674
      2  C7        23.7580   34.9420   82.1330 C.3     1  AM01        0.2753
      3  N4        23.3400   35.7460   83.1420 N.2     1  AM01       -0.1683
      4  C8        24.2580   36.5810   83.8560 C.1     1  AM01        0.1676
      5  N5        25.5940   36.4960   83.4510 N.2     1  AM01       -0.2671
      6  C10       25.9740   35.6700   82.4240 C.1     1  AM01        0.1780
      7  N2        27.3060   35.6270   82.0250 N.pl3   1  AM01       -0.1352
      8  C11       29.6000   35.9630   82.1980 C.ar    1  AM01        0.0576
      9  C13       28.3280   36.5210   82.3500 C.ar    1  AM01        0.0888
     10  C14       28.1480   37.8810   82.8230 C.ar    1  AM01        0.0576
     11  C15       29.2730   38.6780   83.1500 C.ar    1  AM01        0.1768
     12  C16       30.5460   38.0680   82.9760 C.ar    1  AM01        0.2061
     13  C17       30.7430   36.7390   82.5140 C.ar    1  AM01        0.1768
     14  O1        31.6050   38.8850   83.2770 O.3     1  AM01       -0.4654
     15  O2        32.0480   36.2840   82.4220 O.3     1  AM01       -0.4682
     16  C9        32.1140   38.6530   84.5860 C.3     1  AM01        0.2528
     17  C1        25.8310   40.2690   87.6430 C.2     1  AM01       -0.0187
     18  C2        24.3930   40.0980   87.4960 C.2     1  AM01        0.0292
     19  C3        23.8540   39.1370   86.5230 C.2     1  AM01        0.1485
     20  C4        24.7910   38.3500   85.6920 C.2     1  AM01        0.0953
     21  C5        26.2520   38.5530   85.8710 C.2     1  AM01       -0.0028
     22  C6        26.7810   39.5040   86.8410 C.3     1  AM01        0.0535
     23  N6        22.5730   38.7250   86.1420 N.2     1  AM01       -0.3693
     24  C12       22.6550   37.7910   85.1880 C.cat   1  AM01        0.2790
     25  N7        23.9360   37.5280   84.8760 N.pl3   1  AM01       -0.1587
     26  N1        21.4660   37.1380   84.5920 N.pl3   1  AM01       -0.1693
     27  O3        29.2130   39.9900   83.6540 O.3     1  AM01       -0.4682
     28  C18       32.3130   34.9400   81.9810 C.3     1  AM01        0.2526
     29  C19       28.0190   40.8030   83.5440 C.3     1  AM01        0.2526
     30  C20       18.2390   38.0560   86.3490 C.ar    1  AM01        0.0013
     31  C21       17.4900   38.2460   85.1150 C.ar    1  AM01        0.0001
     32  C22       17.9920   38.1070   83.7680 C.ar    1  AM01        0.0013
     33  C23       19.3690   37.7400   83.6390 C.ar    1  AM01        0.0166
     34  C24       20.1680   37.5290   84.8280 C.ar    1  AM01        0.0744
     35  C25       19.6180   37.6870   86.1920 C.ar    1  AM01        0.0166
@<TRIPOS>BOND
     1     1     2    1
     2     1     6    2
     3    28    15    1
     4     7     9    1
     5     7     6    1
     6     2     3    1
     7     8     9   ar
     8     8    13   ar
     9     9    10   ar
    10    15    13    1
    11     6     5    2
    12    13    12   ar
    13    10    11   ar
    14    12    11   ar
    15    12    14    1
    16     3     4    2
    17    11    27    1
    18    14    16    1
    19     5     4    2
    20    29    27    1
    21    33    32   ar
    22    33    34   ar
    23    32    31   ar
    24     4    25    1
    25    26    34    1
    26    26    24    1
    27    34    35   ar
    28    25    24    1
    29    25    20    1
    30    31    30   ar
    31    24    23    2
    32    20    21    2
    33    20    19    1
    34    21    22    1
    35    23    19    2
    36    35    30   ar
    37    19    18    1
    38    22    17    1
    39    18    17    2
