@<TRIPOS>MOLECULE
3byn_RAF_A_1.pdb
 34 36 0 0 0
SMALL
GASTEIGER

@<TRIPOS>ATOM
      1  O6'       38.6330   37.4270   10.4280 O.2   474  RAF474     -0.2855
      2  C6'       38.4130   36.3280   10.9240 C.2   474  RAF474      0.2394
      3  C5'       39.5650   35.5090   11.4580 C.3   474  RAF474      0.2147
      4  C4'       39.1030   34.2120   12.1050 C.3   474  RAF474      0.2217
      5  O4'       39.1540   33.1300   11.1700 O.3   474  RAF474     -0.2171
      6  C3'       40.0950   34.0480   13.2440 C.3   474  RAF474      0.2385
      7  O3'       39.6140   33.2160   14.3130 O.3   474  RAF474     -0.2149
      8  O2'       40.2540   36.2480   12.4770 O.3   474  RAF474     -0.3219
      9  C2'       40.3420   35.4860   13.6920 C.3   474  RAF474      0.2519
     10  C1'       41.7190   35.6240   14.3480 C.3   474  RAF474      0.2406
     11  O1'       42.2510   36.9370   14.1320 O.3   474  RAF474     -0.2149
     12  O1        39.3130   35.8790   14.6150 O.3   474  RAF474     -0.3033
     13  C1        38.9820   37.2760   14.6480 C.3   474  RAF474      0.2713
     14  C2        39.0190   37.8400   16.0750 C.3   474  RAF474      0.2406
     15  O2        40.2680   37.5420   16.7030 O.3   474  RAF474     -0.2149
     16  C3        37.8960   37.2540   16.9300 C.3   474  RAF474      0.2198
     17  O3        37.9020   37.8620   18.2310 O.3   474  RAF474     -0.2174
     18  C4        36.5360   37.4150   16.2510 C.3   474  RAF474      0.2143
     19  O4        35.5260   36.7520   17.0290 O.3   474  RAF474     -0.2176
     20  C5        36.6010   36.8430   14.8280 C.3   474  RAF474      0.1802
     21  O5        37.6710   37.4650   14.1010 O.3   474  RAF474     -0.3257
     22  C6        35.3100   37.0670   14.0490 C.3   474  RAF474      0.1770
     23  O6        35.0650   38.4710   13.9840 O.3   474  RAF474     -0.3259
     24  C1X       33.8390   38.8470   13.3510 C.3   474  RAF474      0.2695
     25  O5X       32.6860   38.3200   14.0370 O.3   474  RAF474     -0.3256
     26  C5X       32.4590   38.8200   15.3650 C.3   474  RAF474      0.1835
     27  C6X       31.2200   38.1430   15.9490 C.3   474  RAF474      0.2142
     28  O6X       31.3900   36.7230   15.8640 O.3   474  RAF474     -0.2176
     29  C4X       32.3410   40.3490   15.3710 C.3   474  RAF474      0.2144
     30  O4X       31.1530   40.7430   14.6680 O.3   474  RAF474     -0.2176
     31  C3X       33.5720   40.9640   14.7010 C.3   474  RAF474      0.2198
     32  O3X       33.4540   42.3920   14.6400 O.3   474  RAF474     -0.2174
     33  C2X       33.7710   40.3790   13.2970 C.3   474  RAF474      0.2406
     34  O2X       34.9600   40.9070   12.6910 O.3   474  RAF474     -0.2149
@<TRIPOS>BOND
     1     1     2    2
     2     2     3    1
     3     5     4    1
     4     3     4    1
     5     3     8    1
     6     4     6    1
     7     8     9    1
     8    34    33    1
     9     6     9    1
    10     6     7    1
    11    33    24    1
    12    33    31    1
    13    24    23    1
    14    24    25    1
    15     9    10    1
    16     9    12    1
    17    23    22    1
    18    25    26    1
    19    22    20    1
    20    21    13    1
    21    21    20    1
    22    11    10    1
    23    12    13    1
    24    32    31    1
    25    13    14    1
    26    30    29    1
    27    31    29    1
    28    20    18    1
    29    26    29    1
    30    26    27    1
    31    28    27    1
    32    14    15    1
    33    14    16    1
    34    18    16    1
    35    18    19    1
    36    16    17    1
