@<TRIPOS>MOLECULE
3byo_AM9_A_1.pdb
 40 46 0 0 0
SMALL
GASTEIGER

@<TRIPOS>ATOM
      1  C1        25.7590   35.8000   82.9300 C.1     1  AM91        0.1709
      2  N1        25.5740   36.5460   84.0690 N.2     1  AM91       -0.3198
      3  C2        24.3710   36.7680   84.6330 C.2     1  AM91        0.2124
      4  C3        23.2140   36.1410   83.9380 C.2     1  AM91        0.1197
      5  C4        23.3890   35.3280   82.7270 C.2     1  AM91        0.1202
      6  N2        24.6820   35.2020   82.2770 N.2     1  AM91       -0.1681
      7  N3        27.0450   35.7260   82.4150 N.pl3   1  AM91       -0.1357
      8  C5        28.2330   36.4210   82.7610 C.ar    1  AM91        0.0827
      9  C6        28.1530   37.6860   83.5170 C.ar    1  AM91        0.0186
     10  C7        29.3120   38.3470   83.9820 C.ar    1  AM91        0.0159
     11  C8        30.5360   37.6840   83.6490 C.ar    1  AM91        0.0480
     12  C9        30.6720   36.4210   82.8680 C.ar    1  AM91        0.0159
     13  C10       29.4780   35.7770   82.4100 C.ar    1  AM91        0.0186
     14  N4        24.2500   37.6210   85.8210 N.pl3   1  AM91       -0.2005
     15  C11       23.0450   37.9130   86.4290 C.2     1  AM91        0.2610
     16  N5        21.8920   37.3370   85.8330 N.am    1  AM91       -0.1964
     17  C12       22.0070   36.4960   84.6180 C.2     1  AM91        0.2646
     18  C13       25.1870   38.3540   86.6280 C.2     1  AM91        0.0870
     19  C14       24.5080   39.0960   87.7040 C.2     1  AM91        0.1478
     20  N6        23.1760   38.7930   87.5500 N.2     1  AM91       -0.3706
     21  C15       26.6570   38.5220   86.5770 C.2     1  AM91       -0.0035
     22  C16       27.4240   39.3580   87.5150 C.3     1  AM91        0.0535
     23  C17       26.6810   40.0600   88.5420 C.2     1  AM91       -0.0187
     24  C18       25.2440   39.9510   88.6590 C.2     1  AM91        0.0292
     25  O1        21.0240   36.0870   84.0120 O.2     1  AM91       -0.2689
     26  C19       20.6760   37.4860   86.4460 C.ar    1  AM91        0.0539
     27  C20       20.1540   36.4340   87.3170 C.ar    1  AM91       -0.0080
     28  C21       18.8550   36.6050   87.9530 C.ar    1  AM91       -0.0030
     29  C22       18.0550   37.7750   87.7670 C.ar    1  AM91       -0.0006
     30  C23       18.6080   38.7620   86.9160 C.ar    1  AM91       -0.0030
     31  C24       19.8840   38.6710   86.2410 C.ar    1  AM91       -0.0080
     32  C25       20.3180   39.7880   85.3160 C.3     1  AM91        0.0323
     33  C26       20.9810   35.1790   87.5170 C.3     1  AM91        0.0323
     34  N7        31.5780   38.3640   84.2280 N.pl3   1  AM91       -0.3046
     35  C27       32.6420   38.7400   83.3310 C.3     1  AM91        0.1081
     36  C28       33.9950   38.4600   83.9710 C.3     1  AM91        0.0938
     37  N8        33.9450   39.0150   85.3340 N.3     1  AM91       -0.2686
     38  C29       33.0200   38.2750   86.2060 C.3     1  AM91        0.0938
     39  C30       31.6620   38.7480   85.6950 C.3     1  AM91        0.1081
     40  C31       35.2380   38.6380   85.8840 C.3     1  AM91        0.0897
@<TRIPOS>BOND
     1     6     5    1
     2     6     1    2
     3    13     8   ar
     4    13    12   ar
     5     7     8    1
     6     7     1    1
     7     5     4    2
     8     8     9   ar
     9    12    11   ar
    10     1     2    2
    11    35    36    1
    12    35    34    1
    13     9    10   ar
    14    11    10   ar
    15    11    34    1
    16     4    17    1
    17     4     3    1
    18    36    37    1
    19    25    17    2
    20     2     3    2
    21    34    39    1
    22    17    16   am
    23     3    14    1
    24    32    31    1
    25    37    40    1
    26    37    38    1
    27    39    38    1
    28    14    15    1
    29    14    18    1
    30    16    15    1
    31    16    26    1
    32    31    26   ar
    33    31    30   ar
    34    15    20    2
    35    26    27   ar
    36    21    18    2
    37    21    22    1
    38    18    19    1
    39    30    29   ar
    40    27    33    1
    41    27    28   ar
    42    22    23    1
    43    20    19    2
    44    19    24    1
    45    29    28   ar
    46    23    24    2
