@<TRIPOS>MOLECULE
3bys_AM5_A_1.pdb
 43 47 0 0 0
SMALL
GASTEIGER

@<TRIPOS>ATOM
      1  C7        15.8440   -2.0780   42.6210 C.ar    1  AM51       -0.0040
      2  C9        15.2730   -1.1080   41.7380 C.ar    1  AM51        0.0043
      3  C10       16.1100   -0.3910   40.7610 C.ar    1  AM51        0.0555
      4  C11       15.6140    0.5960   39.7630 C.2     1  AM51        0.2690
      5  N3        14.3510    1.0020   40.0750 N.am    1  AM51       -0.1755
      6  C14       13.5200    1.7080   39.2520 C.ar    1  AM51        0.0736
      7  C15       12.3290    2.2830   39.8380 C.ar    1  AM51        0.0166
      8  C19       11.3610    3.0710   39.0830 C.ar    1  AM51        0.0013
      9  C18       11.5980    3.2830   37.6900 C.ar    1  AM51        0.0039
     10  C17       12.7880    2.7060   37.0800 C.ar    1  AM51        0.0727
     11  C16       13.7600    1.9160   37.8550 C.ar    1  AM51        0.0205
     12  C20       13.0720    2.8560   35.6060 C.3     1  AM51        0.4186
     13  F1        13.5270    1.6570   35.1850 F       1  AM51       -0.1659
     14  F3        14.0050    3.7700   35.5280 F       1  AM51       -0.1659
     15  F2        12.0700    3.2460   34.8320 F       1  AM51       -0.1659
     16  C12       17.5030   -0.5960   40.6450 C.ar    1  AM51        0.0088
     17  C13       18.0360   -1.5420   41.5160 C.ar    1  AM51        0.0516
     18  C21       17.2430   -2.2750   42.4770 C.ar    1  AM51       -0.0174
     19  C22       17.8590   -3.2860   43.3430 C.3     1  AM51        0.0312
     20  N1        22.9890   -3.2910   38.6360 N.2     1  AM51       -0.2000
     21  C23       21.6720   -3.1870   38.9830 C.3     1  AM51        0.1820
     22  C24       21.2520   -2.4670   40.1590 C.2     1  AM51        0.0966
     23  C25       22.3000   -1.8680   40.9400 C.2     1  AM51        0.1250
     24  N4        23.5710   -1.9970   40.5640 N.2     1  AM51       -0.1777
     25  C26       23.9290   -2.6980   39.4220 C.1     1  AM51        0.1118
     26  N6        19.9180   -2.4170   40.4800 N.am    1  AM51       -0.1762
     27  C8        19.4110   -1.7140   41.4870 C.2     1  AM51        0.2685
     28  O2        20.0610   -1.2060   42.3950 O.2     1  AM51       -0.2680
     29  N7        25.2690   -2.8020   39.0330 N.pl3   1  AM51       -0.1462
     30  C27       27.2200   -0.0210   40.5300 C.ar    1  AM51        0.0159
     31  C28       28.5010   -0.6770   40.4930 C.ar    1  AM51        0.0480
     32  C29       28.7520   -2.0170   39.9880 C.ar    1  AM51        0.0159
     33  C30       27.6450   -2.7460   39.4850 C.ar    1  AM51        0.0186
     34  C5        26.3470   -2.1070   39.5120 C.ar    1  AM51        0.0817
     35  C31       26.1460   -0.7600   40.0290 C.ar    1  AM51        0.0186
     36  C1        30.6470    0.6910   43.0410 C.3     1  AM51        0.0938
     37  N2        31.9210    0.4930   42.3310 N.3     1  AM51       -0.2686
     38  C3        31.9460   -0.5240   41.2810 C.3     1  AM51        0.0938
     39  C4        30.8910   -0.2190   40.2410 C.3     1  AM51        0.1081
     40  N5        29.5880   -0.0570   40.9240 N.pl3   1  AM51       -0.3046
     41  C6        29.4890    0.8090   42.0850 C.3     1  AM51        0.1081
     42  C2        32.8630   -0.0860   43.2830 C.3     1  AM51        0.0897
     43  O1        16.3190    1.0250   38.8360 O.2     1  AM51       -0.2680
@<TRIPOS>BOND
     1    15    12    1
     2    13    12    1
     3    14    12    1
     4    12    10    1
     5    10     9   ar
     6    10    11   ar
     7     9     8   ar
     8    11     6   ar
     9    20    21    1
    10    20    25    2
    11    43     4    2
    12    21    22    1
    13    29    25    1
    14    29    34    1
    15     8     7   ar
    16     6     7   ar
    17     6     5    1
    18    25    24    2
    19    33    34   ar
    20    33    32   ar
    21    34    35   ar
    22     4     5   am
    23     4     3    1
    24    32    31   ar
    25    35    30   ar
    26    22    26    1
    27    22    23    2
    28    39    40    1
    29    39    38    1
    30    26    27   am
    31    31    30   ar
    32    31    40    1
    33    24    23    1
    34    16     3   ar
    35    16    17   ar
    36     3     2   ar
    37    40    41    1
    38    38    37    1
    39    27    17    1
    40    27    28    2
    41    17    18   ar
    42     2     1   ar
    43    41    36    1
    44    37    36    1
    45    37    42    1
    46    18     1   ar
    47    18    19    1
