@<TRIPOS>MOLECULE
3byu_AM6_A_1.pdb
 44 48 0 0 0
SMALL
GASTEIGER

@<TRIPOS>ATOM
      1  C9        16.4110   -2.6680   42.8290 C.ar    1  AM61       -0.0028
      2  C10       15.5150   -1.7630   42.1840 C.ar    1  AM61        0.0163
      3  C11       16.0080   -0.7930   41.2340 C.ar    1  AM61        0.0738
      4  N3        15.0810   -0.0140   40.5860 N.am    1  AM61       -0.1755
      5  C7        15.2360    0.7860   39.4390 C.2     1  AM61        0.2687
      6  C14       14.0420    1.4690   39.0110 C.ar    1  AM61        0.0514
      7  C15       13.2190    2.0870   40.0040 C.ar    1  AM61        0.0042
      8  C19       12.0590    2.7960   39.6250 C.ar    1  AM61        0.0001
      9  C18       11.7300    2.8830   38.2460 C.ar    1  AM61        0.0035
     10  C17       12.5280    2.2750   37.1970 C.ar    1  AM61        0.0676
     11  C16       13.7110    1.5480   37.5940 C.ar    1  AM61       -0.0135
     12  C20       12.0700    2.4480   35.7070 C.3     1  AM61        0.4183
     13  F1        11.1300    3.3030   35.4990 F       1  AM61       -0.1659
     14  F3        11.5220    1.3120   35.2520 F       1  AM61       -0.1659
     15  F2        13.0950    2.9440   34.9770 F       1  AM61       -0.1659
     16  C12       17.3920   -0.6740   40.9050 C.ar    1  AM61        0.0209
     17  C13       18.2550   -1.5890   41.5620 C.ar    1  AM61        0.0527
     18  C21       17.7970   -2.5650   42.4910 C.ar    1  AM61       -0.0173
     19  C22       18.8380   -3.4970   43.0680 C.3     1  AM61        0.0312
     20  N1        23.1340   -3.3940   38.5690 N.2     1  AM61       -0.2000
     21  C23       21.8460   -3.2760   38.8860 C.3     1  AM61        0.1820
     22  C24       21.4490   -2.5430   40.0720 C.2     1  AM61        0.0966
     23  C25       22.4320   -1.9440   40.9170 C.2     1  AM61        0.1250
     24  N4        23.6340   -2.1080   40.5390 N.2     1  AM61       -0.1777
     25  C26       23.9770   -2.8070   39.4000 C.1     1  AM61        0.1118
     26  N6        20.1570   -2.4150   40.3940 N.am    1  AM61       -0.1762
     27  C8        19.6470   -1.4760   41.2770 C.2     1  AM61        0.2685
     28  O2        20.2570   -0.5640   41.8300 O.2     1  AM61       -0.2680
     29  N7        25.2210   -2.8840   39.1070 N.pl3   1  AM61       -0.1462
     30  O1        16.2740    0.9610   38.7930 O.2     1  AM61       -0.2680
     31  C27       14.5690    0.8760   36.5390 C.3     1  AM61        0.0311
     32  C28       27.0160    0.1090   40.4560 C.ar    1  AM61        0.0159
     33  C29       28.3450   -0.5490   40.3810 C.ar    1  AM61        0.0480
     34  C30       28.4850   -1.9620   39.8900 C.ar    1  AM61        0.0159
     35  C31       27.2970   -2.7580   39.4580 C.ar    1  AM61        0.0186
     36  C5        26.1090   -2.0060   39.5660 C.ar    1  AM61        0.0817
     37  C32       25.8810   -0.6230   40.0290 C.ar    1  AM61        0.0186
     38  C1        30.1370    1.0030   42.9610 C.3     1  AM61        0.0938
     39  N2        31.4820    0.7410   42.3210 N.3     1  AM61       -0.2686
     40  C3        31.5920   -0.5110   41.4800 C.3     1  AM61        0.0938
     41  C4        30.8280   -0.0750   40.3670 C.3     1  AM61        0.1081
     42  N5        29.3840    0.2420   40.7710 N.pl3   1  AM61       -0.3046
     43  C6        29.3780    1.4240   41.7860 C.3     1  AM61        0.1081
     44  C2        32.1540    0.3250   43.5220 C.3     1  AM61        0.0897
@<TRIPOS>BOND
     1    15    12    1
     2    14    12    1
     3    13    12    1
     4    12    10    1
     5    31    11    1
     6    10    11   ar
     7    10     9   ar
     8    11     6   ar
     9     9     8   ar
    10    20    21    1
    11    20    25    2
    12    30     5    2
    13    21    22    1
    14     6     5    1
    15     6     7   ar
    16    29    25    1
    17    29    36    1
    18    25    24    2
    19     5     4   am
    20    35    36   ar
    21    35    34   ar
    22    36    37   ar
    23     8     7   ar
    24    34    33   ar
    25    37    32   ar
    26    22    26    1
    27    22    23    2
    28    41    42    1
    29    41    40    1
    30    33    32   ar
    31    33    42    1
    32    26    27   am
    33    24    23    1
    34     4     3    1
    35    42    43    1
    36    16     3   ar
    37    16    17   ar
    38     3     2   ar
    39    27    17    1
    40    27    28    2
    41    40    39    1
    42    17    18   ar
    43    43    38    1
    44     2     1   ar
    45    39    38    1
    46    39    44    1
    47    18     1   ar
    48    18    19    1
