@<TRIPOS>MOLECULE
3byx_C00_A_1.pdb
 25 28 0 0 0
SMALL
GASTEIGER

@<TRIPOS>ATOM
      1  C1       -32.1740   38.2600  -10.0490 C.ar  318  C00318     -0.0041
      2  C2       -31.7390   39.4700   -9.5220 C.ar  318  C00318     -0.0002
      3  C6       -29.7090   38.4540   -8.8180 C.ar  318  C00318      0.0584
      4  C8       -30.1430   37.2310   -9.3310 C.ar  318  C00318      0.0547
      5  C13      -31.8990   35.8250  -10.5220 C.3   318  C00318      0.0312
      6  C15      -29.0130   36.3250   -9.0200 C.2   318  C00318      0.2587
      7  C26      -26.8540   36.4730   -7.9660 C.ar  318  C00318      0.1001
      8  C28      -25.8460   37.2650   -7.3750 C.ar  318  C00318      0.0186
      9  C30      -24.6050   36.7640   -6.9670 C.ar  318  C00318      0.0015
     10  C32      -24.3450   35.4260   -7.1450 C.ar  318  C00318      0.0034
     11  C34      -25.2940   34.6160   -7.7250 C.ar  318  C00318      0.0434
     12  C36      -26.5090   35.1220   -8.1240 C.ar  318  C00318      0.2096
     13  C41      -21.1480   37.9440   -5.9740 C.ar  318  C00318      0.0000
     14  O23      -27.7720   39.2110   -7.6990 O.2   318  C00318     -0.2691
     15  C21      -28.4400   38.2590   -8.2640 C.2   318  C00318      0.2590
     16  C4       -30.4980   39.5880   -8.9150 C.ar  318  C00318      0.0047
     17  N19      -28.0390   36.9830   -8.3750 N.am  318  C00318     -0.1980
     18  O17      -29.0210   35.0800   -9.3360 O.2   318  C00318     -0.2692
     19  C10      -31.3860   37.1220   -9.9510 C.ar  318  C00318     -0.0173
     20  O39      -27.3550   34.2080   -8.6810 O.3   318  C00318     -0.2852
     21  C45      -23.5220   37.5640   -6.3190 C.ar  318  C00318      0.0000
     22  C46      -22.1850   37.2360   -6.5780 C.ar  318  C00318      0.0000
     23  C44      -23.8170   38.5960   -5.4230 C.ar  318  C00318      0.0000
     24  C43      -22.7780   39.3070   -4.8190 C.ar  318  C00318      0.0000
     25  C42      -21.4480   38.9830   -5.0940 C.ar  318  C00318      0.0000
@<TRIPOS>BOND
     1     5    19    1
     2     1    19   ar
     3     1     2   ar
     4    19     4   ar
     5     2    16   ar
     6    18     6    2
     7     4     6    1
     8     4     3   ar
     9     6    17   am
    10    16     3   ar
    11     3    15    1
    12    20    12    1
    13    17    15   am
    14    17     7    1
    15    15    14    2
    16    12     7   ar
    17    12    11   ar
    18     7     8   ar
    19    11    10   ar
    20     8     9   ar
    21    10     9   ar
    22     9    21    1
    23    22    21   ar
    24    22    13   ar
    25    21    23   ar
    26    13    25   ar
    27    23    24   ar
    28    25    24   ar
