@<TRIPOS>MOLECULE
3byx_UMP_A_1.pdb
 20 21 0 0 0
SMALL
GASTEIGER

@<TRIPOS>ATOM
      1  N1       -27.9640   33.9020  -14.0270 N.am  317  UMP317     -0.1790
      2  C2       -27.5130   32.8270  -13.2630 C.1   317  UMP317      0.2844
      3  N3       -28.2290   32.3990  -12.1560 N.2   317  UMP317     -0.2452
      4  C4       -29.3940   33.0780  -11.7880 C.1   317  UMP317      0.2182
      5  C5       -29.8370   34.1650  -12.5490 C.2   317  UMP317      0.1242
      6  C6       -29.1010   34.5830  -13.6650 C.2   317  UMP317      0.0928
      7  O2       -26.4850   32.2340  -13.5780 O.2   317  UMP317     -0.1918
      8  O4       -30.0350   32.7290  -10.7890 O.2   317  UMP317     -0.2085
      9  C1'      -27.1820   34.3910  -15.1740 C.3   317  UMP317      0.2090
     10  C2'      -27.1420   33.5260  -16.4200 C.3   317  UMP317      0.0874
     11  C3'      -26.9410   34.5870  -17.4840 C.3   317  UMP317      0.1857
     12  C4'      -27.6900   35.7930  -16.9660 C.3   317  UMP317      0.1774
     13  O3'      -25.5700   34.9280  -17.5630 O.3   317  UMP317     -0.2203
     14  O4'      -27.6700   35.6660  -15.5550 O.3   317  UMP317     -0.3339
     15  C5'      -29.1350   35.7490  -17.4520 C.3   317  UMP317      0.1858
     16  O5'      -29.2150   36.2320  -18.7750 O.3   317  UMP317     -0.2675
     17  P        -30.1310   35.4860  -19.8630 P.3   317  UMP317      0.5327
     18  OP1      -31.5920   35.6920  -19.5230 O.3   317  UMP317     -0.1145
     19  OP2      -29.8130   35.9540  -21.2550 O.2   317  UMP317     -0.2224
     20  OP3      -29.8140   34.0440  -19.8440 O.3   317  UMP317     -0.1145
@<TRIPOS>BOND
     1    19    17    2
     2    17    20    1
     3    17    18    1
     4    17    16    1
     5    16    15    1
     6    13    11    1
     7    11    12    1
     8    11    10    1
     9    15    12    1
    10    12    14    1
    11    10     9    1
    12    14     9    1
    13     9     1    1
    14     1     6    1
    15     1     2   am
    16     6     5    2
    17     7     2    2
    18     2     3    2
    19     5     4    1
    20     3     4    2
    21     4     8    2
