@<TRIPOS>MOLECULE
3byz_NDP_A_1.pdb
 48 52 0 0 0
SMALL
GASTEIGER

@<TRIPOS>ATOM
      1  PA        42.8200   -6.9350  147.4240 P.3   501  NDP501      0.2189
      2  O1A       43.3680   -8.1610  148.0280 O.3   501  NDP501     -0.4371
      3  O2A       43.7420   -5.8500  147.0160 O.2   501  NDP501     -0.5170
      4  O5B       41.8970   -7.4180  146.1810 O.3   501  NDP501     -0.3112
      5  C5B       41.9880   -6.8090  144.9040 C.3   501  NDP501      0.1813
      6  C4B       41.4530   -7.7520  143.8480 C.3   501  NDP501      0.1820
      7  O4B       41.0790   -6.8250  142.8360 O.3   501  NDP501     -0.3136
      8  C3B       42.6330   -8.6090  143.2720 C.3   501  NDP501      0.2157
      9  O3B       42.2400   -9.9540  142.9380 O.3   501  NDP501     -0.2175
     10  C2B       43.0330   -7.8400  142.0240 C.3   501  NDP501      0.2314
     11  O2B       43.6520   -8.6450  140.9810 O.3   501  NDP501     -0.2630
     12  C1B       41.6890   -7.2660  141.5870 C.3   501  NDP501      0.3158
     13  N9A       41.8350   -6.0370  140.7730 N.pl3 501  NDP501     -0.1439
     14  C8A       42.5540   -4.9670  141.0970 C.3   501  NDP501      0.3377
     15  N7A       42.4160   -4.0710  140.1050 N.2   501  NDP501     -0.2095
     16  C5A       41.6110   -4.5860  139.1800 C.2   501  NDP501      0.2526
     17  C6A       41.1450   -4.1340  137.9660 C.2   501  NDP501      0.4393
     18  N6A       41.4960   -2.9080  137.5470 N.pl3 501  NDP501      0.2180
     19  N1A       40.3460   -4.9140  137.2240 N.2   501  NDP501      0.0021
     20  C2A       40.0120   -6.1030  137.6720 C.3   501  NDP501      0.5254
     21  N3A       40.4650   -6.5480  138.8160 N.2   501  NDP501     -0.0055
     22  C4A       41.2480   -5.8210  139.5940 C.2   501  NDP501      0.3518
     23  O3        41.6670   -6.2370  148.3810 O.3   501  NDP501     -0.2703
     24  PN        40.6920   -7.0730  149.4340 P.3   501  NDP501      0.2189
     25  O1N       41.2100   -6.6380  150.7380 O.3   501  NDP501     -0.4371
     26  O2N       40.5180   -8.5040  149.1100 O.2   501  NDP501     -0.5170
     27  O5D       39.2630   -6.4290  149.0640 O.3   501  NDP501     -0.3112
     28  C5D       38.1440   -7.1010  148.3740 C.3   501  NDP501      0.1813
     29  C4D       36.7850   -6.3220  148.6190 C.3   501  NDP501      0.1799
     30  O4D       36.6130   -6.0610  150.0190 O.3   501  NDP501     -0.3327
     31  C3D       36.8340   -4.9280  148.0150 C.3   501  NDP501      0.2158
     32  O3D       35.5750   -4.6700  147.4390 O.3   501  NDP501     -0.2175
     33  C2D       37.0430   -3.9990  149.1790 C.3   501  NDP501      0.2309
     34  O2D       36.3640   -2.7910  148.9270 O.3   501  NDP501     -0.2158
     35  C1D       36.2740   -4.7060  150.2250 C.3   501  NDP501      0.2263
     36  N1N       36.7960   -4.2920  151.5540 N.pl3 501  NDP501     -0.2787
     37  C2N       37.9780   -4.8510  152.0840 C.3   501  NDP501      0.1244
     38  C3N       38.4160   -4.4210  153.3480 C.2   501  NDP501      0.0544
     39  C7N       39.7120   -4.9750  153.9760 C.2   501  NDP501      0.2818
     40  O7N       39.9300   -4.7490  155.1670 O.2   501  NDP501     -0.2670
     41  N7N       40.5160   -5.7210  153.1930 N.am  501  NDP501     -0.0839
     42  C4N       37.6740   -3.4850  154.0830 C.2   501  NDP501      0.0033
     43  C5N       36.4830   -2.9480  153.5850 C.2   501  NDP501      0.0157
     44  C6N       36.0510   -3.3570  152.3360 C.2   501  NDP501      0.0633
     45  P2B       44.7170   -7.8770  140.0160 P.3   501  NDP501      0.5328
     46  O1X       45.7100   -9.0870  139.8180 O.3   501  NDP501     -0.1145
     47  O2X       45.3230   -6.6840  140.9660 O.3   501  NDP501     -0.1145
     48  O3X       44.1270   -7.1860  138.8850 O.2   501  NDP501     -0.2224
@<TRIPOS>BOND
     1    19    20    1
     2    19    17    2
     3    18    17    1
     4    20    21    1
     5    17    16    1
     6    21    22    2
     7    48    45    2
     8    16    22    1
     9    16    15    2
    10    22    13    1
    11    46    45    1
    12    45    47    1
    13    45    11    1
    14    15    14    1
    15    13    14    1
    16    13    12    1
    17    11    10    1
    18    12    10    1
    19    12     7    1
    20    10     8    1
    21     7     6    1
    22     9     8    1
    23     8     6    1
    24     6     5    1
    25     5     4    1
    26     4     1    1
    27     3     1    2
    28     1     2    1
    29     1    23    1
    30    32    31    1
    31    31    29    1
    32    31    33    1
    33    28    29    1
    34    28    27    1
    35    23    24    1
    36    29    30    1
    37    34    33    1
    38    27    24    1
    39    26    24    2
    40    33    35    1
    41    24    25    1
    42    30    35    1
    43    35    36    1
    44    36    37    1
    45    36    44    1
    46    37    38    1
    47    44    43    2
    48    41    39   am
    49    38    39    1
    50    38    42    2
    51    43    42    1
    52    39    40    2
