@<TRIPOS>MOLECULE
3byz_H11_A_1.pdb
 19 20 0 0 0
SMALL
GASTEIGER

@<TRIPOS>ATOM
      1  C4        38.0480   -0.1060  153.9010 C.2   601  H11601      0.2397
      2  C5        38.5170    1.9670  156.9470 C.3   601  H11601      0.0272
      3  C6        37.9990   -0.4510  157.5090 C.3   601  H11601      0.0292
      4  C7        39.6420   -0.9230  152.2720 C.3   601  H11601      0.0955
      5  C8        40.1570    0.3820  151.7180 C.3   601  H11601      0.0217
      6  C10       41.6350    0.5420  152.0270 C.3   601  H11601      0.0018
      7  C13       42.2980   -2.0990  150.9780 C.3   601  H11601      0.0001
      8  C15       40.0560    3.9580  156.3540 C.3   601  H11601      0.0001
      9  C11       42.3970    0.4620  150.6800 C.3   601  H11601      0.0001
     10  C12       43.1170   -0.8970  150.5170 C.3   601  H11601      0.0000
     11  C14       40.9320   -2.0250  150.2790 C.3   601  H11601      0.0018
     12  C9        39.6870   -2.0460  151.2270 C.3   601  H11601      0.0217
     13  N17       38.2760   -0.5600  152.6620 N.pl3 601  H11601     -0.2054
     14  S         39.2510    0.0000  155.1770 S.3   601  H11601     -0.0495
     15  N         36.8430    0.2700  154.2850 N.2   601  H11601     -0.3122
     16  C2        36.7860    0.6730  155.5560 C.1   601  H11601      0.1897
     17  O         35.7140    1.0370  156.0190 O.2   601  H11601     -0.2133
     18  C         38.0890    0.6070  156.4090 C.3   601  H11601      0.1500
     19  C3        39.3100    2.6990  155.8630 C.3   601  H11601      0.0020
@<TRIPOS>BOND
     1    11     7    1
     2    11    12    1
     3    10     9    1
     4    10     7    1
     5     9     6    1
     6    12     4    1
     7     5     6    1
     8     5     4    1
     9     4    13    1
    10    13     1    1
    11     1    15    2
    12     1    14    1
    13    15    16    2
    14    14    18    1
    15    16    17    2
    16    16    18    1
    17    19     8    1
    18    19     2    1
    19    18     2    1
    20    18     3    1
