@<TRIPOS>MOLECULE
3bz0_C00_A_1.pdb
 25 28 0 0 0
SMALL
GASTEIGER

@<TRIPOS>ATOM
      1  C1       -24.4480    6.3920   22.1880 C.ar  318  C00318     -0.0041
      2  C2       -25.6480    6.8880   21.6600 C.ar  318  C00318     -0.0002
      3  C6       -26.1130    8.0420   23.7160 C.ar  318  C00318      0.0584
      4  C8       -24.9070    7.5560   24.2680 C.ar  318  C00318      0.0547
      5  C13      -22.7620    6.1510   23.9890 C.3   318  C00318      0.0312
      6  C15      -24.9230    8.1580   25.6390 C.2   318  C00318      0.2587
      7  C26      -26.4340    9.5680   26.9020 C.ar  318  C00318      0.1001
      8  C28      -27.5320    9.1160   27.6410 C.ar  318  C00318      0.0186
      9  C30      -28.0010    9.7440   28.8030 C.ar  318  C00318      0.0015
     10  C32      -27.3590   10.8570   29.3110 C.ar  318  C00318      0.0034
     11  C34      -26.2760   11.3090   28.5940 C.ar  318  C00318      0.0434
     12  C36      -25.8350   10.6850   27.4330 C.ar  318  C00318      0.2096
     13  C41      -30.9160    7.5210   29.6400 C.ar  318  C00318      0.0000
     14  O23      -27.8590    9.4500   24.5390 O.2   318  C00318     -0.2691
     15  C21      -26.7400    8.8380   24.6870 C.2   318  C00318      0.2590
     16  C4       -26.4890    7.7140   22.4140 C.ar  318  C00318      0.0047
     17  N19      -26.0230    8.9200   25.7970 N.am  318  C00318     -0.1980
     18  O17      -23.9940    7.9770   26.5060 O.2   318  C00318     -0.2692
     19  C10      -24.0640    6.7200   23.4910 C.ar  318  C00318     -0.0173
     20  O39      -24.7600   11.1860   26.7830 O.3   318  C00318     -0.2852
     21  C45      -29.1630    9.1730   29.5270 C.ar  318  C00318      0.0000
     22  C46      -29.8490    8.0890   28.9680 C.ar  318  C00318      0.0000
     23  C44      -29.5190    9.6900   30.7710 C.ar  318  C00318      0.0000
     24  C43      -30.5940    9.1170   31.4430 C.ar  318  C00318      0.0000
     25  C42      -31.2750    8.0420   30.8740 C.ar  318  C00318      0.0000
@<TRIPOS>BOND
     1     2     1   ar
     2     2    16   ar
     3     1    19   ar
     4    16     3   ar
     5    19     5    1
     6    19     4   ar
     7     3     4   ar
     8     3    15    1
     9     4     6    1
    10    14    15    2
    11    15    17   am
    12     6    17   am
    13     6    18    2
    14    17     7    1
    15    20    12    1
    16     7    12   ar
    17     7     8   ar
    18    12    11   ar
    19     8     9   ar
    20    11    10   ar
    21     9    10   ar
    22     9    21    1
    23    22    21   ar
    24    22    13   ar
    25    21    23   ar
    26    13    25   ar
    27    23    24   ar
    28    25    24   ar
