@<TRIPOS>MOLECULE
3bz0_UMP_A_1.pdb
 20 21 0 0 0
SMALL
GASTEIGER

@<TRIPOS>ATOM
      1  N1       -31.2260    9.5000   23.9040 N.am  317  UMP317     -0.1790
      2  C2       -32.5570    9.4550   24.4070 C.1   317  UMP317      0.2844
      3  N3       -32.9090   10.1790   25.5340 N.2   317  UMP317     -0.2452
      4  C4       -31.9380   10.9350   26.1740 C.1   317  UMP317      0.2182
      5  C5       -30.6270   10.9820   25.7090 C.2   317  UMP317      0.1242
      6  C6       -30.2960   10.2570   24.5780 C.2   317  UMP317      0.0928
      7  O2       -33.4730    8.8070   23.9030 O.2   317  UMP317     -0.1918
      8  O4       -32.2200   11.5750   27.1760 O.2   317  UMP317     -0.2085
      9  C1'      -30.6520    8.7660   22.7070 C.3   317  UMP317      0.2090
     10  C2'      -31.5750    8.1970   21.6180 C.3   317  UMP317      0.0874
     11  C3'      -30.7160    8.2320   20.3540 C.3   317  UMP317      0.1857
     12  C4'      -29.5680    9.2010   20.6400 C.3   317  UMP317      0.1774
     13  O3'      -30.2320    6.9450   20.0320 O.3   317  UMP317     -0.2203
     14  O4'      -29.6530    9.5360   22.0210 O.3   317  UMP317     -0.3339
     15  C5'      -29.6840   10.4850   19.8010 C.3   317  UMP317      0.1858
     16  O5'      -28.5120   10.8550   19.1000 O.3   317  UMP317     -0.2675
     17  P        -28.4030   10.3300   17.6000 P.3   317  UMP317      0.5327
     18  OP1      -27.0540   10.6400   17.0280 O.3   317  UMP317     -0.1145
     19  OP2      -28.5130    8.8540   17.4780 O.3   317  UMP317     -0.1145
     20  OP3      -29.5470   10.8630   16.8410 O.2   317  UMP317     -0.2224
@<TRIPOS>BOND
     1    20    17    2
     2    18    17    1
     3    19    17    1
     4    17    16    1
     5    16    15    1
     6    15    12    1
     7    13    11    1
     8    11    12    1
     9    11    10    1
    10    12    14    1
    11    10     9    1
    12    14     9    1
    13     9     1    1
    14     7     2    2
    15     1     2   am
    16     1     6    1
    17     2     3    2
    18     6     5    2
    19     3     4    2
    20     5     4    1
    21     4     8    2
