@<TRIPOS>MOLECULE
3bz1_PL9_A_1.pdb
 45 45 0 0 0
SMALL
GASTEIGER

@<TRIPOS>ATOM
      1  C2        22.5940   67.1030   33.6020 C.2   367  PL9367      0.0406
      2  C3        23.0180   65.8030   33.4020 C.2   367  PL9367      0.0196
      3  C4        23.5340   65.3920   32.0490 C.2   367  PL9367      0.1876
      4  C5        23.5890   66.3930   30.9130 C.2   367  PL9367      0.0159
      5  C6        23.1590   67.6940   31.1240 C.2   367  PL9367      0.0162
      6  C1        22.6400   68.1030   32.4890 C.2   367  PL9367      0.1913
      7  C7        22.9820   64.7530   34.5220 C.3   367  PL9367      0.0297
      8  C8        21.8760   64.9910   35.5520 C.3   367  PL9367      0.0048
      9  C9        22.1900   65.4100   36.7650 C.3   367  PL9367      0.0003
     10  C10       23.2400   64.6690   37.5780 C.3   367  PL9367      0.0000
     11  C11       21.5100   66.6390   37.3440 C.3   367  PL9367      0.0000
     12  C12       20.6580   66.2500   38.5570 C.3   367  PL9367      0.0000
     13  C13       19.9990   67.4760   39.1150 C.3   367  PL9367      0.0000
     14  C14       19.8130   67.6000   40.4060 C.3   367  PL9367      0.0000
     15  C15       20.8960   68.2240   41.2570 C.3   367  PL9367      0.0000
     16  C16       18.5350   67.0960   41.0580 C.3   367  PL9367      0.0000
     17  C17       17.4600   68.1950   41.0350 C.3   367  PL9367      0.0000
     18  C18       16.3480   67.8640   42.0110 C.3   367  PL9367      0.0000
     19  C19       15.4450   68.7860   42.3280 C.3   367  PL9367      0.0000
     20  C20       15.7830   69.8530   43.3590 C.3   367  PL9367      0.0000
     21  C21       14.0820   68.8110   41.6220 C.3   367  PL9367      0.0000
     22  C22       13.0350   67.9600   42.3830 C.3   367  PL9367      0.0000
     23  C23       11.6190   68.3410   41.9520 C.3   367  PL9367      0.0000
     24  C24       10.8360   69.0630   42.7680 C.3   367  PL9367      0.0000
     25  C25       11.2210   70.5050   43.1280 C.3   367  PL9367      0.0000
     26  C26        9.5770   68.4300   43.3690 C.3   367  PL9367      0.0000
     27  C27        8.2910   69.0860   42.8290 C.3   367  PL9367      0.0000
     28  C28        7.8600   70.2360   43.7260 C.3   367  PL9367      0.0000
     29  C29        6.5870   70.4780   43.9130 C.3   367  PL9367      0.0000
     30  C30        5.8920   69.8870   45.1170 C.3   367  PL9367      0.0000
     31  C31        5.8060   71.2980   42.8950 C.3   367  PL9367      0.0000
     32  C32        5.4830   72.7140   43.4180 C.3   367  PL9367      0.0000
     33  C33        4.5560   73.3820   42.4180 C.3   367  PL9367      0.0000
     34  C34        3.8930   74.4780   42.6910 C.3   367  PL9367      0.0000
     35  C35        3.0810   74.5690   43.9620 C.3   367  PL9367      0.0000
     36  C36        3.9240   75.6390   41.7020 C.3   367  PL9367      0.0000
     37  C37        2.4920   76.0580   41.2890 C.3   367  PL9367      0.0000
     38  C38        2.5320   77.1030   40.1770 C.3   367  PL9367      0.0000
     39  C39        2.0550   76.8220   38.9640 C.3   367  PL9367      0.0000
     40  C40        0.5930   77.0820   38.6230 C.3   367  PL9367      0.0000
     41  C41        2.9630   76.2020   37.9250 C.3   367  PL9367      0.0000
     42  C52       24.1190   65.9510   29.5510 C.3   367  PL9367      0.0341
     43  C53       23.2040   68.7180   29.9940 C.3   367  PL9367      0.0342
     44  O1        23.9080   64.2430   31.8750 O.2   367  PL9367     -0.2873
     45  O2        22.2590   69.2370   32.6930 O.2   367  PL9367     -0.2869
@<TRIPOS>BOND
     1    42     4    1
     2    43     5    1
     3     4     5    2
     4     4     3    1
     5     5     6    1
     6    44     3    2
     7     3     2    1
     8     6    45    2
     9     6     1    1
    10     2     1    2
    11     2     7    1
    12     7     8    1
    13     8     9    1
    14     9    11    1
    15     9    10    1
    16    11    12    1
    17    41    39    1
    18    12    13    1
    19    40    39    1
    20    39    38    1
    21    13    14    1
    22    38    37    1
    23    14    16    1
    24    14    15    1
    25    17    16    1
    26    17    18    1
    27    37    36    1
    28    21    19    1
    29    21    22    1
    30    36    34    1
    31    23    22    1
    32    23    24    1
    33    18    19    1
    34    19    20    1
    35    33    34    1
    36    33    32    1
    37    34    35    1
    38    24    25    1
    39    24    26    1
    40    27    26    1
    41    27    28    1
    42    31    32    1
    43    31    29    1
    44    28    29    1
    45    29    30    1
