@<TRIPOS>MOLECULE
3bz1_HEM_E_1.pdb
 43 50 0 0 0
SMALL
GASTEIGER

@<TRIPOS>ATOM
      1  CHA        8.7320   88.0690   46.9110 C.2    85  HEM85       0.0000
      2  CHB        4.7730   88.8990   49.7310 C.2    85  HEM85       0.0000
      3  CHC        6.2560   85.5460   52.8600 C.2    85  HEM85       0.0000
      4  CHD       10.2620   84.8030   50.1520 C.2    85  HEM85       0.0000
      5  C1A        7.5700   88.6270   47.3660 C.ar   85  HEM85       0.0000
      6  C2A        6.8640   89.7970   46.7910 C.ar   85  HEM85       0.0000
      7  C3A        5.6490   89.9550   47.5770 C.ar   85  HEM85       0.0000
      8  C4A        5.7070   89.0180   48.7060 C.ar   85  HEM85       0.0000
      9  CMA        4.5810   91.0820   47.3510 C.3    85  HEM85       0.0000
     10  CAA        7.2410   90.5940   45.4760 C.3    85  HEM85       0.0000
     11  CBA        8.5010   91.3810   45.6860 C.3    85  HEM85       0.0000
     12  CGA        9.0260   92.1900   44.5640 C.2    85  HEM85       0.0000
     13  O1A        9.4070   93.3260   44.8100 O.co2  85  HEM85       0.0000
     14  O2A        9.1330   91.7100   43.3060 O.co2  85  HEM85       0.0000
     15  C1B        4.8010   88.0740   50.7590 C.2    85  HEM85       0.0000
     16  C2B        3.7590   87.9950   51.7690 C.2    85  HEM85       0.0000
     17  C3B        4.1500   87.0340   52.6870 C.2    85  HEM85       0.0000
     18  C4B        5.4700   86.5200   52.2250 C.2    85  HEM85       0.0000
     19  CMB        2.4720   88.8460   51.7710 C.3    85  HEM85       0.0000
     20  CAB        3.2300   86.7660   53.8340 C.2    85  HEM85       0.0000
     21  CBB        3.5700   86.6140   55.0460 C.2    85  HEM85       0.0000
     22  C1C        7.5170   85.0460   52.4330 C.ar   85  HEM85       0.0000
     23  C2C        8.3770   84.0730   53.1750 C.ar   85  HEM85       0.0000
     24  C3C        9.5200   83.8780   52.4170 C.ar   85  HEM85       0.0000
     25  C4C        9.3610   84.7210   51.2130 C.ar   85  HEM85       0.0000
     26  CMC        8.0380   83.4290   54.5210 C.3    85  HEM85       0.0000
     27  CAC       10.7130   83.0070   52.7050 C.3    85  HEM85       0.0000
     28  CBC       10.4310   81.5350   52.4510 C.3    85  HEM85       0.0000
     29  C1D       10.1810   85.5970   48.9950 C.2    85  HEM85       0.0000
     30  C2D       11.1180   85.5800   47.9280 C.2    85  HEM85       0.0000
     31  C3D       10.6410   86.5080   46.9950 C.2    85  HEM85       0.0000
     32  C4D        9.4280   87.0570   47.5950 C.2    85  HEM85       0.0000
     33  CMD       12.3950   84.7250   47.7900 C.3    85  HEM85       0.0000
     34  CAD       10.8950   87.0960   45.6930 C.3    85  HEM85       0.0000
     35  CBD       10.1510   86.0560   44.7090 C.3    85  HEM85       0.0000
     36  CGD       10.1720   86.3680   43.2180 C.2    85  HEM85       0.0000
     37  O1D       10.6640   87.3520   42.7700 O.co2  85  HEM85       0.0000
     38  O2D        9.5710   85.4520   42.4490 O.co2  85  HEM85       0.0000
     39  NA         6.8660   88.2590   48.5620 N.ar   85  HEM85       0.0000
     40  NB         5.8150   87.1690   51.0470 N.2    85  HEM85       0.0000
     41  NC         8.1550   85.4190   51.2920 N.ar   85  HEM85       0.0000
     42  ND         9.1740   86.4670   48.7610 N.2    85  HEM85       0.0000
     43 FE          7.5400   86.8480   49.9140 Fe     85  HEM85       0.0000
@<TRIPOS>BOND
     1    38    36   ar
     2    37    36   ar
     3    36    35    1
     4    14    12   ar
     5    12    13   ar
     6    12    11    1
     7    35    34    1
     8    10    11    1
     9    10     6    1
    10    34    31    1
    11     6     5   ar
    12     6     7   ar
    13     1     5    2
    14     1    32    1
    15    31    32    1
    16    31    30    2
    17     9     7    1
    18     5    39   ar
    19     7     8   ar
    20    32    42    2
    21    33    30    1
    22    30    29    1
    23    39     8   ar
    24    39    43    1
    25     8     2    2
    26    42    29    1
    27    42    43    1
    28    29     4    2
    29     2    15    1
    30    43    40    1
    31    43    41    1
    32     4    25    1
    33    15    40    2
    34    15    16    1
    35    40    18    1
    36    25    41   ar
    37    25    24   ar
    38    41    22   ar
    39    16    19    1
    40    16    17    2
    41    18    17    1
    42    18     3    2
    43    24    27    1
    44    24    23   ar
    45    22     3    1
    46    22    23   ar
    47    28    27    1
    48    17    20    1
    49    23    26    1
    50    20    21    2
