@<TRIPOS>MOLECULE
3bz2_PL9_A_1.pdb
 45 45 0 0 0
SMALL
GASTEIGER

@<TRIPOS>ATOM
      1  C2        28.1510   -2.5650  -14.1480 C.2   367  PL9367      0.0406
      2  C3        27.4560   -1.7520  -13.2650 C.2   367  PL9367      0.0196
      3  C4        27.5190   -0.2460  -13.4310 C.2   367  PL9367      0.1876
      4  C5        28.3310    0.3670  -14.5510 C.2   367  PL9367      0.0159
      5  C6        29.0290   -0.4610  -15.4360 C.2   367  PL9367      0.0162
      6  C1        28.9660   -1.9640  -15.2670 C.2   367  PL9367      0.1913
      7  C7        26.6120   -2.3310  -12.1120 C.3   367  PL9367      0.0297
      8  C8        27.1060   -3.6830  -11.5970 C.3   367  PL9367      0.0048
      9  C9        26.4190   -4.7930  -11.8600 C.3   367  PL9367      0.0003
     10  C10       24.9270   -4.8710  -11.5640 C.3   367  PL9367      0.0000
     11  C11       27.1260   -5.9860  -12.4630 C.3   367  PL9367      0.0000
     12  C12       27.1720   -7.1390  -11.4600 C.3   367  PL9367      0.0000
     13  C13       27.8530   -8.3080  -12.1080 C.3   367  PL9367      0.0000
     14  C14       27.4410   -9.5340  -11.8780 C.3   367  PL9367      0.0000
     15  C15       26.3510  -10.1440  -12.7430 C.3   367  PL9367      0.0000
     16  C16       28.0310  -10.3280  -10.7270 C.3   367  PL9367      0.0000
     17  C17       29.3170  -11.0540  -11.1700 C.3   367  PL9367      0.0000
     18  C18       29.6510  -12.1510  -10.1650 C.3   367  PL9367      0.0000
     19  C19       30.5440  -13.0890  -10.4640 C.3   367  PL9367      0.0000
     20  C20       30.1490  -14.2830  -11.3260 C.3   367  PL9367      0.0000
     21  C21       31.9810  -12.9490   -9.9910 C.3   367  PL9367      0.0000
     22  C22       32.1870  -13.6500   -8.6300 C.3   367  PL9367      0.0000
     23  C23       33.6770  -13.8890   -8.3920 C.3   367  PL9367      0.0000
     24  C24       34.1880  -15.1120   -8.4980 C.3   367  PL9367      0.0000
     25  C25       34.2080  -15.8140   -9.8510 C.3   367  PL9367      0.0000
     26  C26       34.7240  -15.8220   -7.2630 C.3   367  PL9367      0.0000
     27  C27       36.2560  -16.0180   -7.3480 C.3   367  PL9367      0.0000
     28  C28       36.5880  -17.3820   -7.9370 C.3   367  PL9367      0.0000
     29  C29       37.6290  -18.0470   -7.5030 C.3   367  PL9367      0.0000
     30  C30       37.4460  -19.0870   -6.4180 C.3   367  PL9367      0.0000
     31  C31       39.0210  -17.7240   -8.0360 C.3   367  PL9367      0.0000
     32  C32       39.5110  -18.7950   -9.0210 C.3   367  PL9367      0.0000
     33  C33       40.9690  -18.5100   -9.3390 C.3   367  PL9367      0.0000
     34  C34       41.7640  -19.4020   -9.9100 C.3   367  PL9367      0.0000
     35  C35       41.8700  -20.8030   -9.3430 C.3   367  PL9367      0.0000
     36  C36       42.5950  -18.9990  -11.1220 C.3   367  PL9367      0.0000
     37  C37       44.1020  -19.2400  -10.8720 C.3   367  PL9367      0.0000
     38  C38       44.9260  -18.6680  -12.0210 C.3   367  PL9367      0.0000
     39  C39       45.7810  -17.6720  -11.8100 C.3   367  PL9367      0.0000
     40  C40       47.2230  -17.9600  -11.4450 C.3   367  PL9367      0.0000
     41  C41       45.3120  -16.2400  -11.8980 C.3   367  PL9367      0.0000
     42  C52       28.3710    1.8900  -14.6950 C.3   367  PL9367      0.0341
     43  C53       29.8610    0.1270  -16.5790 C.3   367  PL9367      0.0342
     44  O1        26.9090    0.4770  -12.6580 O.2   367  PL9367     -0.2873
     45  O2        29.5730   -2.6870  -16.0360 O.2   367  PL9367     -0.2869
@<TRIPOS>BOND
     1    43     5    1
     2    45     6    2
     3     5     6    1
     4     5     4    2
     5     6     1    1
     6    42     4    1
     7     4     3    1
     8     1     2    2
     9     3     2    1
    10     3    44    2
    11     2     7    1
    12    15    14    1
    13    11     9    1
    14    11    12    1
    15     7     8    1
    16    13    14    1
    17    13    12    1
    18    38    39    1
    19    38    37    1
    20    41    39    1
    21    14    16    1
    22     9     8    1
    23     9    10    1
    24    39    40    1
    25    20    19    1
    26    17    16    1
    27    17    18    1
    28    36    37    1
    29    36    34    1
    30    19    18    1
    31    19    21    1
    32    21    22    1
    33    34    35    1
    34    34    33    1
    35    25    24    1
    36    33    32    1
    37    32    31    1
    38    22    23    1
    39    24    23    1
    40    24    26    1
    41    31    29    1
    42    28    29    1
    43    28    27    1
    44    29    30    1
    45    27    26    1
