@<TRIPOS>MOLECULE
3bz2_HEM_E_1.pdb
 43 50 0 0 0
SMALL
GASTEIGER

@<TRIPOS>ATOM
      1  CHA       40.4210  -26.6420  -22.9900 C.2    85  HEM85       0.0000
      2  CHB       42.6430  -30.6980  -21.2700 C.2    85  HEM85       0.0000
      3  CHC       38.8420  -31.6380  -18.4580 C.2    85  HEM85       0.0000
      4  CHD       36.5670  -27.6940  -20.2400 C.2    85  HEM85       0.0000
      5  C1A       41.3510  -27.6420  -22.8420 C.ar   85  HEM85       0.0000
      6  C2A       42.5990  -27.8320  -23.6330 C.ar   85  HEM85       0.0000
      7  C3A       43.2810  -28.9640  -23.0380 C.ar   85  HEM85       0.0000
      8  C4A       42.3910  -29.5590  -22.0240 C.ar   85  HEM85       0.0000
      9  CMA       44.6380  -29.5540  -23.5540 C.3    85  HEM85       0.0000
     10  CAA       43.1680  -26.8850  -24.7730 C.3    85  HEM85       0.0000
     11  CBA       42.3050  -26.9510  -25.9920 C.3    85  HEM85       0.0000
     12  CGA       42.6690  -26.1220  -27.1600 C.2    85  HEM85       0.0000
     13  O1A       42.6190  -26.6490  -28.2660 O.co2  85  HEM85       0.0000
     14  O2A       43.0020  -24.8110  -27.0510 O.co2  85  HEM85       0.0000
     15  C1B       41.8650  -31.2630  -20.3710 C.2    85  HEM85       0.0000
     16  C2B       42.2230  -32.4490  -19.6060 C.2    85  HEM85       0.0000
     17  C3B       41.1570  -32.7450  -18.7820 C.2    85  HEM85       0.0000
     18  C4B       40.1120  -31.7200  -19.0560 C.2    85  HEM85       0.0000
     19  CMB       43.5620  -33.2070  -19.7310 C.3    85  HEM85       0.0000
     20  CAB       41.2890  -33.9360  -17.8860 C.2    85  HEM85       0.0000
     21  CBB       40.3980  -34.8180  -17.6630 C.2    85  HEM85       0.0000
     22  C1C       37.8420  -30.6620  -18.7050 C.ar   85  HEM85       0.0000
     23  C2C       36.4760  -30.6480  -18.1200 C.ar   85  HEM85       0.0000
     24  C3C       35.8260  -29.5350  -18.6430 C.ar   85  HEM85       0.0000
     25  C4C       36.7940  -28.8700  -19.5290 C.ar   85  HEM85       0.0000
     26  CMC       35.9130  -31.6780  -17.1370 C.3    85  HEM85       0.0000
     27  CAC       34.4160  -29.0470  -18.3960 C.3    85  HEM85       0.0000
     28  CBC       34.2570  -28.3570  -17.0410 C.3    85  HEM85       0.0000
     29  C1D       37.4350  -27.0210  -21.1130 C.2    85  HEM85       0.0000
     30  C2D       37.1480  -25.7970  -21.7660 C.2    85  HEM85       0.0000
     31  C3D       38.2860  -25.5000  -22.5260 C.2    85  HEM85       0.0000
     32  C4D       39.1890  -26.6230  -22.3100 C.2    85  HEM85       0.0000
     33  CMD       35.8770  -24.9360  -21.6620 C.3    85  HEM85       0.0000
     34  CAD       38.8770  -24.5230  -23.4240 C.3    85  HEM85       0.0000
     35  CBD       39.5910  -23.5000  -22.3680 C.3    85  HEM85       0.0000
     36  CGD       40.3700  -22.3100  -22.9480 C.2    85  HEM85       0.0000
     37  O1D       40.5070  -22.1270  -24.1160 O.co2  85  HEM85       0.0000
     38  O2D       40.9020  -21.4960  -22.0420 O.co2  85  HEM85       0.0000
     39  NA        41.2560  -28.7570  -21.9350 N.ar   85  HEM85       0.0000
     40  NB        40.6000  -30.8300  -20.0090 N.2    85  HEM85       0.0000
     41  NC        37.9720  -29.6040  -19.5480 N.ar   85  HEM85       0.0000
     42  ND        38.6650  -27.4800  -21.4390 N.2    85  HEM85       0.0000
     43 FE         39.5960  -29.1500  -20.7510 Fe     85  HEM85       0.0000
@<TRIPOS>BOND
     1    13    12   ar
     2    12    14   ar
     3    12    11    1
     4    11    10    1
     5    10     6    1
     6    37    36   ar
     7     6     7   ar
     8     6     5   ar
     9     9     7    1
    10    34    31    1
    11    34    35    1
    12     7     8   ar
    13     1     5    2
    14     1    32    1
    15    36    35    1
    16    36    38   ar
    17     5    39   ar
    18    31    32    1
    19    31    30    2
    20    32    42    2
    21     8    39   ar
    22     8     2    2
    23    39    43    1
    24    30    33    1
    25    30    29    1
    26    42    29    1
    27    42    43    1
    28     2    15    1
    29    29     4    2
    30    43    40    1
    31    43    41    1
    32    15    40    2
    33    15    16    1
    34     4    25    1
    35    40    18    1
    36    19    16    1
    37    16    17    2
    38    41    25   ar
    39    41    22   ar
    40    25    24   ar
    41    18    17    1
    42    18     3    2
    43    17    20    1
    44    22     3    1
    45    22    23   ar
    46    24    27    1
    47    24    23   ar
    48    27    28    1
    49    23    26    1
    50    20    21    2
