@<TRIPOS>MOLECULE
3bz3_YAM_A_1.pdb
 35 38 0 0 0
SMALL
GASTEIGER

@<TRIPOS>ATOM
      1  C35        7.2060    1.7490    8.4340 C.3     1  YAM1        0.1404
      2  C34        6.4770    4.4940   10.5380 C.3     1  YAM1        0.1999
      3  N2        14.2790    3.8010    6.7730 N.2     1  YAM1       -0.1686
      4  C7        13.9140    4.9040    7.4010 C.2     1  YAM1        0.1196
      5  C6        12.5840    5.2750    7.4520 C.2     1  YAM1        0.1374
      6  C13        7.9820    4.1550    6.2180 C.ar    1  YAM1        0.0325
      7  C20        7.0960    3.9320    7.2730 C.ar    1  YAM1        0.1478
      8  C21       11.7980   -0.2350    2.6010 C.2     1  YAM1        0.1407
      9  C8        12.2360    6.5400    8.2100 C.3     1  YAM1        0.4237
     10  C18        6.2440    5.3390    5.0870 C.ar    1  YAM1        0.0205
     11  C16       11.7640    1.0410    4.6440 C.2     1  YAM1        0.0029
     12  C19        5.4100    5.0740    6.1560 C.ar    1  YAM1        0.1003
     13  O33        8.7670    5.0540    9.2680 O.2     1  YAM1       -0.1542
     14  S31        8.0250    3.9480    9.7600 S.O2    1  YAM1        0.0600
     15  O32        8.6220    2.8850   10.4820 O.2     1  YAM1       -0.1542
     16  N30        7.4760    3.1920    8.3950 N.pl3   1  YAM1       -0.1761
     17  C17        7.5450    4.8560    5.1080 C.ar    1  YAM1        0.0019
     18  N1         5.8430    4.3860    7.2030 N.ar    1  YAM1       -0.2280
     19  C12        9.3970    3.6440    6.2570 C.3     1  YAM1        0.1440
     20  N10       10.2950    4.6680    6.8030 N.pl3   1  YAM1       -0.2040
     21  C5        11.6570    4.4380    6.7960 C.2     1  YAM1        0.2177
     22  F29       11.3120    6.2820    9.2180 F       1  YAM1       -0.1656
     23  F28       11.7330    7.5280    7.3710 F       1  YAM1       -0.1656
     24  F27       13.3970    7.0620    8.7780 F       1  YAM1       -0.1656
     25  N4        12.1030    3.3470    6.1710 N.2     1  YAM1       -0.3195
     26  C3        13.3890    3.0320    6.1780 C.1     1  YAM1        0.1670
     27  N9        13.8880    1.9310    5.5100 N.pl3   1  YAM1       -0.1548
     28  C11       13.1490    1.1950    4.5730 C.3     1  YAM1        0.1485
     29  C14       13.8490    0.6270    3.5140 C.2     1  YAM1       -0.0003
     30  C22       13.1810   -0.0890    2.5510 C.2     1  YAM1        0.0237
     31  C23       13.6520   -0.8140    1.3110 C.3     1  YAM1        0.1633
     32  C15       11.0890    0.3320    3.6640 C.2     1  YAM1        0.0302
     33  N25       11.3590   -0.9520    1.4890 N.2     1  YAM1       -0.3364
     34  C24       12.3740   -1.3540    0.7050 C.1     1  YAM1        0.1848
     35  O26       12.2760   -2.0020   -0.3200 O.2     1  YAM1       -0.2138
@<TRIPOS>BOND
     1    35    34    2
     2    34    31    1
     3    34    33    2
     4    31    30    1
     5    33     8    2
     6    30     8    1
     7    30    29    2
     8     8    32    1
     9    29    28    1
    10    32    11    2
    11    28    11    1
    12    28    27    1
    13    10    17   ar
    14    10    12   ar
    15    17     6   ar
    16    27    26    1
    17    12    18   ar
    18    25    26    2
    19    25    21    2
    20    26     3    2
    21     6    19    1
    22     6     7   ar
    23    19    20    1
    24     3     4    1
    25    21    20    1
    26    21     5    1
    27    18     7   ar
    28     7    16    1
    29    23     9    1
    30     4     5    2
    31     5     9    1
    32     9    24    1
    33     9    22    1
    34    16     1    1
    35    16    14    1
    36    13    14    2
    37    14    15    2
    38    14     2    1
