@<TRIPOS>MOLECULE
3bz4_GLC_B_1.pdb
 11 11 0 0 0
SMALL
GASTEIGER

@<TRIPOS>ATOM
      1  C1        -1.7910   11.4540   26.0340 C.3   304  GLC304      0.1777
      2  C2        -0.5940   10.7430   25.3950 C.3   304  GLC304      0.2141
      3  C3        -0.5000   11.1370   23.9220 C.3   304  GLC304      0.2173
      4  C4        -1.8390   10.8580   23.2270 C.3   304  GLC304      0.2142
      5  C5        -3.0070   11.4790   24.0120 C.3   304  GLC304      0.1810
      6  C6        -4.3680   11.0610   23.4520 C.3   304  GLC304      0.2141
      7  O2         0.6570   10.9130   26.0730 O.3   304  GLC304     -0.2176
      8  O3         0.5680   10.4410   23.3110 O.3   304  GLC304     -0.2175
      9  O4        -1.7950   11.2940   21.8670 O.3   304  GLC304     -0.2176
     10  O5        -2.9610   11.0600   25.3680 O.3   304  GLC304     -0.3481
     11  O6        -4.4870    9.6580   23.5240 O.3   304  GLC304     -0.2176
@<TRIPOS>BOND
     1     9     4    1
     2     4     3    1
     3     4     5    1
     4     8     3    1
     5     6    11    1
     6     6     5    1
     7     3     2    1
     8     5    10    1
     9    10     1    1
    10     2     1    1
    11     2     7    1
