@<TRIPOS>MOLECULE
3bz4_RAM_B_1.pdb
 10 10 0 0 0
SMALL
GASTEIGER

@<TRIPOS>ATOM
      1  C1        -4.3250   22.5740   29.5370 C.3   306  RAM306      0.1776
      2  C2        -3.1930   22.0620   30.4110 C.3   306  RAM306      0.2141
      3  C3        -3.6160   22.2270   31.8780 C.3   306  RAM306      0.2172
      4  C4        -4.9260   21.4890   32.1280 C.3   306  RAM306      0.2116
      5  C5        -5.9750   21.9810   31.1180 C.3   306  RAM306      0.1483
      6  C6        -7.2460   21.1710   31.2170 C.3   306  RAM306      0.0349
      7  O2        -3.0720   20.6710   30.1890 O.3   306  RAM306     -0.2176
      8  O3        -2.6130   21.7320   32.7230 O.3   306  RAM306     -0.2175
      9  O4        -5.3720   21.6890   33.4730 O.3   306  RAM306     -0.2177
     10  O5        -5.4740   21.8000   29.8020 O.3   306  RAM306     -0.3508
@<TRIPOS>BOND
     1     1    10    1
     2     1     2    1
     3    10     5    1
     4     7     2    1
     5     2     3    1
     6     5     6    1
     7     5     4    1
     8     3     4    1
     9     3     8    1
    10     4     9    1
