@<TRIPOS>MOLECULE
3bz7_ADP_A_1.pdb
 27 29 0 0 0
SMALL
GASTEIGER

@<TRIPOS>ATOM
      1  PB        20.1080   39.5540   51.0400 P.3   1000  ADP1000     0.5373
      2  O1B       21.3550   40.2430   50.5760 O.3   1000  ADP1000    -0.1143
      3  O2B       20.3040   38.1240   51.4600 O.3   1000  ADP1000    -0.1143
      4  O3B       18.8630   39.6300   50.1790 O.2   1000  ADP1000    -0.2221
      5  PA        20.2940   41.4060   53.2600 P.3   1000  ADP1000     0.2231
      6  O1A       21.6580   41.0680   53.7160 O.3   1000  ADP1000    -0.4370
      7  O2A       20.1130   42.6970   52.4950 O.2   1000  ADP1000    -0.5169
      8  O3A       19.5880   40.2620   52.3930 O.3   1000  ADP1000    -0.2261
      9  O5'       19.3110   41.4450   54.5320 O.3   1000  ADP1000    -0.3111
     10  C5'       18.0130   42.0400   54.4920 C.3   1000  ADP1000     0.1813
     11  C4'       17.7850   42.8870   55.7470 C.3   1000  ADP1000     0.1821
     12  O4'       17.8070   42.0180   56.8840 O.3   1000  ADP1000    -0.3135
     13  C3'       18.9060   43.8830   56.0310 C.3   1000  ADP1000     0.2184
     14  O3'       18.7570   45.1070   55.3240 O.3   1000  ADP1000    -0.2174
     15  C2'       18.8430   44.1040   57.5240 C.3   1000  ADP1000     0.2570
     16  O2'       17.7080   44.9050   57.9080 O.3   1000  ADP1000    -0.2130
     17  C1'       18.5140   42.6770   57.9530 C.3   1000  ADP1000     0.3186
     18  N9        19.7050   41.9030   58.3640 N.pl3 1000  ADP1000    -0.1439
     19  C8        20.2420   40.8310   57.7080 C.3   1000  ADP1000     0.3377
     20  N7        21.3020   40.3150   58.3920 N.2   1000  ADP1000    -0.2095
     21  C5        21.4160   41.0680   59.5160 C.2   1000  ADP1000     0.2526
     22  C6        22.3360   41.0940   60.6690 C.2   1000  ADP1000     0.4393
     23  N6        23.3120   40.1500   60.7910 N.pl3 1000  ADP1000     0.2180
     24  N1        22.1400   42.0530   61.6050 N.2   1000  ADP1000     0.0021
     25  C2        21.1430   42.9530   61.5360 C.3   1000  ADP1000     0.5254
     26  N3        20.2540   43.0190   60.5280 N.2   1000  ADP1000    -0.0055
     27  C4        20.3840   42.1210   59.4830 C.2   1000  ADP1000     0.3518
@<TRIPOS>BOND
     1     4     1    2
     2     2     1    1
     3     1     3    1
     4     1     8    1
     5     8     5    1
     6     7     5    2
     7     5     6    1
     8     5     9    1
     9    10     9    1
    10    10    11    1
    11    14    13    1
    12    11    13    1
    13    11    12    1
    14    13    15    1
    15    12    17    1
    16    15    16    1
    17    15    17    1
    18    19    18    1
    19    19    20    1
    20    17    18    1
    21    18    27    1
    22    20    21    2
    23    27    21    1
    24    27    26    2
    25    21    22    1
    26    26    25    1
    27    22    23    1
    28    22    24    2
    29    25    24    1
