@<TRIPOS>MOLECULE
3bz7_BL4_A_1.pdb
 22 25 0 0 0
SMALL
GASTEIGER

@<TRIPOS>ATOM
      1  O2        23.4430   37.4450   40.6530 O.2   800  BL4800     -0.2922
      2  C4        23.5610   37.7310   39.4380 C.2   800  BL4800      0.1958
      3  C3        22.7400   38.8710   38.8640 C.3   800  BL4800      0.2380
      4  O1        23.6870   40.0310   38.6950 O.3   800  BL4800     -0.2094
      5  C2        21.4540   39.3730   39.6150 C.3   800  BL4800      0.0679
      6  C1        20.5680   39.8040   38.4550 C.3   800  BL4800      0.1012
      7  N1        21.0820   39.1510   37.2080 N.pl3 800  BL4800     -0.2638
      8  C12       20.3940   39.4240   35.9940 C.ar  800  BL4800      0.0533
      9  C17       19.6430   40.5770   35.7480 C.ar  800  BL4800      0.0149
     10  C16       18.9630   40.7250   34.5200 C.ar  800  BL4800      0.0013
     11  C15       19.0360   39.7000   33.5410 C.ar  800  BL4800      0.0001
     12  C14       19.7870   38.5430   33.7650 C.ar  800  BL4800      0.0013
     13  C13       20.4660   38.4090   34.9940 C.ar  800  BL4800      0.0149
     14  C11       22.1810   38.4510   37.4830 C.2   800  BL4800      0.1979
     15  N2        23.0610   37.8050   36.6280 N.2   800  BL4800     -0.3918
     16  C10       24.1610   37.1360   37.0970 C.2   800  BL4800      0.1208
     17  C5        24.4590   37.0710   38.5020 C.3   800  BL4800      0.1310
     18  C9        24.9650   36.5570   36.0880 C.2   800  BL4800      0.0283
     19  C8        26.1200   35.8450   36.4880 C.2   800  BL4800      0.0017
     20  C7        26.4460   35.7630   37.8970 C.2   800  BL4800     -0.0076
     21  C6        25.6420   36.3510   38.8750 C.2   800  BL4800     -0.0306
     22  C18       26.1160   36.1890   40.3340 C.3   800  BL4800      0.0272
@<TRIPOS>BOND
     1    11    12   ar
     2    11    10   ar
     3    12    13   ar
     4    10     9   ar
     5    13     8   ar
     6     9     8   ar
     7     8     7    1
     8    18    19    2
     9    18    16    1
    10    19    20    1
    11    15    16    2
    12    15    14    2
    13    16    17    1
    14     7    14    1
    15     7     6    1
    16    14     3    1
    17    20    21    2
    18     6     5    1
    19    17    21    1
    20    17     2    1
    21     4     3    1
    22     3     2    1
    23     3     5    1
    24    21    22    1
    25     2     1    2
