@<TRIPOS>MOLECULE
3bz8_BL6_A_1.pdb
 22 25 0 0 0
SMALL
GASTEIGER

@<TRIPOS>ATOM
      1  C5        23.8880   37.5220   39.1050 C.3   800  BL6800      0.1346
      2  C4        22.9660   38.3380   39.9610 C.2   800  BL6800      0.1961
      3  C3        22.3250   39.5030   39.2220 C.3   800  BL6800      0.2380
      4  C2        21.0500   40.0950   39.8740 C.3   800  BL6800      0.0679
      5  C1        20.2890   40.6290   38.6120 C.3   800  BL6800      0.1012
      6  C6        24.9820   36.8370   39.7010 C.2   800  BL6800     -0.0123
      7  C8        25.5850   36.0670   37.4690 C.2   800  BL6800     -0.0199
      8  C10       23.6530   37.4980   37.6840 C.2   800  BL6800      0.1208
      9  C11       21.7720   38.9070   37.9220 C.2   800  BL6800      0.1979
     10  C12       20.1450   39.8010   36.2100 C.ar  800  BL6800      0.0533
     11  C13       20.3800   38.8380   35.1930 C.ar  800  BL6800      0.0149
     12  C14       19.7670   39.0270   33.9310 C.ar  800  BL6800      0.0013
     13  C17       19.3130   40.9320   35.9200 C.ar  800  BL6800      0.0149
     14  O2        22.8100   38.1190   41.1660 O.2   800  BL6800     -0.2922
     15  O1        23.3310   40.5630   38.9110 O.3   800  BL6800     -0.2094
     16  N1        20.6630   39.6560   37.5210 N.pl3 800  BL6800     -0.2638
     17  C16       18.7260   41.1120   34.6510 C.ar  800  BL6800      0.0013
     18  C15       18.9350   40.1430   33.6580 C.ar  800  BL6800      0.0001
     19  N2        22.6030   38.1890   37.1170 N.2   800  BL6800     -0.3918
     20  C9        24.5190   36.7610   36.8580 C.2   800  BL6800      0.0241
     21  C18       26.5060   35.3070   36.5730 C.3   800  BL6800      0.0311
     22  C7        25.8360   36.0990   38.8690 C.2   800  BL6800     -0.0079
@<TRIPOS>BOND
     1    18    12   ar
     2    18    17   ar
     3    12    11   ar
     4    17    13   ar
     5    11    10   ar
     6    13    10   ar
     7    10    16    1
     8    21     7    1
     9    20     7    2
    10    20     8    1
    11    19     8    2
    12    19     9    2
    13     7    22    1
    14    16     9    1
    15    16     5    1
    16     8     1    1
    17     9     3    1
    18     5     4    1
    19    22     6    2
    20    15     3    1
    21     1     6    1
    22     1     2    1
    23     3     4    1
    24     3     2    1
    25     2    14    2
