@<TRIPOS>MOLECULE
3bz8_ADP_A_1.pdb
 27 29 0 0 0
SMALL
GASTEIGER

@<TRIPOS>ATOM
      1  PB        20.0010   39.6520   51.3340 P.3   1000  ADP1000     0.5373
      2  O1B       21.2810   40.2880   50.8310 O.3   1000  ADP1000    -0.1143
      3  O2B       20.1480   38.2380   51.6820 O.3   1000  ADP1000    -0.1143
      4  O3B       18.7900   39.8640   50.4590 O.2   1000  ADP1000    -0.2221
      5  PA        20.2380   41.6520   53.5330 P.3   1000  ADP1000     0.2231
      6  O1A       21.6360   41.2360   53.9060 O.3   1000  ADP1000    -0.4370
      7  O2A       20.0290   42.9360   52.8200 O.2   1000  ADP1000    -0.5169
      8  O3A       19.5090   40.5740   52.5920 O.3   1000  ADP1000    -0.2261
      9  O5'       19.2920   41.7360   54.8170 O.3   1000  ADP1000    -0.3111
     10  C5'       17.9090   42.0980   54.7470 C.3   1000  ADP1000     0.1813
     11  C4'       17.6730   43.0420   55.9470 C.3   1000  ADP1000     0.1821
     12  O4'       17.6680   42.2170   57.1240 O.3   1000  ADP1000    -0.3135
     13  C3'       18.7850   44.0750   56.2110 C.3   1000  ADP1000     0.2184
     14  O3'       18.6630   45.3310   55.5590 O.3   1000  ADP1000    -0.2174
     15  C2'       18.7260   44.2740   57.7190 C.3   1000  ADP1000     0.2570
     16  O2'       17.5320   44.9990   58.0430 O.3   1000  ADP1000    -0.2130
     17  C1'       18.4160   42.8660   58.1900 C.3   1000  ADP1000     0.3186
     18  N9        19.6040   42.0620   58.5800 N.pl3 1000  ADP1000    -0.1439
     19  C8        20.1250   41.0000   57.9340 C.3   1000  ADP1000     0.3377
     20  N7        21.1790   40.4640   58.6170 N.2   1000  ADP1000    -0.2095
     21  C5        21.3080   41.2380   59.7230 C.2   1000  ADP1000     0.2526
     22  C6        22.1750   41.2110   60.9020 C.2   1000  ADP1000     0.4393
     23  N6        23.1680   40.2630   61.0160 N.pl3 1000  ADP1000     0.2180
     24  N1        21.9590   42.1770   61.8170 N.2   1000  ADP1000     0.0021
     25  C2        21.0270   43.1310   61.7490 C.3   1000  ADP1000     0.5254
     26  N3        20.1390   43.1770   60.7620 N.2   1000  ADP1000    -0.0055
     27  C4        20.2680   42.2640   59.7190 C.2   1000  ADP1000     0.3518
@<TRIPOS>BOND
     1     4     1    2
     2     2     1    1
     3     1     3    1
     4     1     8    1
     5     8     5    1
     6     7     5    2
     7     5     6    1
     8     5     9    1
     9    10     9    1
    10    10    11    1
    11    14    13    1
    12    11    13    1
    13    11    12    1
    14    13    15    1
    15    12    17    1
    16    15    16    1
    17    15    17    1
    18    19    18    1
    19    19    20    1
    20    17    18    1
    21    18    27    1
    22    20    21    2
    23    27    21    1
    24    27    26    2
    25    21    22    1
    26    26    25    1
    27    22    23    1
    28    22    24    2
    29    25    24    1
