@<TRIPOS>MOLECULE
3bz9_BL7_A_1.pdb
 21 24 0 0 0
SMALL
GASTEIGER

@<TRIPOS>ATOM
      1  O2        23.5380   37.2960   40.6970 O.2   800  BL7800     -0.2882
      2  C4        23.5960   37.5320   39.4920 C.2   800  BL7800      0.2103
      3  C3        22.8420   38.6820   38.8930 C.3   800  BL7800      0.2413
      4  O1        23.7690   39.7860   38.6700 O.3   800  BL7800     -0.2090
      5  C2        21.5460   39.0920   39.6130 C.3   800  BL7800      0.0682
      6  C1        20.6200   39.6690   38.5110 C.3   800  BL7800      0.1012
      7  N1        21.1140   38.9630   37.3010 N.pl3 800  BL7800     -0.2637
      8  C12       20.5140   39.1470   36.0400 C.ar  800  BL7800      0.0533
      9  C17       19.8180   40.3160   35.7400 C.ar  800  BL7800      0.0149
     10  C16       19.1870   40.4800   34.5220 C.ar  800  BL7800      0.0013
     11  C15       19.2370   39.4590   33.5600 C.ar  800  BL7800      0.0001
     12  C14       19.9240   38.2740   33.8570 C.ar  800  BL7800      0.0013
     13  C13       20.5610   38.1070   35.0790 C.ar  800  BL7800      0.0149
     14  C11       22.2650   38.2300   37.5800 C.2   800  BL7800      0.1982
     15  N2        23.0350   37.5400   36.7310 N.2   800  BL7800     -0.3921
     16  C10       24.1560   36.8770   37.1590 C.2   800  BL7800      0.1175
     17  C5        24.4600   36.7770   38.5320 C.2   800  BL7800      0.0633
     18  C9        24.9870   36.2190   36.2270 C.3   800  BL7800      0.0851
     19  C8        26.1090   35.4840   36.6220 C.2   800  BL7800     -0.0187
     20  C7        26.4090   35.4150   37.9900 C.2   800  BL7800     -0.0040
     21  C6        25.6110   36.0660   38.9450 C.2   800  BL7800      0.0049
@<TRIPOS>BOND
     1    11    12   ar
     2    11    10   ar
     3    12    13   ar
     4    10     9   ar
     5    13     8   ar
     6     9     8   ar
     7     8     7    1
     8    18    19    1
     9    18    16    1
    10    19    20    2
    11    15    16    2
    12    15    14    2
    13    16    17    1
    14     7    14    1
    15     7     6    1
    16    14     3    1
    17    20    21    1
    18     6     5    1
    19    17    21    2
    20    17     2    1
    21     4     3    1
    22     3     2    1
    23     3     5    1
    24     2     1    2
