@<TRIPOS>MOLECULE
3bz9_ADP_A_1.pdb
 27 29 0 0 0
SMALL
GASTEIGER

@<TRIPOS>ATOM
      1  PB        20.2200   39.3930   51.0910 P.3   1000  ADP1000     0.5373
      2  O1B       21.4430   40.0750   50.5690 O.3   1000  ADP1000    -0.1143
      3  O2B       20.4360   37.9640   51.4790 O.3   1000  ADP1000    -0.1143
      4  O3B       19.0080   39.4750   50.1730 O.2   1000  ADP1000    -0.2221
      5  PA        20.4230   41.3260   53.2840 P.3   1000  ADP1000     0.2231
      6  O1A       21.7470   40.9340   53.7820 O.3   1000  ADP1000    -0.4370
      7  O2A       20.2340   42.6380   52.5040 O.2   1000  ADP1000    -0.5169
      8  O3A       19.7170   40.1580   52.4370 O.3   1000  ADP1000    -0.2261
      9  O5'       19.4720   41.3160   54.5790 O.3   1000  ADP1000    -0.3111
     10  C5'       18.1940   41.9520   54.5130 C.3   1000  ADP1000     0.1813
     11  C4'       17.9750   42.8740   55.7190 C.3   1000  ADP1000     0.1821
     12  O4'       17.9940   42.0330   56.8500 O.3   1000  ADP1000    -0.3135
     13  C3'       19.0770   43.8880   56.0190 C.3   1000  ADP1000     0.2184
     14  O3'       18.9040   45.1150   55.2660 O.3   1000  ADP1000    -0.2174
     15  C2'       18.9610   44.0950   57.4910 C.3   1000  ADP1000     0.2570
     16  O2'       17.7090   44.7820   57.7520 O.3   1000  ADP1000    -0.2130
     17  C1'       18.6230   42.6770   57.9550 C.3   1000  ADP1000     0.3186
     18  N9        19.7940   41.8600   58.3750 N.pl3 1000  ADP1000    -0.1439
     19  C8        20.3130   40.7930   57.7340 C.3   1000  ADP1000     0.3377
     20  N7        21.3550   40.2570   58.3850 N.2   1000  ADP1000    -0.2095
     21  C5        21.5130   41.0040   59.5120 C.2   1000  ADP1000     0.2526
     22  C6        22.4070   40.9920   60.6850 C.2   1000  ADP1000     0.4393
     23  N6        23.4130   40.0560   60.8110 N.pl3 1000  ADP1000     0.2180
     24  N1        22.2340   41.9710   61.6130 N.2   1000  ADP1000     0.0021
     25  C2        21.2690   42.8900   61.5320 C.3   1000  ADP1000     0.5254
     26  N3        20.4060   42.9490   60.5040 N.2   1000  ADP1000    -0.0055
     27  C4        20.4910   42.0600   59.4860 C.2   1000  ADP1000     0.3518
@<TRIPOS>BOND
     1     4     1    2
     2     2     1    1
     3     1     3    1
     4     1     8    1
     5     8     5    1
     6     7     5    2
     7     5     6    1
     8     5     9    1
     9    10     9    1
    10    10    11    1
    11    14    13    1
    12    11    13    1
    13    11    12    1
    14    13    15    1
    15    12    17    1
    16    15    16    1
    17    15    17    1
    18    19    18    1
    19    19    20    1
    20    17    18    1
    21    18    27    1
    22    20    21    2
    23    27    21    1
    24    27    26    2
    25    21    22    1
    26    26    25    1
    27    22    23    1
    28    22    24    2
    29    25    24    1
