@<TRIPOS>MOLECULE
3bzu_NAP_A_1.pdb
 48 52 0 0 0
SMALL
GASTEIGER

@<TRIPOS>ATOM
      1  PA        10.5180   -4.7510   22.7830 P.3     1  NAP1        0.2189
      2  O1A       11.8680   -4.2010   23.0540 O.3     1  NAP1       -0.4371
      3  O2A       10.4670   -5.8240   21.7450 O.2     1  NAP1       -0.5170
      4  O5B        9.7730   -5.3060   24.0940 O.3     1  NAP1       -0.3112
      5  C5B        8.5460   -5.9730   23.9430 C.3     1  NAP1        0.1813
      6  C4B        8.1530   -6.5550   25.3070 C.3     1  NAP1        0.1820
      7  O4B        6.9240   -7.3150   25.2540 O.3     1  NAP1       -0.3136
      8  C3B        9.2510   -7.4940   25.7560 C.3     1  NAP1        0.2157
      9  O3B        9.3710   -7.3950   27.1450 O.3     1  NAP1       -0.2175
     10  C2B        8.7230   -8.8690   25.4190 C.3     1  NAP1        0.2314
     11  O2B        9.2880   -9.8140   26.3250 O.3     1  NAP1       -0.2630
     12  C1B        7.2010   -8.6690   25.5720 C.3     1  NAP1        0.3158
     13  N9A        6.4500   -9.7050   24.8350 N.pl3   1  NAP1       -0.1439
     14  C8A        6.6350  -10.2570   23.5840 C.3     1  NAP1        0.3377
     15  N7A        5.7060  -11.2390   23.3830 N.2     1  NAP1       -0.2095
     16  C5A        4.9230  -11.3150   24.4830 C.2     1  NAP1        0.2526
     17  C6A        3.8290  -12.1190   24.8440 C.2     1  NAP1        0.4393
     18  N6A        3.2980  -13.0710   24.0510 N.pl3   1  NAP1        0.2180
     19  N1A        3.3100  -11.9650   26.0960 N.2     1  NAP1        0.0021
     20  C2A        3.7830  -11.0320   26.9700 C.3     1  NAP1        0.5254
     21  N3A        4.8250  -10.2170   26.6230 N.2     1  NAP1       -0.0055
     22  C4A        5.4040  -10.3810   25.4010 C.2     1  NAP1        0.3518
     23  O3         9.4920   -3.5560   22.4590 O.3     1  NAP1       -0.2703
     24  PN         9.5410   -1.9900   22.2440 P.3     1  NAP1        0.2189
     25  O1N       10.0220   -1.4810   23.5110 O.3     1  NAP1       -0.4371
     26  O2N       10.1590   -1.7220   20.8920 O.2     1  NAP1       -0.5170
     27  O5D        7.9420   -1.7090   22.1220 O.3     1  NAP1       -0.3112
     28  C5D        7.2080   -1.2820   23.2510 C.3     1  NAP1        0.1813
     29  C4D        5.8810   -0.6580   22.8240 C.3     1  NAP1        0.1799
     30  O4D        6.0860    0.5620   22.1490 O.3     1  NAP1       -0.3327
     31  C3D        5.0810   -1.5300   21.8730 C.3     1  NAP1        0.2158
     32  O3D        3.7390   -1.4460   22.2920 O.3     1  NAP1       -0.2175
     33  C2D        5.2370   -0.8800   20.5260 C.3     1  NAP1        0.2309
     34  O2D        4.0860   -1.0260   19.7230 O.3     1  NAP1       -0.2158
     35  C1D        5.4560    0.5610   20.8870 C.3     1  NAP1        0.2263
     36  N1N        6.2460    1.2630   19.8610 N.pl3   1  NAP1       -0.2787
     37  C2N        7.6240    1.1210   19.7850 C.3     1  NAP1        0.1244
     38  C3N        8.3280    1.8060   18.7820 C.2     1  NAP1        0.0544
     39  C7N        9.7750    1.4640   18.4900 C.2     1  NAP1        0.2818
     40  O7N       10.3390    1.8870   17.2720 O.2     1  NAP1       -0.2670
     41  N7N       10.4610    0.7300   19.3720 N.am    1  NAP1       -0.0839
     42  C4N        7.6470    2.5900   17.8740 C.2     1  NAP1        0.0033
     43  C5N        6.2550    2.7140   17.9430 C.2     1  NAP1        0.0157
     44  C6N        5.5810    2.0530   18.9580 C.2     1  NAP1        0.0633
     45  P2B        9.2570  -11.4150   26.1390 P.3     1  NAP1        0.5328
     46  O1X       10.1840  -11.9940   27.1470 O.3     1  NAP1       -0.1145
     47  O2X        7.8710  -11.9820   26.4190 O.3     1  NAP1       -0.1145
     48  O3X        9.6260  -11.8200   24.7250 O.2     1  NAP1       -0.2224
@<TRIPOS>BOND
     1    40    39    2
     2    42    43    1
     3    42    38    2
     4    43    44    2
     5    39    38    1
     6    39    41   am
     7    38    37    1
     8    44    36    1
     9    34    33    1
    10    37    36    1
    11    36    35    1
    12    33    35    1
    13    33    31    1
    14    35    30    1
    15    26    24    2
    16     3     1    2
    17    31    32    1
    18    31    29    1
    19    27    24    1
    20    27    28    1
    21    30    29    1
    22    24    23    1
    23    24    25    1
    24    23     1    1
    25     1     2    1
    26     1     4    1
    27    29    28    1
    28    15    14    1
    29    15    16    2
    30    14    13    1
    31     5     4    1
    32     5     6    1
    33    18    17    1
    34    16    17    1
    35    16    22    1
    36    48    45    2
    37    13    22    1
    38    13    12    1
    39    17    19    2
    40     7     6    1
    41     7    12    1
    42     6     8    1
    43    22    21    2
    44    10    12    1
    45    10     8    1
    46    10    11    1
    47     8     9    1
    48    19    20    1
    49    45    11    1
    50    45    47    1
    51    45    46    1
    52    21    20    1
