@<TRIPOS>MOLECULE
3bzu_A21_A_1.pdb
 21 22 0 0 0
SMALL
GASTEIGER

@<TRIPOS>ATOM
      1  F3         8.0820    3.8190   14.3000 F     293  A21293     -0.1679
      2  C2         7.9040    3.5540   13.0270 C.3   293  A21293      0.4203
      3  F4         7.4080    4.6310   12.4290 F     293  A21293     -0.1679
      4  F1         9.0610    3.2420   12.4640 F     293  A21293     -0.1679
      5  C8         6.9900    2.3320   12.9230 C.3   293  A21293      0.2364
      6  C13        5.7200    2.4640   13.7560 C.1   293  A21293      0.1981
      7  O2         4.8550    3.2630   13.4930 O.2   293  A21293     -0.2130
      8  N2         5.6950    1.6320   14.7900 N.2   293  A21293     -0.3120
      9  C4         6.6850    2.0360   11.4560 C.3   293  A21293      0.0381
     10  S1         7.8710    0.9660   13.6270 S.3   293  A21293     -0.0413
     11  C11        6.6540    0.7880   14.7950 C.2   293  A21293      0.2403
     12  N3         6.6390   -0.2100   15.6840 N.pl3 293  A21293     -0.2008
     13  C1         7.6400   -1.2460   15.8520 C.3   293  A21293      0.1199
     14  C3         7.5290   -1.8720   17.2470 C.3   293  A21293      0.0284
     15  C6         7.5630   -2.2850   14.7800 C.ar  293  A21293      0.0249
     16  C18        8.7680   -2.7660   14.2370 C.ar  293  A21293      0.1377
     17  F2         9.9290   -2.2910   14.7160 F     293  A21293     -0.2044
     18  C22        6.3390   -2.7760   14.2860 C.ar  293  A21293     -0.0004
     19  C21        6.3340   -3.7340   13.2780 C.ar  293  A21293     -0.0001
     20  C9         7.5450   -4.2090   12.7640 C.ar  293  A21293      0.0023
     21  C19        8.7740   -3.7290   13.2310 C.ar  293  A21293      0.0294
@<TRIPOS>BOND
     1     9     5    1
     2     3     2    1
     3     4     2    1
     4    20    21   ar
     5    20    19   ar
     6     5     2    1
     7     5    10    1
     8     5     6    1
     9     2     1    1
    10    21    16   ar
    11    19    18   ar
    12     7     6    2
    13    10    11    1
    14     6     8    2
    15    16    17    1
    16    16    15   ar
    17    18    15   ar
    18    15    13    1
    19     8    11    2
    20    11    12    1
    21    12    13    1
    22    13    14    1
