@<TRIPOS>MOLECULE
3c06_14C_A_1.pdb
 19 21 0 0 0
SMALL
GASTEIGER

@<TRIPOS>ATOM
      1  C10       24.1350  -38.8590   -5.6110 C.ar  318  14C318     -0.0173
      2  C13       24.7640  -39.9380   -4.7600 C.3   318  14C318      0.0312
      3 CL39       30.6320  -37.5970  -10.2050 Cl    318  14C318     -0.0662
      4  C30       29.8590  -36.5360   -8.9630 C.2   318  14C318      0.1167
      5  C28       28.5600  -36.8380   -8.5920 C.3   318  14C318      0.0987
      6  N32       30.4820  -35.4620   -8.3960 N.2   318  14C318     -0.2582
      7  C34       29.8470  -34.7160   -7.4840 C.3   318  14C318      0.1532
      8  C36       28.5340  -35.0230   -7.1100 C.2   318  14C318      0.0113
      9  C26       27.8370  -36.0990   -7.6630 C.2   318  14C318      0.0432
     10  N19       26.6000  -36.4920   -7.3490 N.am  318  14C318     -0.2047
     11  C21       25.4350  -36.0310   -7.7820 C.2   318  14C318      0.2586
     12  O23       25.3140  -35.0290   -8.5660 O.2   318  14C318     -0.2692
     13  C6        24.3050  -36.8280   -7.1940 C.ar  318  14C318      0.0584
     14  C4        22.9120  -36.7980   -7.2590 C.ar  318  14C318      0.0047
     15  C2        22.1600  -37.7570   -6.5380 C.ar  318  14C318     -0.0002
     16  C15       26.3980  -37.5440   -6.5650 C.2   318  14C318      0.2583
     17  O17       27.3470  -38.2040   -6.0250 O.2   318  14C318     -0.2692
     18  C8        24.9660  -37.8680   -6.3620 C.ar  318  14C318      0.0547
     19  C1        22.7390  -38.7570   -5.7350 C.ar  318  14C318     -0.0041
@<TRIPOS>BOND
     1     3     4    1
     2     4     5    1
     3     4     6    2
     4     5     9    1
     5    12    11    2
     6     6     7    1
     7    11    10   am
     8    11    13    1
     9     9    10    1
    10     9     8    2
    11     7     8    1
    12    10    16   am
    13    14    13   ar
    14    14    15   ar
    15    13    18   ar
    16    16    18    1
    17    16    17    2
    18    15    19   ar
    19    18     1   ar
    20    19     1   ar
    21     1     2    1
