@<TRIPOS>MOLECULE
3c06_UMP_A_1.pdb
 20 21 0 0 0
SMALL
GASTEIGER

@<TRIPOS>ATOM
      1  N1        27.6450  -33.8140  -13.9160 N.am  317  UMP317     -0.1790
      2  C2        27.0980  -32.7650  -13.2180 C.1   317  UMP317      0.2844
      3  N3        27.6830  -32.2530  -12.0890 N.2   317  UMP317     -0.2452
      4  C4        28.8420  -32.8070  -11.5870 C.1   317  UMP317      0.2182
      5  C5        29.4310  -33.8900  -12.2790 C.2   317  UMP317      0.1242
      6  C6        28.8030  -34.3860  -13.4440 C.2   317  UMP317      0.0928
      7  O2        26.0740  -32.2280  -13.6110 O.2   317  UMP317     -0.1918
      8  O4        29.3450  -32.3120  -10.5510 O.2   317  UMP317     -0.2085
      9  C1'       26.9400  -34.3370  -15.1170 C.3   317  UMP317      0.2090
     10  C2'       26.8850  -33.4670  -16.3560 C.3   317  UMP317      0.0874
     11  C3'       26.6190  -34.5020  -17.4310 C.3   317  UMP317      0.1857
     12  C4'       27.1210  -35.8250  -16.8890 C.3   317  UMP317      0.1774
     13  O3'       25.2540  -34.7130  -17.6340 O.3   317  UMP317     -0.2203
     14  O4'       27.4260  -35.6040  -15.5220 O.3   317  UMP317     -0.3339
     15  C5'       28.3550  -36.3060  -17.6910 C.3   317  UMP317      0.1858
     16  O5'       29.0990  -35.1970  -18.2350 O.3   317  UMP317     -0.2675
     17  P         29.6550  -35.0920  -19.7860 P.3   317  UMP317      0.5327
     18  OP1       31.1440  -35.4550  -19.7670 O.3   317  UMP317     -0.1145
     19  OP2       28.9620  -36.0000  -20.7790 O.2   317  UMP317     -0.2224
     20  OP3       29.4600  -33.6520  -20.1850 O.3   317  UMP317     -0.1145
@<TRIPOS>BOND
     1    19    17    2
     2    20    17    1
     3    17    18    1
     4    17    16    1
     5    16    15    1
     6    15    12    1
     7    13    11    1
     8    11    12    1
     9    11    10    1
    10    12    14    1
    11    10     9    1
    12    14     9    1
    13     9     1    1
    14     1     6    1
    15     1     2   am
    16     7     2    2
    17     6     5    2
    18     2     3    2
    19     5     4    1
    20     3     4    2
    21     4     8    2
