@<TRIPOS>MOLECULE
3c0a_UMP_A_1.pdb
 20 21 0 0 0
SMALL
GASTEIGER

@<TRIPOS>ATOM
      1  N1       -31.7030    9.8570   23.9510 N.am  317  UMP317     -0.1790
      2  C2       -32.8370    9.9350   24.7780 C.1   317  UMP317      0.2844
      3  N3       -32.7660   10.6780   25.9440 N.2   317  UMP317     -0.2452
      4  C4       -31.5990   11.3230   26.3250 C.1   317  UMP317      0.2182
      5  C5       -30.4770   11.2400   25.5290 C.2   317  UMP317      0.1242
      6  C6       -30.5500   10.4940   24.3660 C.2   317  UMP317      0.0928
      7  O2       -33.9150    9.3990   24.5360 O.2   317  UMP317     -0.1918
      8  O4       -31.5380   11.9690   27.3670 O.2   317  UMP317     -0.2085
      9  C1'      -31.5900    9.0610   22.6740 C.3   317  UMP317      0.2090
     10  C2'      -32.2220    9.6100   21.4080 C.3   317  UMP317      0.0874
     11  C3'      -31.3930    8.9230   20.3300 C.3   317  UMP317      0.1857
     12  C4'      -30.0090    8.8210   20.8990 C.3   317  UMP317      0.1774
     13  O3'      -31.7440    7.5710   20.2190 O.3   317  UMP317     -0.2203
     14  O4'      -30.2180    8.8120   22.3080 O.3   317  UMP317     -0.3339
     15  C5'      -29.0950    9.9460   20.3800 C.3   317  UMP317      0.1858
     16  O5'      -28.5590    9.5760   19.1030 O.3   317  UMP317     -0.2675
     17  P        -28.7780   10.4610   17.7680 P.3   317  UMP317      0.5327
     18  OP1      -28.4680   11.8390   18.2770 O.3   317  UMP317     -0.1145
     19  OP2      -27.9200   10.0500   16.6190 O.2   317  UMP317     -0.2224
     20  OP3      -30.1860   10.2770   17.4350 O.3   317  UMP317     -0.1145
@<TRIPOS>BOND
     1    19    17    2
     2    20    17    1
     3    17    18    1
     4    17    16    1
     5    16    15    1
     6    13    11    1
     7    11    12    1
     8    11    10    1
     9    15    12    1
    10    12    14    1
    11    10     9    1
    12    14     9    1
    13     9     1    1
    14     1     6    1
    15     1     2   am
    16     6     5    2
    17     7     2    2
    18     2     3    2
    19     5     4    1
    20     3     4    2
    21     4     8    2
