@<TRIPOS>MOLECULE
3c0a_14C_A_1.pdb
 19 21 0 0 0
SMALL
GASTEIGER

@<TRIPOS>ATOM
      1  C10      -30.9700    7.6130   29.0030 C.ar  318  14C318     -0.0173
      2  C13      -31.0890    6.5460   27.9430 C.3   318  14C318      0.0312
      3 CL39      -23.0120    8.6480   28.5890 Cl    318  14C318     -0.0613
      4  C30      -24.4060    9.6150   28.0510 C.ar  318  14C318      0.1396
      5  C28      -25.6160    9.3700   28.6350 C.ar  318  14C318      0.0461
      6  N32      -24.2960   10.5670   27.1120 N.ar  318  14C318     -0.2323
      7  C34      -25.3620   11.2850   26.7310 C.ar  318  14C318      0.1011
      8  C36      -26.6020   11.0580   27.2950 C.ar  318  14C318      0.0361
      9  C26      -26.7390   10.0990   28.2860 C.ar  318  14C318      0.0652
     10  N19      -27.8830    9.7720   28.8320 N.am  318  14C318     -0.2010
     11  C21      -28.4680   10.2810   29.8900 C.2   318  14C318      0.2589
     12  O23      -28.0110   11.2570   30.5660 O.2   318  14C318     -0.2691
     13  C6       -29.7360    9.5620   30.1360 C.ar  318  14C318      0.0584
     14  C4       -30.7270    9.6790   31.0740 C.ar  318  14C318      0.0047
     15  C2       -31.7930    8.7910   30.9610 C.ar  318  14C318     -0.0002
     16  C15      -28.5740    8.7590   28.3050 C.2   318  14C318      0.2586
     17  O17      -28.2080    8.0840   27.2650 O.2   318  14C318     -0.2692
     18  C8       -29.8170    8.5320   29.0670 C.ar  318  14C318      0.0547
     19  C1       -31.9260    7.7950   29.9840 C.ar  318  14C318     -0.0041
@<TRIPOS>BOND
     1     7     6   ar
     2     7     8   ar
     3     6     4   ar
     4    17    16    2
     5     8     9   ar
     6     2     1    1
     7     4     3    1
     8     4     5   ar
     9     9     5   ar
    10     9    10    1
    11    16    10   am
    12    16    18    1
    13    10    11   am
    14     1    18   ar
    15     1    19   ar
    16    18    13   ar
    17    11    13    1
    18    11    12    2
    19    19    15   ar
    20    13    14   ar
    21    15    14   ar
