@<TRIPOS>MOLECULE
3c0o_M6P_A_1.pdb
 16 16 0 0 0
SMALL
GASTEIGER

@<TRIPOS>ATOM
      1  C1        36.8060   32.4420   15.7850 C.3   501  M6P501      0.3024
      2  C2        38.2560   32.5270   16.2230 C.3   501  M6P501      0.2434
      3  C3        38.8710   33.9300   16.1590 C.3   501  M6P501      0.2199
      4  C4        38.4490   34.5940   14.8800 C.3   501  M6P501      0.2143
      5  C5        36.9630   34.7700   14.9390 C.3   501  M6P501      0.1808
      6  C6        36.4630   35.5310   13.7260 C.3   501  M6P501      0.1859
      7  O1        35.9000   32.3960   16.8730 O.3   501  M6P501     -0.1869
      8  O2        38.9840   31.6760   15.3430 O.3   501  M6P501     -0.2148
      9  O3        40.3120   33.8920   16.2320 O.3   501  M6P501     -0.2174
     10  O4        38.9590   35.8860   15.0030 O.3   501  M6P501     -0.2176
     11  O5        36.3780   33.4820   14.9060 O.3   501  M6P501     -0.3237
     12  O6        36.5720   34.6580   12.6070 O.3   501  M6P501     -0.2675
     13  P         36.6430   35.1490   11.0580 P.3   501  M6P501      0.5327
     14  O1P       37.4940   36.4580   11.1150 O.3   501  M6P501     -0.1145
     15  O2P       35.2400   35.3220   10.5520 O.3   501  M6P501     -0.1145
     16  O3P       37.5050   34.0680   10.4280 O.2   501  M6P501     -0.2224
@<TRIPOS>BOND
     1    16    13    2
     2    15    13    1
     3    13    14    1
     4    13    12    1
     5    12     6    1
     6     6     5    1
     7     4     5    1
     8     4    10    1
     9     4     3    1
    10    11     5    1
    11    11     1    1
    12     8     2    1
    13     1     2    1
    14     1     7    1
    15     3     2    1
    16     3     9    1
