@<TRIPOS>MOLECULE
3c0p_HA8_A_1.pdb
 14 15 0 0 0
SMALL
GASTEIGER

@<TRIPOS>ATOM
      1  C14       36.5630    3.1980    2.6230 C.3   1536  HA81536     0.0005
      2  C13       36.6460    3.8650    3.8400 C.3   1536  HA81536     0.0088
      3  C12       37.3880    5.0430    3.8150 C.3   1536  HA81536     0.0774
      4  C11       36.9000    6.2800    3.4070 C.2   1536  HA81536     0.2092
      5  N1        36.0530    8.7300    2.6110 N.2   1536  HA81536    -0.0283
      6  C2        35.7390    9.9210    2.1310 C.3   1536  HA81536     0.4008
      7  N3        36.3670   11.0160    2.5250 N.2   1536  HA81536    -0.1640
      8  C4        37.3480   10.9480    3.4350 C.1   1536  HA81536     0.0580
      9  C5        37.7030    9.7150    3.9640 C.2   1536  HA81536     0.2281
     10  C6        37.0270    8.5860    3.5210 C.2   1536  HA81536     0.3996
     11  N10       37.4090    7.3790    3.9320 N.2   1536  HA81536    -0.0338
     12  N7        38.6890    9.9210    4.8330 N.2   1536  HA81536    -0.2266
     13  C8        38.9500   11.2270    4.8500 C.3   1536  HA81536     0.2618
     14  N9        38.1380   11.8550    4.0030 N.2   1536  HA81536    -0.1914
@<TRIPOS>BOND
     1     6     7    1
     2     6     5    1
     3     7     8    2
     4     5    10    2
     5     1     2    1
     6     4     3    1
     7     4    11    2
     8     8     9    1
     9     8    14    2
    10    10    11    1
    11    10     9    1
    12     3     2    1
    13     9    12    2
    14    14    13    1
    15    12    13    1
