@<TRIPOS>MOLECULE
3c0v_ZEA_A_1.pdb
 16 17 0 0 0
SMALL
GASTEIGER

@<TRIPOS>ATOM
      1  O16       30.6840  -10.2120    0.9110 O.3   156  ZEA156     -0.2155
      2  C14       30.6920  -11.3080    1.8780 C.3   156  ZEA156      0.2042
      3  C13       29.4440  -12.0920    1.5820 C.2   156  ZEA156     -0.0115
      4  C15       28.0810  -11.4810    1.8350 C.3   156  ZEA156      0.0288
      5  C12       29.5680  -13.2900    1.0090 C.2   156  ZEA156      0.0226
      6  C11       28.3420  -14.0320    0.6620 C.3   156  ZEA156      0.2771
      7  N10       28.3750  -15.4970    0.6090 N.pl3 156  ZEA156     -0.0246
      8  C6        29.1870  -16.1790   -0.2520 C.2   156  ZEA156      0.3858
      9  C5        29.1410  -17.5780   -0.3120 C.2   156  ZEA156      0.2255
     10  N9        28.4330  -18.5630    0.3130 N.2   156  ZEA156     -0.2268
     11  C4        29.9920  -18.2190   -1.1910 C.1   156  ZEA156      0.0578
     12  N7        29.8160  -19.5480   -1.1420 N.2   156  ZEA156     -0.1914
     13  C8        28.8420  -19.7530   -0.1990 C.3   156  ZEA156      0.2618
     14  N3        30.8500  -17.5430   -1.9910 N.2   156  ZEA156     -0.1640
     15  C2        30.8890  -16.2020   -1.9290 C.3   156  ZEA156      0.4006
     16  N1        30.0790  -15.5290   -1.0620 N.2   156  ZEA156     -0.0304
@<TRIPOS>BOND
     1    14    15    1
     2    14    11    2
     3    15    16    1
     4    11    12    2
     5    11     9    1
     6    12    13    1
     7    16     8    2
     8     9     8    1
     9     9    10    2
    10     8     7    1
    11    13    10    1
    12     7     6    1
    13     6     5    1
    14     1     2    1
    15     5     3    2
    16     3     4    1
    17     3     2    1
