@<TRIPOS>MOLECULE
3c0v_TBR_A_1.pdb
 18 17 0 0 0
SMALL
GASTEIGER

@<TRIPOS>ATOM
      1 TA1        13.1700   -8.6650   -2.2470 Ta    158  TBR158      0.0000
      2 TA2        11.7330   -6.4430   -1.0980 Ta    158  TBR158      0.0000
      3 TA3        11.1500   -7.2690   -3.8260 Ta    158  TBR158      0.0000
      4 TA4         9.2010   -7.7700   -1.7280 Ta    158  TBR158      0.0000
      5 TA5        10.6620   -9.9970   -2.8890 Ta    158  TBR158      0.0000
      6 TA6        11.1900   -9.1270   -0.1250 Ta    158  TBR158      0.0000
      7 BR1        14.3320   -6.5060   -1.3240 Br    158  TBR158      0.0000
      8 BR2        13.6300   -7.6470   -4.6140 Br    158  TBR158      0.0000
      9 BR3        12.9850  -11.0270   -3.2760 Br    158  TBR158      0.0000
     10 BR4        13.5940  -10.0630   -0.1130 Br    158  TBR158      0.0000
     11 BR5        11.6880   -4.8050   -3.1280 Br    158  TBR158      0.0000
     12 BR6        10.6120   -9.2440   -5.4120 Br    158  TBR158      0.0000
     13 BR7         8.0870   -9.8640   -2.8070 Br    158  TBR158      0.0000
     14 BR8         8.6850   -8.8370    0.5810 Br    158  TBR158      0.0000
     15 BR9         9.4360   -5.4660   -0.5150 Br    158  TBR158      0.0000
     16 BRA         8.6690   -6.5510   -3.9920 Br    158  TBR158      0.0000
     17 BRB        10.5420  -11.5530   -0.8020 Br    158  TBR158      0.0000
     18 BRC        11.9920   -7.1430    1.3700 Br    158  TBR158      0.0000
@<TRIPOS>BOND
     1    12     3    1
     2     8     1    1
     3    16     3    1
     4     9     5    1
     5    11     2    1
     6     5    13    1
     7     5     1    1
     8     5     4    1
     9     1     2    1
    10     4     6    1
    11     4    14    1
    12     7     2    1
    13     2    15    1
    14     2     6    1
    15     2    18    1
    16    17     6    1
    17     6    10    1
