@<TRIPOS>MOLECULE
3c10_TSN_A_1.pdb
 22 22 0 0 0
SMALL
GASTEIGER

@<TRIPOS>ATOM
      1  O1        -5.3490   -2.0610    5.8180 O.3   301  TSN301     -0.4024
      2  O2        -3.2780   -3.5440    7.3150 O.2   301  TSN301     -0.5359
      3  O3        -5.6670   -9.8750   10.5180 O.2   301  TSN301     -0.2910
      4  N1        -4.7210   -1.9000    7.0540 N.am  301  TSN301     -0.1984
      5  N2        -1.2240  -10.2840   15.1360 N.pl3 301  TSN301     -0.3041
      6  C1        -4.3220   -9.3450   12.3980 C.ar  301  TSN301      0.0351
      7  C2        -3.5250  -10.4880   12.2250 C.ar  301  TSN301      0.0041
      8  C3        -2.5020  -10.7850   13.1300 C.ar  301  TSN301      0.0146
      9  C4        -2.2610   -9.9570   14.2350 C.ar  301  TSN301      0.0479
     10  C5        -3.0560   -8.8130   14.4220 C.ar  301  TSN301      0.0146
     11  C6        -4.0780   -8.5090   13.5040 C.ar  301  TSN301      0.0041
     12  C7        -5.4110   -9.0540   11.3890 C.2   301  TSN301      0.1766
     13  C8        -6.1870   -7.7610   11.3830 C.3   301  TSN301      0.0835
     14  C9        -5.5510   -6.8700   10.3210 C.2   301  TSN301     -0.0230
     15  C10       -5.7630   -5.5500   10.1490 C.2   301  TSN301     -0.0256
     16  C11       -5.0270   -4.8780    9.0490 C.2   301  TSN301     -0.0026
     17  C12       -5.0670   -3.5590    8.8200 C.2   301  TSN301      0.0242
     18  C13       -4.2970   -2.9910    7.6950 C.2   301  TSN301      0.1102
     19  C14       -7.6670   -8.0550   11.1070 C.3   301  TSN301      0.0128
     20  C15       -6.7210   -4.7880   11.0330 C.3   301  TSN301      0.0307
     21  C17        0.1000   -9.6750   15.0130 C.3   301  TSN301      0.1122
     22  C16       -1.4550  -11.2580   16.1980 C.3   301  TSN301      0.1122
@<TRIPOS>BOND
     1     1     4    1
     2     4    18   am
     3     2    18    2
     4    18    17    1
     5    17    16    2
     6    16    15    1
     7    15    14    2
     8    15    20    1
     9    14    13    1
    10     3    12    2
    11    19    13    1
    12    13    12    1
    13    12     6    1
    14     7     6   ar
    15     7     8   ar
    16     6    11   ar
    17     8     9   ar
    18    11    10   ar
    19     9    10   ar
    20     9     5    1
    21    21     5    1
    22     5    22    1
