@<TRIPOS>MOLECULE
3c11_GDM_A_1.pdb
 40 41 0 0 0
SMALL
GASTEIGER

@<TRIPOS>ATOM
      1  O1        25.4320  -32.7470    0.1420 O.2   300  GDM300     -0.2096
      2  O2        19.6360  -33.6900   -1.8910 O.3   300  GDM300     -0.3451
      3  O3        18.9300  -32.6880   -4.1720 O.3   300  GDM300     -0.4290
      4  O4        17.3730  -33.5690   -5.6540 O.2   300  GDM300     -0.2227
      5  O5        22.5040  -36.1690   -9.2770 O.3   300  GDM300     -0.2202
      6  O6        23.4200  -37.9860   -7.3570 O.3   300  GDM300     -0.3510
      7  O7        25.2980  -32.9900   -7.5820 O.2   300  GDM300     -0.4687
      8  O8        24.3800  -30.7140   -6.3200 O.2   300  GDM300     -0.2877
      9  O9        26.5020  -34.5570   -3.1990 O.2   300  GDM300     -0.2844
     10  N1        25.5420  -32.1570   -2.0000 N.2   300  GDM300     -0.3338
     11  N2        16.9270  -31.5910   -4.6400 N.am  300  GDM300     -0.0475
     12  C1        25.1800  -32.9940   -1.0320 C.1   300  GDM300      0.2003
     13  C2        24.4330  -34.2130   -1.3540 C.2   300  GDM300      0.0728
     14  C3        23.2940  -34.1300   -2.0750 C.2   300  GDM300      0.0081
     15  C4        22.5150  -35.3150   -2.4370 C.2   300  GDM300     -0.0016
     16  C5        21.2470  -35.2450   -2.8640 C.2   300  GDM300      0.0069
     17  C6        20.5390  -33.9140   -2.9820 C.3   300  GDM300      0.1811
     18  C7        19.7060  -33.8840   -4.2580 C.3   300  GDM300      0.2197
     19  C8        20.5350  -33.8520   -5.5070 C.2   300  GDM300     -0.0059
     20  C9        20.5170  -34.8920   -6.3610 C.2   300  GDM300     -0.0288
     21  C10       21.2950  -34.8860   -7.6590 C.3   300  GDM300      0.0544
     22  C11       21.8950  -36.2470   -7.9750 C.3   300  GDM300      0.1828
     23  C12       22.9410  -36.6940   -6.9580 C.3   300  GDM300      0.1458
     24  C13       24.1240  -35.7290   -6.8940 C.3   300  GDM300      0.0325
     25  C14       25.3030  -36.2310   -6.0560 C.3   300  GDM300      0.0071
     26  C15       26.4370  -35.1870   -6.0030 C.3   300  GDM300      0.0330
     27  C16       25.9410  -33.8970   -5.3870 C.2   300  GDM300      0.0558
     28  C17       25.3530  -32.8440   -6.2260 C.2   300  GDM300      0.1727
     29  C18       24.8780  -31.5990   -5.5840 C.2   300  GDM300      0.2136
     30  C19       24.9470  -31.4340   -4.1940 C.3   300  GDM300      0.1355
     31  C20       25.4850  -32.4050   -3.3410 C.2   300  GDM300      0.1682
     32  C21       26.0110  -33.6710   -3.9240 C.2   300  GDM300      0.2212
     33  C22       24.9320  -35.5290   -0.8290 C.3   300  GDM300      0.0447
     34  C23       18.6800  -34.7010   -1.6060 C.3   300  GDM300      0.1746
     35  C24       17.6760  -32.6610   -4.8790 C.2   300  GDM300      0.4413
     36  C25       21.3370  -32.6110   -5.8020 C.3   300  GDM300      0.0297
     37  C26       20.3350  -34.5020   -8.7810 C.3   300  GDM300      0.0074
     38  C27       22.4510  -39.0260   -7.1890 C.3   300  GDM300      0.1741
     39  C28       24.8230  -36.6240   -4.6560 C.3   300  GDM300      0.0004
     40  C29       26.0960  -32.1010   -8.3650 C.3   300  GDM300      0.2526
@<TRIPOS>BOND
     1     5    22    1
     2    37    21    1
     3    40     7    1
     4    22    21    1
     5    22    23    1
     6    21    20    1
     7     7    28    1
     8     6    38    1
     9     6    23    1
    10    23    24    1
    11    24    25    1
    12    20    19    2
    13     8    29    2
    14    28    29    1
    15    28    27    2
    16    25    26    1
    17    25    39    1
    18    26    27    1
    19    36    19    1
    20     4    35    2
    21    29    30    1
    22    19    18    1
    23    27    32    1
    24    35    11   am
    25    35     3    1
    26    18     3    1
    27    18    17    1
    28    30    31    1
    29    32    31    1
    30    32     9    2
    31    31    10    2
    32    17    16    1
    33    17     2    1
    34    16    15    2
    35    15    14    1
    36    14    13    2
    37    10    12    2
    38     2    34    1
    39    13    12    1
    40    13    33    1
    41    12     1    2
