@<TRIPOS>MOLECULE
3c13_EMO_A_1.pdb
 20 22 0 0 0
SMALL
GASTEIGER

@<TRIPOS>ATOM
      1  C1        17.2790  -55.2750  -46.5160 C.ar  400  EMO400      0.2020
      2  O1        17.5990  -54.8570  -47.7430 O.3   400  EMO400     -0.2864
      3  C2        17.1200  -56.6210  -46.2570 C.ar  400  EMO400      0.0841
      4  C3        16.8050  -57.0200  -44.9830 C.ar  400  EMO400      0.1990
      5  O3        16.6660  -58.3190  -44.7600 O.3   400  EMO400     -0.2865
      6  C4        16.6200  -56.0980  -43.9540 C.ar  400  EMO400      0.0455
      7  C5        16.7680  -54.7420  -44.2250 C.ar  400  EMO400      0.0483
      8  C6        16.5880  -53.7730  -43.2170 C.2   400  EMO400      0.1960
      9  O6        16.2930  -54.1670  -42.0790 O.2   400  EMO400     -0.2866
     10  C7        16.7560  -52.4020  -43.5170 C.ar  400  EMO400      0.0448
     11  C8        16.5910  -51.3860  -42.5550 C.ar  400  EMO400     -0.0008
     12  C9        16.7680  -50.0280  -42.8840 C.ar  400  EMO400     -0.0186
     13  C10       16.5950  -48.9030  -41.8440 C.3   400  EMO400      0.0311
     14  C16       17.0970  -49.6850  -44.1900 C.ar  400  EMO400      0.0379
     15  C17       17.2470  -50.6920  -45.1560 C.ar  400  EMO400      0.1985
     16  O17       17.5750  -50.3590  -46.4370 O.3   400  EMO400     -0.2865
     17  C18       17.0940  -52.0280  -44.8210 C.ar  400  EMO400      0.0810
     18  C19       17.2540  -52.9990  -45.8100 C.2   400  EMO400      0.2019
     19  O19       17.5450  -52.6840  -46.9570 O.2   400  EMO400     -0.2864
     20  C20       17.0950  -54.3390  -45.5060 C.ar  400  EMO400      0.0812
@<TRIPOS>BOND
     1     2     1    1
     2    19    18    2
     3     1     3   ar
     4     1    20   ar
     5    16    15    1
     6     3     4   ar
     7    18    20    1
     8    18    17    1
     9    20     7   ar
    10    15    17   ar
    11    15    14   ar
    12     4     5    1
    13     4     6   ar
    14    17    10   ar
    15     7     6   ar
    16     7     8    1
    17    14    12   ar
    18    10     8    1
    19    10    11   ar
    20     8     9    2
    21    12    11   ar
    22    12    13    1
