@<TRIPOS>MOLECULE
3c14_FOK_A_1.pdb
 29 31 0 0 0
SMALL
GASTEIGER

@<TRIPOS>ATOM
      1  C1       -16.2340   12.4250  -16.5490 C.3   101  FOK101      0.1547
      2  O2       -16.4620   13.5560  -15.7030 O.3   101  FOK101     -0.2231
      3  C2       -15.3190   12.8530  -17.7000 C.3   101  FOK101      0.0330
      4  C3       -13.8800   13.0840  -17.2510 C.3   101  FOK101      0.0027
      5  C4       -13.2880   11.9070  -16.4880 C.3   101  FOK101      0.0027
      6  C5       -14.2300   11.4600  -15.3330 C.3   101  FOK101      0.0393
      7  C6       -13.6340   10.4070  -14.3680 C.3   101  FOK101      0.1943
      8  O3       -13.3380    9.1640  -15.0160 O.3   101  FOK101     -0.2192
      9  C7       -14.5440   10.1360  -13.1740 C.3   101  FOK101      0.2260
     10  O4       -13.9950    9.0470  -12.4330 O.3   101  FOK101     -0.4470
     11  C8       -15.9990    9.8460  -13.5580 C.3   101  FOK101      0.1639
     12  O1       -16.7840    9.8440  -12.3560 O.3   101  FOK101     -0.3524
     13  C9       -16.5530   10.9490  -14.4740 C.3   101  FOK101      0.2051
     14  O6       -16.5380   12.1430  -13.6850 O.3   101  FOK101     -0.2155
     15  C10      -15.7090   11.2170  -15.7520 C.3   101  FOK101      0.0652
     16  C11      -18.0320   10.6790  -14.7030 C.2   101  FOK101      0.1831
     17  O7       -18.5250   10.7090  -15.8250 O.2   101  FOK101     -0.2933
     18  C12      -18.9460   10.3740  -13.5320 C.3   101  FOK101      0.0985
     19  C13      -18.2290    9.8310  -12.2850 C.3   101  FOK101      0.1183
     20  C14      -18.6420   10.6760  -11.1040 C.2   101  FOK101      0.0006
     21  C15      -18.1110   11.8670  -10.9000 C.2   101  FOK101     -0.0025
     22  C16      -18.7140    8.4200  -11.9840 C.3   101  FOK101      0.0346
     23  C17      -16.1190    8.4300  -14.1390 C.3   101  FOK101      0.0365
     24  C18      -11.9660   12.3930  -15.9230 C.3   101  FOK101      0.0001
     25  C19      -12.9290   10.8100  -17.4920 C.3   101  FOK101      0.0001
     26  C20      -15.8460   10.0350  -16.7250 C.3   101  FOK101      0.0056
     27  C21      -13.2930    9.4920  -11.2430 C.2   101  FOK101      0.3176
     28  O5       -13.9350    9.9990  -10.3340 O.2   101  FOK101     -0.2501
     29  C22      -11.8100    9.3080  -11.1810 C.3   101  FOK101      0.1212
@<TRIPOS>BOND
     1     3     4    1
     2     3     1    1
     3    25     5    1
     4     4     5    1
     5    26    15    1
     6     1    15    1
     7     1     2    1
     8     5    24    1
     9     5     6    1
    10    17    16    2
    11    15     6    1
    12    15    13    1
    13     6     7    1
    14     8     7    1
    15    16    13    1
    16    16    18    1
    17    13    14    1
    18    13    11    1
    19     7     9    1
    20    23    11    1
    21    11     9    1
    22    11    12    1
    23    18    19    1
    24     9    10    1
    25    10    27    1
    26    12    19    1
    27    19    22    1
    28    19    20    1
    29    27    29    1
    30    27    28    2
    31    20    21    2
