@<TRIPOS>MOLECULE
3c14_GSP_C_1.pdb
 32 34 0 0 0
SMALL
GASTEIGER

@<TRIPOS>ATOM
      1  PG       -35.7660   -3.0840    6.4800 P.3   405  GSP405      0.4340
      2  O3B      -36.4480   -2.7830    7.9010 O.3   405  GSP405     -0.2405
      3  S1G      -34.3550   -3.9780    6.7940 S.3   405  GSP405      0.0416
      4  O2G      -36.7360   -3.8600    5.5640 O.2   405  GSP405     -0.2423
      5  O3G      -35.4120   -1.7620    5.7800 O.3   405  GSP405     -0.1305
      6  PB       -38.0370   -2.6510    7.9900 P.3   405  GSP405      0.2262
      7  O1B      -38.3490   -2.0830    9.3090 O.3   405  GSP405     -0.4369
      8  O2B      -38.5490   -1.8150    6.8880 O.2   405  GSP405     -0.5168
      9  PA       -40.1230   -4.6070    8.1030 P.3   405  GSP405      0.2189
     10  O1A      -41.0460   -3.5540    7.6420 O.3   405  GSP405     -0.4371
     11  O2A      -40.3540   -5.8690    7.3820 O.2   405  GSP405     -0.5170
     12  O3A      -38.5880   -4.1600    7.8750 O.3   405  GSP405     -0.2701
     13  O5'      -40.3140   -4.8340    9.7020 O.3   405  GSP405     -0.3112
     14  C5'      -39.8040   -5.9850   10.3480 C.3   405  GSP405      0.1813
     15  C4'      -40.8670   -7.0280   10.7070 C.3   405  GSP405      0.1799
     16  O4'      -41.5050   -6.6990   11.9300 O.3   405  GSP405     -0.3326
     17  C3'      -41.9660   -7.1860    9.6640 C.3   405  GSP405      0.2158
     18  O3'      -42.0350   -8.5320    9.2620 O.3   405  GSP405     -0.2175
     19  C2'      -43.2520   -6.7880   10.3580 C.3   405  GSP405      0.2310
     20  O2'      -44.2880   -7.6950   10.0820 O.3   405  GSP405     -0.2158
     21  C1'      -42.9170   -6.8190   11.8420 C.3   405  GSP405      0.2293
     22  N9       -43.5770   -5.7030   12.5510 N.pl3 405  GSP405     -0.2354
     23  C8       -43.5180   -4.3840   12.2010 C.3   405  GSP405      0.2246
     24  N7       -44.2440   -3.6660   13.0810 N.2   405  GSP405     -0.2322
     25  C5       -44.7660   -4.5010   13.9960 C.2   405  GSP405      0.2182
     26  C6       -45.5720   -4.2780   15.1130 C.1   405  GSP405      0.2372
     27  O6       -45.9350   -3.1430   15.4060 O.2   405  GSP405     -0.2069
     28  N1       -45.9690   -5.3380   15.8890 N.2   405  GSP405     -0.2485
     29  C2       -45.5520   -6.6110   15.5570 C.1   405  GSP405      0.2531
     30  N2       -45.9360   -7.6400   16.3080 N.pl3 405  GSP405     -0.0226
     31  N3       -44.7480   -6.8250   14.4450 N.2   405  GSP405     -0.3074
     32  C4       -44.3570   -5.7870   13.6720 C.2   405  GSP405      0.2300
@<TRIPOS>BOND
     1     4     1    2
     2     5     1    1
     3     1     3    1
     4     1     2    1
     5     8     6    2
     6    11     9    2
     7    10     9    1
     8    12     6    1
     9    12     9    1
    10     2     6    1
    11     6     7    1
    12     9    13    1
    13    18    17    1
    14    17    19    1
    15    17    15    1
    16    13    14    1
    17    20    19    1
    18    14    15    1
    19    19    21    1
    20    15    16    1
    21    21    16    1
    22    21    22    1
    23    23    22    1
    24    23    24    1
    25    22    32    1
    26    24    25    2
    27    32    25    1
    28    32    31    2
    29    25    26    1
    30    31    29    2
    31    26    27    2
    32    26    28    2
    33    29    28    2
    34    29    30    1
