@<TRIPOS>MOLECULE
3c15_FOK_A_1.pdb
 29 31 0 0 0
SMALL
GASTEIGER

@<TRIPOS>ATOM
      1  C1        16.2570   12.1860   16.5300 C.3   101  FOK101      0.1547
      2  O2        16.5380   13.3460   15.7360 O.3   101  FOK101     -0.2231
      3  C2        15.3390   12.5680   17.7010 C.3   101  FOK101      0.0330
      4  C3        13.9480   12.9530   17.2250 C.3   101  FOK101      0.0027
      5  C4        13.3080   11.8800   16.3520 C.3   101  FOK101      0.0027
      6  C5        14.2580   11.3860   15.2200 C.3   101  FOK101      0.0393
      7  C6        13.6970   10.3130   14.2580 C.3   101  FOK101      0.1943
      8  O3        13.4560    9.0620   14.9220 O.3   101  FOK101     -0.2192
      9  C7        14.6400   10.1620   13.0320 C.3   101  FOK101      0.2260
     10  O4        14.2550    9.2150   12.0210 O.3   101  FOK101     -0.4470
     11  C8        16.0650    9.8050   13.4120 C.3   101  FOK101      0.1639
     12  O1        16.8410    9.8570   12.2170 O.3   101  FOK101     -0.3524
     13  C9        16.5770   10.8740   14.3690 C.3   101  FOK101      0.2051
     14  O6        16.5800   12.0930   13.6050 O.3   101  FOK101     -0.2155
     15  C10       15.7120   11.0570   15.6520 C.3   101  FOK101      0.0652
     16  C11       18.0320   10.5340   14.5910 C.2   101  FOK101      0.1831
     17  O7        18.4620   10.3110   15.7130 O.2   101  FOK101     -0.2933
     18  C12       18.9570   10.4460   13.3890 C.3   101  FOK101      0.0985
     19  C13       18.2700    9.8640   12.1510 C.3   101  FOK101      0.1183
     20  C14       18.6460   10.6930   10.9470 C.2   101  FOK101      0.0006
     21  C15       17.9690   11.7770   10.6270 C.2   101  FOK101     -0.0025
     22  C16       18.7870    8.4520   11.9380 C.3   101  FOK101      0.0346
     23  C17       16.1560    8.3640   13.9300 C.3   101  FOK101      0.0365
     24  C18       12.0940   12.5740   15.7650 C.3   101  FOK101      0.0001
     25  C19       12.7720   10.7740   17.2670 C.3   101  FOK101      0.0001
     26  C20       15.8000    9.8260   16.5580 C.3   101  FOK101      0.0056
     27  C21       12.9310    9.4470   11.5360 C.2   101  FOK101      0.3176
     28  O5        12.7290   10.5330   11.0050 O.2   101  FOK101     -0.2501
     29  C22       11.9320    8.3470   11.7490 C.3   101  FOK101      0.1212
@<TRIPOS>BOND
     1    21    20    2
     2    20    19    1
     3    28    27    2
     4    27    29    1
     5    27    10    1
     6    22    19    1
     7    10     9    1
     8    19    12    1
     9    19    18    1
    10    12    11    1
    11     9    11    1
    12     9     7    1
    13    18    16    1
    14    11    23    1
    15    11    13    1
    16    14    13    1
    17     7     8    1
    18     7     6    1
    19    13    16    1
    20    13    15    1
    21    16    17    2
    22     6    15    1
    23     6     5    1
    24    15     1    1
    25    15    26    1
    26     2     1    1
    27    24     5    1
    28     5     4    1
    29     5    25    1
    30     1     3    1
    31     4     3    1
