@<TRIPOS>MOLECULE
3c15_GSP_C_1.pdb
 32 34 0 0 0
SMALL
GASTEIGER

@<TRIPOS>ATOM
      1  PG        35.9270   -2.9130   -6.5260 P.3   404  GSP404      0.4340
      2  O3B       36.4970   -3.0940   -8.0130 O.3   404  GSP404     -0.2405
      3  S1G       34.4750   -3.8330   -6.3980 S.3   404  GSP404      0.0416
      4  O2G       37.0990   -3.3400   -5.5900 O.3   404  GSP404     -0.1305
      5  O3G       35.6100   -1.4290   -6.2500 O.2   404  GSP404     -0.2423
      6  PB        37.9820   -2.5710   -8.2100 P.3   404  GSP404      0.2262
      7  O1B       37.8960   -1.3420   -9.0330 O.2   404  GSP404     -0.5168
      8  O2B       38.5750   -2.3290   -6.8730 O.3   404  GSP404     -0.4369
      9  PA        40.0220   -4.4150   -8.4280 P.3   404  GSP404      0.2189
     10  O1A       40.9860   -3.3260   -8.1780 O.2   404  GSP404     -0.5170
     11  O2A       39.6880   -5.2120   -7.2180 O.3   404  GSP404     -0.4371
     12  O3A       38.6940   -3.7540   -9.0100 O.3   404  GSP404     -0.2701
     13  O5'       40.5580   -5.3080   -9.6410 O.3   404  GSP404     -0.3112
     14  C5'       39.8820   -6.4890   -9.9500 C.3   404  GSP404      0.1813
     15  C4'       40.8310   -7.3310  -10.7760 C.3   404  GSP404      0.1799
     16  O4'       41.3650   -6.5410  -11.8180 O.3   404  GSP404     -0.3326
     17  C3'       42.0030   -7.8250   -9.9420 C.3   404  GSP404      0.2158
     18  O3'       42.0000   -9.2350   -9.9730 O.3   404  GSP404     -0.2175
     19  C2'       43.2340   -7.2550  -10.6210 C.3   404  GSP404      0.2310
     20  O2'       44.2440   -8.2180  -10.7740 O.3   404  GSP404     -0.2158
     21  C1'       42.7260   -6.8540  -11.9900 C.3   404  GSP404      0.2293
     22  N9        43.4380   -5.6850  -12.5140 N.pl3 404  GSP404     -0.2354
     23  C8        43.4070   -4.4150  -12.0060 C.3   404  GSP404      0.2246
     24  N7        44.1840   -3.6270  -12.7750 N.2   404  GSP404     -0.2322
     25  C5        44.6970   -4.3830  -13.7700 C.2   404  GSP404      0.2182
     26  C6        45.5480   -4.0800  -14.8270 C.1   404  GSP404      0.2372
     27  O6        45.9670   -2.9320  -14.9690 O.2   404  GSP404     -0.2069
     28  N1        45.9220   -5.0650  -15.7130 N.2   404  GSP404     -0.2485
     29  C2        45.4530   -6.3480  -15.5470 C.1   404  GSP404      0.2531
     30  N2        45.8390   -7.2820  -16.4080 N.pl3 404  GSP404     -0.0226
     31  N3        44.6060   -6.6560  -14.4960 N.2   404  GSP404     -0.3074
     32  C4        44.2370   -5.6830  -13.6200 C.2   404  GSP404      0.2300
@<TRIPOS>BOND
     1    30    29    1
     2    28    29    2
     3    28    26    2
     4    29    31    2
     5    27    26    2
     6    26    25    1
     7    31    32    2
     8    25    32    1
     9    25    24    2
    10    32    22    1
    11    24    23    1
    12    22    23    1
    13    22    21    1
    14    21    16    1
    15    21    19    1
    16    16    15    1
    17    15    14    1
    18    15    17    1
    19    20    19    1
    20    19    17    1
    21    18    17    1
    22    14    13    1
    23    13     9    1
    24     7     6    2
    25    12     9    1
    26    12     6    1
    27     9    10    2
    28     9    11    1
    29     6     2    1
    30     6     8    1
    31     2     1    1
    32     1     3    1
    33     1     5    2
    34     1     4    1
