@<TRIPOS>MOLECULE
3c16_FOK_A_1.pdb
 29 31 0 0 0
SMALL
GASTEIGER

@<TRIPOS>ATOM
      1  C1        42.6370   12.4480   18.6770 C.3   101  FOK101      0.1547
      2  O2        42.4380   13.5660   19.5500 O.3   101  FOK101     -0.2231
      3  C2        43.5110   12.8920   17.4990 C.3   101  FOK101      0.0330
      4  C3        44.9830   13.0450   17.8580 C.3   101  FOK101      0.0027
      5  C4        45.5720   11.8540   18.6030 C.3   101  FOK101      0.0027
      6  C5        44.6650   11.4140   19.7890 C.3   101  FOK101      0.0393
      7  C6        45.2700   10.3740   20.7750 C.3   101  FOK101      0.1943
      8  O3        45.5950    9.1060   20.1830 O.3   101  FOK101     -0.2192
      9  C7        44.3810   10.2130   22.0230 C.3   101  FOK101      0.2260
     10  O4        44.8910    9.2480   22.9470 O.3   101  FOK101     -0.4470
     11  C8        42.9220    9.9120   21.6990 C.3   101  FOK101      0.1639
     12  O1        42.2140    9.9440   22.9390 O.3   101  FOK101     -0.3524
     13  C9        42.3620   10.9930   20.7580 C.3   101  FOK101      0.2051
     14  O6        42.4700   12.2250   21.4770 O.3   101  FOK101     -0.2155
     15  C10       43.1600   11.2210   19.4440 C.3   101  FOK101      0.0652
     16  C11       40.8640   10.7600   20.6110 C.2   101  FOK101      0.1831
     17  O7        40.2460   11.1060   19.6160 O.2   101  FOK101     -0.2933
     18  C12       40.0750   10.0970   21.7200 C.3   101  FOK101      0.0985
     19  C13       40.7940   10.1150   23.0690 C.3   101  FOK101      0.1183
     20  C14       40.4990   11.4230   23.7690 C.2   101  FOK101      0.0006
     21  C15       41.4640   12.1490   24.3120 C.2   101  FOK101     -0.0025
     22  C16       40.2390    8.9970   23.9300 C.3   101  FOK101      0.0346
     23  C17       42.7780    8.4720   21.1890 C.3   101  FOK101      0.0365
     24  C18       46.9170   12.3410   19.1170 C.3   101  FOK101      0.0001
     25  C19       45.8670   10.7540   17.5790 C.3   101  FOK101      0.0001
     26  C20       42.9390   10.0280   18.5020 C.3   101  FOK101      0.0056
     27  C21       46.0290    9.7670   23.6840 C.2   101  FOK101      0.3176
     28  O5        45.8790   10.7520   24.3960 O.2   101  FOK101     -0.2501
     29  C22       47.3440    9.0660   23.5180 C.3   101  FOK101      0.1212
@<TRIPOS>BOND
     1     3     4    1
     2     3     1    1
     3    25     5    1
     4     4     5    1
     5    26    15    1
     6     5    24    1
     7     5     6    1
     8     1    15    1
     9     1     2    1
    10    15     6    1
    11    15    13    1
    12    17    16    2
    13     6     7    1
    14     8     7    1
    15    16    13    1
    16    16    18    1
    17    13    14    1
    18    13    11    1
    19     7     9    1
    20    23    11    1
    21    11     9    1
    22    11    12    1
    23    18    19    1
    24     9    10    1
    25    12    19    1
    26    10    27    1
    27    19    20    1
    28    19    22    1
    29    29    27    1
    30    27    28    2
    31    20    21    2
