@<TRIPOS>MOLECULE
3c16_GSP_C_1.pdb
 32 34 0 0 0
SMALL
GASTEIGER

@<TRIPOS>ATOM
      1  PG        23.7080   -3.2180   42.0610 P.3   395  GSP395      0.4340
      2  O3B       22.6850   -3.4640   43.3030 O.3   395  GSP395     -0.2405
      3  S1G       25.0280   -4.3160   42.0820 S.3   395  GSP395      0.0416
      4  O2G       22.9270   -3.3360   40.7160 O.2   395  GSP395     -0.2423
      5  O3G       24.3290   -1.8100   42.2060 O.3   395  GSP395     -0.1305
      6  PB        21.2010   -2.8420   43.2810 P.3   395  GSP395      0.2262
      7  O1B       21.2220   -1.4430   43.7300 O.3   395  GSP395     -0.4369
      8  O2B       20.6210   -2.9600   41.9330 O.2   395  GSP395     -0.5168
      9  PA        19.0920   -4.5460   43.8580 P.3   395  GSP395      0.2189
     10  O1A       18.0470   -3.6250   43.3680 O.3   395  GSP395     -0.4371
     11  O2A       19.4820   -5.5410   42.8290 O.2   395  GSP395     -0.5170
     12  O3A       20.3650   -3.7000   44.3370 O.3   395  GSP395     -0.2701
     13  O5'       18.5660   -5.2220   45.2170 O.3   395  GSP395     -0.3112
     14  C5'       19.1100   -6.4580   45.6300 C.3   395  GSP395      0.1813
     15  C4'       18.0090   -7.4130   46.0740 C.3   395  GSP395      0.1799
     16  O4'       17.4570   -6.9780   47.3070 O.3   395  GSP395     -0.3326
     17  C3'       16.8830   -7.4830   45.0570 C.3   395  GSP395      0.2158
     18  O3'       16.7830   -8.8050   44.5800 O.3   395  GSP395     -0.2175
     19  C2'       15.6450   -7.0450   45.8260 C.3   395  GSP395      0.2310
     20  O2'       14.5400   -7.8950   45.6410 O.3   395  GSP395     -0.2158
     21  C1'       16.0510   -7.0520   47.2900 C.3   395  GSP395      0.2293
     22  N9        15.4640   -5.8790   47.9640 N.pl3 395  GSP395     -0.2354
     23  C8        15.5320   -4.5750   47.5410 C.3   395  GSP395      0.2246
     24  N7        14.8650   -3.8030   48.4250 N.2   395  GSP395     -0.2322
     25  C5        14.3690   -4.5880   49.4010 C.2   395  GSP395      0.2182
     26  C6        13.6180   -4.3110   50.5340 C.1   395  GSP395      0.2372
     27  O6        13.2850   -3.1630   50.7960 O.2   395  GSP395     -0.2069
     28  N1        13.2430   -5.3290   51.3750 N.2   395  GSP395     -0.2485
     29  C2        13.6170   -6.6250   51.0860 C.1   395  GSP395      0.2531
     30  N2        13.2510   -7.6110   51.8970 N.pl3 395  GSP395     -0.0226
     31  N3        14.3640   -6.8980   49.9550 N.2   395  GSP395     -0.3074
     32  C4        14.7360   -5.8960   49.1240 C.2   395  GSP395      0.2300
@<TRIPOS>BOND
     1     4     1    2
     2     8     6    2
     3     1     3    1
     4     1     5    1
     5     1     2    1
     6    11     9    2
     7     6     2    1
     8     6     7    1
     9     6    12    1
    10    10     9    1
    11     9    12    1
    12     9    13    1
    13    18    17    1
    14    17    19    1
    15    17    15    1
    16    13    14    1
    17    14    15    1
    18    20    19    1
    19    19    21    1
    20    15    16    1
    21    21    16    1
    22    21    22    1
    23    23    22    1
    24    23    24    1
    25    22    32    1
    26    24    25    2
    27    32    25    1
    28    32    31    2
    29    25    26    1
    30    31    29    2
    31    26    27    2
    32    26    28    2
    33    29    28    2
    34    29    30    1
