@<TRIPOS>MOLECULE
3c16_ATP_A_1.pdb
 31 33 0 0 0
SMALL
GASTEIGER

@<TRIPOS>ATOM
      1  PG        57.6250    5.6650   11.4880 P.3     1  ATP1        0.5373
      2  O1G       58.1800    5.7240    9.9580 O.2     1  ATP1       -0.2221
      3  O2G       57.5140    4.0810   11.8350 O.3     1  ATP1       -0.1143
      4  O3G       56.3220    6.3620   11.6670 O.3     1  ATP1       -0.1143
      5  PB        59.3780    7.7940   12.2310 P.3     1  ATP1        0.2277
      6  O1B       58.9280    8.3370   10.9300 O.2     1  ATP1       -0.5168
      7  O2B       60.8270    7.7640   12.5400 O.3     1  ATP1       -0.4368
      8  O3B       58.8140    6.2730   12.4110 O.3     1  ATP1       -0.2258
      9  PA        58.0380    8.0180   14.8170 P.3     1  ATP1        0.2189
     10  O1A       56.7350    7.3480   14.5640 O.2     1  ATP1       -0.5170
     11  O2A       59.1370    7.2470   15.4470 O.3     1  ATP1       -0.4371
     12  O3A       58.6010    8.6680   13.4140 O.3     1  ATP1       -0.2700
     13  O5'       57.7750    9.3410   15.7480 O.3     1  ATP1       -0.3112
     14  C5'       58.2300    9.4290   17.1340 C.3     1  ATP1        0.1813
     15  C4'       57.2020   10.1250   18.0800 C.3     1  ATP1        0.1821
     16  O4'       57.6350   11.4590   18.4730 O.3     1  ATP1       -0.3135
     17  C3'       55.8670   10.3560   17.3700 C.3     1  ATP1        0.2184
     18  O3'       54.9890    9.2530   17.6340 O.3     1  ATP1       -0.2174
     19  C2'       55.3410   11.6860   17.9590 C.3     1  ATP1        0.2570
     20  O2'       54.1140   11.4880   18.6750 O.3     1  ATP1       -0.2130
     21  C1'       56.4440   12.1660   18.9200 C.3     1  ATP1        0.3186
     22  N9        56.6940   13.6650   18.8840 N.pl3   1  ATP1       -0.1439
     23  C8        57.8760   14.2370   18.6450 C.3     1  ATP1        0.3377
     24  N7        57.7670   15.5650   18.6870 N.2     1  ATP1       -0.2095
     25  C5        56.5030   15.8620   18.9570 C.2     1  ATP1        0.2526
     26  C6        55.8080   17.0650   19.1210 C.2     1  ATP1        0.4393
     27  N6        56.4250   18.2410   19.0080 N.pl3   1  ATP1        0.2180
     28  N1        54.4920   17.0250   19.3980 N.2     1  ATP1        0.0021
     29  C2        53.8660   15.8590   19.5170 C.3     1  ATP1        0.5254
     30  N3        54.5000   14.6980   19.3630 N.2     1  ATP1       -0.0055
     31  C4        55.8180   14.6580   19.0860 C.2     1  ATP1        0.3518
@<TRIPOS>BOND
     1     2     1    2
     2     6     5    2
     3     1     4    1
     4     1     3    1
     5     1     8    1
     6     5     8    1
     7     5     7    1
     8     5    12    1
     9    12     9    1
    10    10     9    2
    11     9    11    1
    12     9    13    1
    13    13    14    1
    14    14    15    1
    15    17    18    1
    16    17    19    1
    17    17    15    1
    18    19    20    1
    19    19    21    1
    20    15    16    1
    21    16    21    1
    22    23    24    1
    23    23    22    1
    24    24    25    2
    25    22    21    1
    26    22    31    1
    27    25    31    1
    28    25    26    1
    29    27    26    1
    30    31    30    2
    31    26    28    2
    32    30    29    1
    33    28    29    1
