@<TRIPOS>MOLECULE
3c1e_THP_A_1.pdb
 25 26 0 0 0
SMALL
GASTEIGER

@<TRIPOS>ATOM
      1  P2        17.8790   11.0280    4.7280 P.3   151  THP151      0.5327
      2  O4P       16.6370   11.7420    5.1910 O.3   151  THP151     -0.1145
      3  O5P       17.9440    9.5430    4.9910 O.2   151  THP151     -0.2224
      4  O6P       19.1460   11.7440    5.1030 O.3   151  THP151     -0.1145
      5  P1        21.2050   14.4620    0.9290 P.3   151  THP151      0.5326
      6  O1P       22.1390   15.1140   -0.0660 O.2   151  THP151     -0.2224
      7  O2P       21.8220   13.3140    1.6870 O.3   151  THP151     -0.1145
      8  O3P       20.4720   15.3900    1.8730 O.3   151  THP151     -0.1145
      9  O5'       17.8880   11.0790    3.1160 O.3   151  THP151     -0.2675
     10  C5'       17.7990   12.3170    2.4120 C.3   151  THP151      0.1857
     11  C4'       18.8270   12.2520    1.2880 C.3   151  THP151      0.1748
     12  O4'       18.5150   11.1260    0.4810 O.3   151  THP151     -0.3340
     13  C3'       18.7680   13.4680    0.3730 C.3   151  THP151      0.1600
     14  O3'       20.1020   13.8230   -0.0580 O.3   151  THP151     -0.2700
     15  C2'       17.9540   13.0040   -0.8260 C.3   151  THP151      0.0847
     16  C1'       18.0930   11.4890   -0.8350 C.3   151  THP151      0.2089
     17  N1        16.7910   10.9020   -1.1870 N.am  151  THP151     -0.1794
     18  C2        16.4930   10.6950   -2.5620 C.1   151  THP151      0.2844
     19  O2        17.3530   10.9950   -3.4410 O.2   151  THP151     -0.1918
     20  N3        15.3170   10.1840   -2.9460 N.2   151  THP151     -0.2455
     21  C4        14.3690    9.8890   -2.0250 C.1   151  THP151      0.2134
     22  O4        13.2820    9.4280   -2.3980 O.2   151  THP151     -0.2088
     23  C5        14.6330   10.1040   -0.5920 C.2   151  THP151      0.0891
     24  C5M       13.6040    9.7440    0.4560 C.3   151  THP151      0.0462
     25  C6        15.8770   10.6190   -0.2270 C.2   151  THP151      0.0877
@<TRIPOS>BOND
     1    19    18    2
     2    20    18    2
     3    20    21    2
     4    18    17   am
     5    22    21    2
     6    21    23    1
     7    17    16    1
     8    17    25    1
     9    16    15    1
    10    16    12    1
    11    15    13    1
    12    23    25    2
    13    23    24    1
    14     6     5    2
    15    14    13    1
    16    14     5    1
    17    13    11    1
    18    12    11    1
    19     5     7    1
    20     5     8    1
    21    11    10    1
    22    10     9    1
    23     9     1    1
    24     1     3    2
    25     1     4    1
    26     1     2    1
