@<TRIPOS>MOLECULE
3c1f_THP_A_1.pdb
 25 26 0 0 0
SMALL
GASTEIGER

@<TRIPOS>ATOM
      1  P2        17.8500   10.9310    4.8190 P.3   151  THP151      0.5327
      2  O4P       19.1080   11.5140    5.3520 O.3   151  THP151     -0.1145
      3  O5P       17.7520    9.4500    4.9990 O.2   151  THP151     -0.2224
      4  O6P       16.6090   11.6780    5.2850 O.3   151  THP151     -0.1145
      5  P1        21.1130   14.5920    0.4930 P.3   151  THP151      0.5326
      6  O1P       21.6900   13.6720    1.5220 O.3   151  THP151     -0.1145
      7  O2P       21.7040   14.5630   -0.8730 O.2   151  THP151     -0.2224
      8  O3P       20.7270   15.9030    1.0910 O.3   151  THP151     -0.1145
      9  O5'       17.8000   11.2490    3.2410 O.3   151  THP151     -0.2675
     10  C5'       18.7930   12.0850    2.6220 C.3   151  THP151      0.1857
     11  C4'       18.4250   12.1750    1.1630 C.3   151  THP151      0.1748
     12  O4'       18.3640   10.8820    0.6080 O.3   151  THP151     -0.3340
     13  C3'       19.3160   12.7250    0.0900 C.3   151  THP151      0.1600
     14  O3'       19.6610   14.0830    0.0970 O.3   151  THP151     -0.2700
     15  C2'       18.2540   12.5600   -0.9720 C.3   151  THP151      0.0847
     16  C1'       18.0130   11.0890   -0.7680 C.3   151  THP151      0.2089
     17  N1        16.6400   10.7030   -1.1250 N.am  151  THP151     -0.1794
     18  C2        16.3330   10.5700   -2.5010 C.1   151  THP151      0.2844
     19  O2        17.2300   10.8200   -3.3470 O.2   151  THP151     -0.1918
     20  N3        15.1050   10.2150   -2.9190 N.2   151  THP151     -0.2455
     21  C4        14.1470    9.9500   -2.0220 C.1   151  THP151      0.2134
     22  O4        13.0230    9.6050   -2.4050 O.2   151  THP151     -0.2088
     23  C5        14.4390   10.0660   -0.5620 C.2   151  THP151      0.0891
     24  C5M       13.3810    9.7800    0.4750 C.3   151  THP151      0.0462
     25  C6        15.7150   10.4500   -0.1770 C.2   151  THP151      0.0877
@<TRIPOS>BOND
     1    19    18    2
     2    20    18    2
     3    20    21    2
     4    18    17   am
     5    22    21    2
     6    21    23    1
     7    17    16    1
     8    17    25    1
     9    15    16    1
    10    15    13    1
    11     7     5    2
    12    16    12    1
    13    23    25    2
    14    23    24    1
    15    13    14    1
    16    13    11    1
    17    14     5    1
    18     5     8    1
    19     5     6    1
    20    12    11    1
    21    11    10    1
    22    10     9    1
    23     9     1    1
    24     1     3    2
    25     1     4    1
    26     1     2    1
