@<TRIPOS>MOLECULE
3c1k_T15_A_1.pdb
 38 40 0 0 0
SMALL
GASTEIGER

@<TRIPOS>ATOM
      1  C1        22.0550  -15.9300   25.2250 C.ar  403  T15403     -0.0003
      2  C2        20.9050  -16.6570   25.5380 C.ar  403  T15403     -0.0025
      3  C3        19.7870  -16.0110   26.0790 C.ar  403  T15403      0.0033
      4  C4        19.8140  -14.6410   26.3070 C.ar  403  T15403     -0.0025
      5  C5        20.9650  -13.9140   25.9970 C.ar  403  T15403     -0.0003
      6  C6        22.0830  -14.5580   25.4550 C.ar  403  T15403     -0.0000
      7  C7        18.5680  -16.8090   26.4500 C.3   403  T15403      0.2007
      8  S8        17.6640  -17.4340   25.0350 S.O2  403  T15403      0.0776
      9  N9        17.0810  -16.1830   24.1820 N.pl3 403  T15403     -0.0955
     10  C10       17.2530  -14.3100   22.6990 C.ar  403  T15403      0.2778
     11  N11       18.0610  -13.6730   21.7500 N.ar  403  T15403     -0.2892
     12  C12       19.2830  -14.0830   21.3950 C.ar  403  T15403      0.0408
     13  C13       19.8440  -15.2090   21.9830 C.ar  403  T15403      0.0144
     14  C14       19.1220  -15.9120   22.9400 C.ar  403  T15403      0.0240
     15  O15       16.1300  -13.8740   22.9590 O.2   403  T15403     -0.2655
     16  C16       20.0230  -13.3520   20.3450 C.3   403  T15403      0.0501
     17  C17       17.5590  -12.4570   21.0970 C.3   403  T15403      0.1956
     18  C18       16.2630  -12.7260   20.4460 C.2   403  T15403      0.2646
     19  C19       17.8450  -15.4900   23.3030 C.ar  403  T15403      0.1466
     20  N20       15.2740  -11.9350   20.8680 N.am  403  T15403     -0.2019
     21  C22       12.8980  -12.2040   21.3910 C.3   403  T15403      0.1173
     22  N23       12.5000  -13.2800   22.0890 N.3   403  T15403     -0.2391
     23  C24       11.5410  -12.8860   23.0000 C.3   403  T15403      0.2008
     24  N25       11.3760  -11.5340   22.8490 N.2   403  T15403     -0.2595
     25  C26       12.1970  -11.1180   21.8500 C.2   403  T15403      0.0497
     26  C28       12.9950  -14.6520   21.9140 C.3   403  T15403      0.1620
     27  C29       12.3030  -15.3840   20.7710 C.2   403  T15403      0.2577
     28  N30       12.4130  -16.7130   20.8780 N.am  403  T15403     -0.2077
     29  C31       11.8650  -17.5720   19.8440 C.3   403  T15403      0.0788
     30  C32       12.4320  -17.1660   18.4560 C.3   403  T15403      0.0217
     31  C33       10.3270  -17.4480   19.9020 C.3   403  T15403      0.0217
     32  C34       12.2480  -19.0410   20.0940 C.3   403  T15403      0.0217
     33  O35       11.7760  -14.8150   19.8290 O.2   403  T15403     -0.2718
     34  O36       16.1320  -13.6700   19.6920 O.2   403  T15403     -0.2712
     35  O37       16.5180  -18.1240   25.5420 O.2   403  T15403     -0.1525
     36  O38       18.5610  -18.1490   24.1700 O.2   403  T15403     -0.1525
     37  C8        12.2880   -9.7380   21.3810 C.3   403  T15403      0.0483
     38  C9        13.9330  -12.1840   20.3020 C.3   403  T15403      0.1368
@<TRIPOS>BOND
     1    30    29    1
     2    34    18    2
     3    33    27    2
     4    29    31    1
     5    29    32    1
     6    29    28    1
     7    38    20    1
     8    38    21    1
     9    16    12    1
    10    18    20   am
    11    18    17    1
    12    27    28   am
    13    27    26    1
    14    17    11    1
    15    37    25    1
    16    21    25    1
    17    21    22    1
    18    12    11   ar
    19    12    13   ar
    20    11    10   ar
    21    25    24    2
    22    26    22    1
    23    13    14   ar
    24    22    23    1
    25    10    15    2
    26    10    19   ar
    27    24    23    1
    28    14    19   ar
    29    19     9    1
    30    36     8    2
    31     9     8    1
    32     8    35    2
    33     8     7    1
    34     1     6   ar
    35     1     2   ar
    36     6     5   ar
    37     2     3   ar
    38     5     4   ar
    39     3     4   ar
    40     3     7    1
