@<TRIPOS>MOLECULE
3c1m_ANP_A_1.pdb
 31 33 0 0 0
SMALL
GASTEIGER

@<TRIPOS>ATOM
      1  PG        35.4170   15.5630   62.7610 P.3   472  ANP472      0.4884
      2  O1G       34.7350   14.7470   61.6820 O.2   472  ANP472     -0.2331
      3  O2G       34.7530   16.9080   62.9970 O.3   472  ANP472     -0.1240
      4  O3G       35.7480   14.7780   64.0000 O.3   472  ANP472     -0.1240
      5  PB        37.1390   16.7700   60.5890 P.3   472  ANP472      0.4669
      6  O1B       37.9620   18.0300   60.7760 O.3   472  ANP472     -0.1253
      7  O2B       35.7760   16.8490   59.9770 O.2   472  ANP472     -0.2351
      8  N3B       36.9860   15.9780   62.1320 N.3   472  ANP472     -0.0163
      9  PA        37.4740   14.4790   58.9100 P.3   472  ANP472      0.2220
     10  O1A       36.0350   14.1920   59.2230 O.3   472  ANP472     -0.4370
     11  O2A       38.5410   13.4160   59.0720 O.2   472  ANP472     -0.5170
     12  O3A       38.0020   15.8110   59.6310 O.3   472  ANP472     -0.2360
     13  O5'       37.5520   14.9390   57.3680 O.3   472  ANP472     -0.3111
     14  C5'       38.7990   15.3990   56.8540 C.3   472  ANP472      0.1813
     15  C4'       39.4840   14.2600   56.1300 C.3   472  ANP472      0.1821
     16  O4'       38.7700   13.9720   54.9260 O.3   472  ANP472     -0.3135
     17  C3'       40.8600   14.6630   55.6470 C.3   472  ANP472      0.2184
     18  O3'       41.9010   14.3860   56.5960 O.3   472  ANP472     -0.2174
     19  C2'       41.0320   13.8850   54.3520 C.3   472  ANP472      0.2570
     20  O2'       41.9450   12.8100   54.5390 O.3   472  ANP472     -0.2130
     21  C1'       39.6630   13.2970   54.0480 C.3   472  ANP472      0.3186
     22  N9        39.2640   13.5280   52.6420 N.pl3 472  ANP472     -0.1439
     23  C8        38.5690   12.6590   51.8900 C.3   472  ANP472      0.3377
     24  N7        38.3450   13.1360   50.6530 N.2   472  ANP472     -0.2095
     25  C5        38.9020   14.3530   50.5960 C.2   472  ANP472      0.2526
     26  C6        39.0220   15.4060   49.5770 C.2   472  ANP472      0.4393
     27  N6        38.5030   15.2350   48.3330 N.pl3 472  ANP472      0.2180
     28  N1        39.6720   16.5310   49.9260 N.2   472  ANP472      0.0021
     29  C2        40.2140   16.7220   51.1430 C.3   472  ANP472      0.5254
     30  N3        40.1390   15.8080   52.1240 N.2   472  ANP472     -0.0055
     31  C4        39.5130   14.6180   51.9100 C.2   472  ANP472      0.3518
@<TRIPOS>BOND
     1    27    26    1
     2    26    28    2
     3    26    25    1
     4    28    29    1
     5    25    24    2
     6    25    31    1
     7    24    23    1
     8    29    30    1
     9    23    22    1
    10    31    30    2
    11    31    22    1
    12    22    21    1
    13    21    19    1
    14    21    16    1
    15    19    20    1
    16    19    17    1
    17    16    15    1
    18    17    15    1
    19    17    18    1
    20    15    14    1
    21    14    13    1
    22    13     9    1
    23     9    11    2
    24     9    10    1
    25     9    12    1
    26    12     5    1
    27     7     5    2
    28     5     6    1
    29     5     8    1
    30     2     1    2
    31     8     1    1
    32     1     3    1
    33     1     4    1
