@<TRIPOS>MOLECULE
3c1o_NAP_A_1.pdb
 48 52 0 0 0
SMALL
GASTEIGER

@<TRIPOS>ATOM
      1  PA        56.5290   -2.9500   16.0610 P.3   401  NAP401      0.2189
      2  O1A       57.6590   -1.9870   16.0560 O.2   401  NAP401     -0.5170
      3  O2A       56.2120   -3.7440   17.2690 O.3   401  NAP401     -0.4371
      4  O5B       56.7510   -3.8670   14.7830 O.3   401  NAP401     -0.3112
      5  C5B       58.0080   -4.4830   14.5250 C.3   401  NAP401      0.1813
      6  C4B       57.6710   -5.6790   13.6790 C.3   401  NAP401      0.1820
      7  O4B       58.0440   -5.7140   12.1920 O.3   401  NAP401     -0.3136
      8  C3B       58.3240   -6.9810   14.0580 C.3   401  NAP401      0.2157
      9  O3B       57.3930   -8.0030   13.7220 O.3   401  NAP401     -0.2175
     10  C2B       59.5930   -7.1400   13.2310 C.3   401  NAP401      0.2314
     11  O2B       60.0430   -8.4480   13.0260 O.3   401  NAP401     -0.2630
     12  C1B       59.2830   -6.3770   11.9700 C.3   401  NAP401      0.3158
     13  N9A       60.3290   -5.4700   11.5070 N.pl3 401  NAP401     -0.1439
     14  C8A       60.8780   -4.3760   12.1560 C.3   401  NAP401      0.3377
     15  N7A       61.8130   -3.7780   11.4380 N.2   401  NAP401     -0.2095
     16  C5A       61.8660   -4.5090   10.2870 C.2   401  NAP401      0.2526
     17  C6A       62.6580   -4.3930    9.1100 C.2   401  NAP401      0.4393
     18  N6A       63.5730   -3.4200    8.9730 N.pl3 401  NAP401      0.2180
     19  N1A       62.4550   -5.3160    8.1120 N.2   401  NAP401      0.0021
     20  C2A       61.5270   -6.3010    8.2510 C.3   401  NAP401      0.5254
     21  N3A       60.7240   -6.5010    9.3300 N.2   401  NAP401     -0.0055
     22  C4A       60.9510   -5.5530   10.3110 C.2   401  NAP401      0.3518
     23  O3        55.2390   -2.1630   15.4740 O.3   401  NAP401     -0.2703
     24  PN        53.9890   -1.6740   16.3190 P.3   401  NAP401      0.2189
     25  O1N       54.4220   -0.8480   17.4710 O.3   401  NAP401     -0.4371
     26  O2N       53.1910   -2.9020   16.6190 O.2   401  NAP401     -0.5170
     27  O5D       53.1550   -0.7880   15.2870 O.3   401  NAP401     -0.3112
     28  C5D       52.4470   -1.3670   14.1690 C.3   401  NAP401      0.1813
     29  C4D       51.3670   -0.4110   13.7000 C.3   401  NAP401      0.1799
     30  O4D       50.5750   -0.0270   14.8620 O.3   401  NAP401     -0.3327
     31  C3D       51.9190    0.8710   13.0230 C.3   401  NAP401      0.2158
     32  O3D       51.1530    1.2410   11.9050 O.3   401  NAP401     -0.2175
     33  C2D       51.8580    1.8400   14.1680 C.3   401  NAP401      0.2309
     34  O2D       51.7970    3.1650   13.6750 O.3   401  NAP401     -0.2158
     35  C1D       50.6470    1.4160   14.9470 C.3   401  NAP401      0.2263
     36  N1N       50.6860    1.9140   16.3520 N.pl3 401  NAP401     -0.2787
     37  C2N       49.5340    2.4970   16.8320 C.3   401  NAP401      0.1244
     38  C3N       49.4300    2.8450   18.1840 C.2   401  NAP401      0.0544
     39  C7N       48.1590    3.4070   18.7560 C.2   401  NAP401      0.2818
     40  O7N       48.1200    3.7360   19.9430 O.2   401  NAP401     -0.2670
     41  N7N       47.1000    3.5060   17.9390 N.am  401  NAP401     -0.0839
     42  C4N       50.5580    2.6460   19.0430 C.2   401  NAP401      0.0033
     43  C5N       51.7240    2.0500   18.5350 C.2   401  NAP401      0.0157
     44  C6N       51.7780    1.6550   17.2000 C.2   401  NAP401      0.0633
     45  P2B       61.1790   -9.1070   13.9690 P.3   401  NAP401      0.5328
     46  O1X       60.4900  -10.0230   14.9630 O.3   401  NAP401     -0.1145
     47  O2X       62.0510   -9.7750   12.9410 O.2   401  NAP401     -0.2224
     48  O3X       61.8850   -7.9620   14.6760 O.3   401  NAP401     -0.1145
@<TRIPOS>BOND
     1    19    20    1
     2    19    17    2
     3    20    21    1
     4    18    17    1
     5    17    16    1
     6    21    22    2
     7    16    22    1
     8    16    15    2
     9    22    13    1
    10    15    14    1
    11    13    12    1
    12    13    14    1
    13    32    31    1
    14    12     7    1
    15    12    10    1
    16     7     6    1
    17    47    45    2
    18    31    29    1
    19    31    33    1
    20    11    10    1
    21    11    45    1
    22    10     8    1
    23    34    33    1
    24     6     8    1
    25     6     5    1
    26    29    28    1
    27    29    30    1
    28     9     8    1
    29    45    48    1
    30    45    46    1
    31    33    35    1
    32    28    27    1
    33     5     4    1
    34     4     1    1
    35    30    35    1
    36    35    36    1
    37    27    24    1
    38    23     1    1
    39    23    24    1
    40     2     1    2
    41     1     3    1
    42    24    26    2
    43    24    25    1
    44    36    37    1
    45    36    44    1
    46    37    38    1
    47    44    43    2
    48    41    39   am
    49    38    39    1
    50    38    42    2
    51    43    42    1
    52    39    40    2
