@<TRIPOS>MOLECULE
3c1s_GSH_A_1.pdb
 20 19 0 0 0
SMALL
GASTEIGER

@<TRIPOS>ATOM
      1  N1        10.0990    7.6900   19.9010 N.3   2001  GSH2001    -0.1208
      2  CA1        8.7340    7.9710   19.4950 C.3   2001  GSH2001     0.1948
      3  C1         8.7860    8.8960   18.3010 C.2   2001  GSH2001     0.3819
      4  O11        9.7960    9.6160   18.0680 O.co2 2001  GSH2001    -0.2441
      5  O12        7.7920    8.8800   17.5480 O.co2 2001  GSH2001    -0.2441
      6  CB1        7.9720    8.5470   20.6940 C.3   2001  GSH2001     0.0402
      7  CG1        6.4850    8.7880   20.4460 C.3   2001  GSH2001     0.0889
      8  CD1        5.6270    8.5730   21.6860 C.2   2001  GSH2001     0.2418
      9  OE1        6.1260    8.1810   22.7300 O.2   2001  GSH2001    -0.2733
     10  N2         4.3220    8.8190   21.5780 N.am  2001  GSH2001    -0.1968
     11  CA2        3.4050    8.6170   22.7000 C.3   2001  GSH2001     0.1843
     12  C2         2.6350    7.3290   22.5660 C.2   2001  GSH2001     0.2627
     13  O2         2.3180    6.8850   21.4680 O.2   2001  GSH2001    -0.2714
     14  CB2        2.3850    9.7450   22.6350 C.3   2001  GSH2001     0.0997
     15  SG2        3.1210   11.3940   22.6920 S.3   2001  GSH2001    -0.0797
     16  N3         2.2920    6.6990   23.6800 N.am  2001  GSH2001    -0.1917
     17  CA3        1.5610    5.4500   23.7190 C.3   2001  GSH2001     0.2285
     18  C3         0.1620    5.5870   23.1460 C.2   2001  GSH2001     0.3865
     19  O31       -0.2570    6.7260   22.7890 O.co2 2001  GSH2001    -0.2437
     20  O32       -0.5300    4.5270   23.0640 O.co2 2001  GSH2001    -0.2437
@<TRIPOS>BOND
     1     5     3   ar
     2     4     3   ar
     3     3     2    1
     4     2     1    1
     5     2     6    1
     6     7     6    1
     7     7     8    1
     8    13    12    2
     9    10     8   am
    10    10    11    1
    11     8     9    2
    12    12    11    1
    13    12    16   am
    14    14    15    1
    15    14    11    1
    16    19    18   ar
    17    20    18   ar
    18    18    17    1
    19    16    17    1
