@<TRIPOS>MOLECULE
3c1t_MYC_A_1.pdb
 23 25 0 0 0
SMALL
GASTEIGER

@<TRIPOS>ATOM
      1  C1        -4.0200  -50.1660   55.6810 C.ar  341  MYC341      0.0843
      2  C2        -4.0110  -48.8830   55.1510 C.ar  341  MYC341      0.2050
      3  C3        -3.4480  -48.6970   53.8800 C.ar  341  MYC341      0.1158
      4  C4        -2.8990  -49.7850   53.1850 C.ar  341  MYC341      0.1549
      5  C5        -2.8950  -51.0700   53.7300 C.ar  341  MYC341      0.0798
      6  C6        -3.4470  -51.2350   54.9910 C.ar  341  MYC341      0.2020
      7  C9        -3.4180  -47.3590   53.2160 C.ar  341  MYC341      0.2433
      8  C10       -2.8310  -47.2630   51.9490 C.ar  341  MYC341      0.2685
      9  C11       -2.2960  -48.3800   51.3300 C.ar  341  MYC341      0.1873
     10  C14       -1.6540  -48.3620   49.9880 C.ar  341  MYC341      0.0445
     11  C15       -0.2830  -48.5890   49.9080 C.ar  341  MYC341      0.0487
     12  C16        0.3360  -48.5830   48.6630 C.ar  341  MYC341      0.2376
     13  C17       -0.3950  -48.3490   47.4970 C.ar  341  MYC341      0.2727
     14  C18       -1.7590  -48.1410   47.5780 C.ar  341  MYC341      0.2376
     15  C19       -2.3970  -48.1410   48.8280 C.ar  341  MYC341      0.0487
     16  O12       -2.3380  -49.6010   51.9480 O.2   341  MYC341     -0.4498
     17  O13       -3.9300  -46.3740   53.8000 O.2   341  MYC341     -0.2828
     18  O23       -2.4620  -47.9150   46.4380 O.3   341  MYC341     -0.2830
     19  O24        0.1740  -48.3480   46.2640 O.3   341  MYC341     -0.2797
     20  O25        1.6650  -48.7880   48.6000 O.3   341  MYC341     -0.2830
     21  O27       -2.7990  -46.0940   51.2880 O.3   341  MYC341     -0.2798
     22  O29       -3.4580  -52.4630   55.5400 O.3   341  MYC341     -0.2864
     23  O30       -4.5570  -47.8490   55.8720 O.3   341  MYC341     -0.2862
@<TRIPOS>BOND
     1    19    13    1
     2    18    14    1
     3    13    14   ar
     4    13    12   ar
     5    14    15   ar
     6    20    12    1
     7    12    11   ar
     8    15    10   ar
     9    11    10   ar
    10    10     9    1
    11    21     8    1
    12     9    16   ar
    13     9     8   ar
    14    16     4   ar
    15     8     7   ar
    16     4     5   ar
    17     4     3   ar
    18     7    17    2
    19     7     3   ar
    20     5     6   ar
    21     3     2   ar
    22     6    22    1
    23     6     1   ar
    24     2     1   ar
    25     2    23    1
