@<TRIPOS>MOLECULE
3c1x_CKK_A_1.pdb
 39 43 0 0 0
SMALL
GASTEIGER

@<TRIPOS>ATOM
      1  N14       -0.3370    6.2240   52.3960 N.am  1500  CKK1500    -0.1605
      2  C17       -0.1970    9.8880   52.7960 C.ar  1500  CKK1500     0.1757
      3  C16       -0.3340    8.6370   52.2520 C.ar  1500  CKK1500     0.0494
      4  C15       -0.1760    7.4850   53.0140 C.ar  1500  CKK1500     0.0774
      5  C19        0.1460    7.6040   54.3940 C.ar  1500  CKK1500     0.0199
      6  C20        0.2930    8.8940   54.9560 C.ar  1500  CKK1500     0.0412
      7  C21        0.1090   10.0230   54.1320 C.ar  1500  CKK1500     0.1745
      8  C23       -0.8400   11.6800   55.3780 C.ar  1500  CKK1500     0.2489
      9  C12       -0.6790    6.0220   51.1150 C.2   1500  CKK1500     0.3501
     10  C27       -0.4750   12.6030   56.3860 C.ar  1500  CKK1500     0.1336
     11  C33        2.9000   11.1190   56.7100 C.3   1500  CKK1500     0.0739
     12  F1        -1.3010   -1.4800   54.8740 F     1500  CKK1500    -0.2042
     13  C2        -1.3200   -0.5210   53.9730 C.ar  1500  CKK1500     0.1401
     14  C3        -0.2420   -0.4560   53.1420 C.ar  1500  CKK1500     0.0293
     15  C4        -0.1690    0.5370   52.1600 C.ar  1500  CKK1500    -0.0015
     16  C5        -2.4030    0.3500   53.9310 C.ar  1500  CKK1500     0.0293
     17  C6        -2.3470    1.3370   52.9470 C.ar  1500  CKK1500    -0.0015
     18  C7        -1.2400    1.4180   52.0620 C.ar  1500  CKK1500    -0.0129
     19  C8        -1.1830    2.4440   51.0350 C.3   1500  CKK1500     0.1136
     20  C9        -0.9900    3.7690   51.6900 C.2   1500  CKK1500     0.2536
     21  O10       -0.8150    3.9800   52.8940 O.2   1500  CKK1500    -0.2725
     22  N11       -0.9530    4.7710   50.7900 N.am  1500  CKK1500    -0.1256
     23  O13       -0.7710    6.8260   50.2270 O.2   1500  CKK1500    -0.2484
     24  F18       -0.3680   10.9600   52.0170 F     1500  CKK1500    -0.2009
     25  O22        0.2170   11.3310   54.5870 O.3   1500  CKK1500    -0.4325
     26  N24       -2.0240   11.2190   55.2410 N.ar  1500  CKK1500    -0.1863
     27  C25       -2.9440   11.6500   56.1400 C.ar  1500  CKK1500     0.2225
     28  N26       -2.7460   12.4990   57.0980 N.ar  1500  CKK1500    -0.1421
     29  N28       -1.5020   12.9730   57.2050 N.ar  1500  CKK1500    -0.2224
     30  C29       -1.0630   13.8580   58.1250 C.ar  1500  CKK1500     0.1004
     31  C30        0.2920   14.0430   57.9310 C.ar  1500  CKK1500     0.0194
     32  C31        0.6920   13.2620   56.7790 C.ar  1500  CKK1500     0.0177
     33  C32        2.0690   13.2420   56.1810 C.3   1500  CKK1500     0.1009
     34  N34        3.0260   12.5470   57.0480 N.3   1500  CKK1500    -0.2688
     35  C35        4.4170   13.0480   56.8310 C.3   1500  CKK1500     0.0739
     36  C36        5.5070   12.1850   57.4940 C.3   1500  CKK1500     0.0364
     37  C37        5.2760   10.6960   57.1810 C.3   1500  CKK1500     0.0946
     38  C38        3.8620   10.2750   57.5090 C.3   1500  CKK1500     0.0364
     39  N39        6.1510    9.8070   57.9820 N.3   1500  CKK1500    -0.1328
@<TRIPOS>BOND
     1    23     9    2
     2    22     9   am
     3    22    20   am
     4    19    20    1
     5    19    18    1
     6     9     1   am
     7    20    21    2
     8    24     2    1
     9    18    15   ar
    10    18    17   ar
    11    15    14   ar
    12     3     2   ar
    13     3     4   ar
    14     1     4    1
    15     2     7   ar
    16    17    16   ar
    17     4     5   ar
    18    14    13   ar
    19    16    13   ar
    20    13    12    1
    21     7    25    1
    22     7     6   ar
    23     5     6   ar
    24    25     8    1
    25    26     8   ar
    26    26    27   ar
    27     8    10   ar
    28    27    28   ar
    29    33    32    1
    30    33    34    1
    31    10    32   ar
    32    10    29   ar
    33    11    34    1
    34    11    38    1
    35    32    31   ar
    36    35    34    1
    37    35    36    1
    38    28    29   ar
    39    37    36    1
    40    37    38    1
    41    37    39    1
    42    29    30   ar
    43    31    30   ar
