@<TRIPOS>MOLECULE
3c1y_2BA_A_1.pdb
 44 50 0 0 0
SMALL
GASTEIGER

@<TRIPOS>ATOM
      1  P         67.6130   14.3950  -38.0530 P.3   358  2BA358      0.2141
      2  O1P       69.0330   14.7750  -37.7400 O.2   358  2BA358     -0.5172
      3  O2P       67.2280   13.1420  -37.2880 O.3   358  2BA358     -0.4373
      4  O5'       66.6040   15.5740  -37.6070 O.3   358  2BA358     -0.3114
      5  C5'       65.2250   15.3690  -37.8070 C.3   358  2BA358      0.1812
      6  C4'       64.3180   16.5840  -37.7980 C.3   358  2BA358      0.1793
      7  O4'       64.6800   17.4580  -36.7430 O.3   358  2BA358     -0.3136
      8  C3'       64.3880   17.4050  -39.0410 C.3   358  2BA358      0.1884
      9  O3'       63.9590   16.6290  -40.1770 O.3   358  2BA358     -0.3111
     10  C2'       63.7140   18.6620  -38.5040 C.3   358  2BA358      0.2541
     11  O2'       62.2760   18.5740  -38.5020 O.3   358  2BA358     -0.2131
     12  C1'       64.3030   18.8010  -37.0890 C.3   358  2BA358      0.3185
     13  N9        65.7560   19.7270  -37.1790 N.pl3 358  2BA358     -0.1439
     14  C8        67.1330   19.5260  -37.0630 C.3   358  2BA358      0.3377
     15  N7        67.7790   20.6450  -37.2160 N.2   358  2BA358     -0.2095
     16  C5        66.8910   21.6500  -37.4250 C.2   358  2BA358      0.2526
     17  C6        66.9790   23.0640  -37.6510 C.2   358  2BA358      0.4393
     18  N6        68.2120   23.6710  -37.6810 N.pl3 358  2BA358      0.2180
     19  N1        65.8270   23.7930  -37.8280 N.2   358  2BA358      0.0021
     20  C2        64.5940   23.2180  -37.8010 C.3   358  2BA358      0.5254
     21  N3        64.4890   21.8870  -37.5920 N.2   358  2BA358     -0.0055
     22  C4        65.5760   21.0780  -37.4080 C.2   358  2BA358      0.3518
     23  P1        64.4500   16.8840  -41.7200 P.3   358  2BA358      0.2141
     24 O1P1       64.5450   18.3810  -41.8390 O.3   358  2BA358     -0.4373
     25 O2P1       63.4340   16.3160  -42.6940 O.2   358  2BA358     -0.5172
     26 O5'1       65.8440   16.1890  -42.0280 O.3   358  2BA358     -0.3114
     27 C5'1       65.9300   14.7970  -41.9670 C.3   358  2BA358      0.1812
     28 C4'1       67.2640   14.1450  -41.8010 C.3   358  2BA358      0.1793
     29 O4'1       68.1500   14.6460  -42.8130 O.3   358  2BA358     -0.3136
     30 C3'1       67.8910   14.4310  -40.4390 C.3   358  2BA358      0.1884
     31 O3'1       67.4320   13.7180  -39.3340 O.3   358  2BA358     -0.3111
     32 C2'1       69.3520   14.3100  -40.8450 C.3   358  2BA358      0.2541
     33 O2'1       69.8050   12.9710  -40.7180 O.3   358  2BA358     -0.2131
     34 C1'1       69.4450   14.7680  -42.2890 C.3   358  2BA358      0.3185
     35  N91       70.0850   16.0990  -42.2720 N.pl3 358  2BA358     -0.1439
     36  C81       69.3800   17.3090  -42.4050 C.3   358  2BA358      0.3377
     37  N71       70.1910   18.3340  -42.3430 N.2   358  2BA358     -0.2095
     38  C51       71.4560   17.8760  -42.1700 C.2   358  2BA358      0.2526
     39  C61       72.7570   18.4720  -42.0250 C.2   358  2BA358      0.4393
     40  N61       72.9020   19.8460  -42.0420 N.pl3 358  2BA358      0.2180
     41  N11       73.8500   17.6540  -41.8640 N.2   358  2BA358      0.0021
     42  C21       73.7520   16.2910  -41.8350 C.3   358  2BA358      0.5254
     43  N31       72.5400   15.7050  -41.9640 N.2   358  2BA358     -0.0055
     44  C41       71.3960   16.4360  -42.1270 C.2   358  2BA358      0.3518
@<TRIPOS>BOND
     1    29    34    1
     2    29    28    1
     3    25    23    2
     4    36    37    1
     5    36    35    1
     6    37    38    2
     7    34    35    1
     8    34    32    1
     9    35    44    1
    10    38    44    1
    11    38    39    1
    12    44    43    2
    13    40    39    1
    14    26    27    1
    15    26    23    1
    16    39    41    2
    17    27    28    1
    18    43    42    1
    19    41    42    1
    20    24    23    1
    21    28    30    1
    22    23     9    1
    23    32    33    1
    24    32    30    1
    25    30    31    1
    26     9     8    1
    27    31     1    1
    28     8    10    1
    29     8     6    1
    30    10    11    1
    31    10    12    1
    32     1     2    2
    33     1     4    1
    34     1     3    1
    35    19    20    1
    36    19    17    2
    37     5     6    1
    38     5     4    1
    39    20    21    1
    40     6     7    1
    41    18    17    1
    42    17    16    1
    43    21    22    2
    44    16    22    1
    45    16    15    2
    46    22    13    1
    47    15    14    1
    48    13    12    1
    49    13    14    1
    50    12     7    1
