@<TRIPOS>MOLECULE
3c21_2BA_A_1.pdb
 44 50 0 0 0
SMALL
GASTEIGER

@<TRIPOS>ATOM
      1  P        -10.9590  -37.9620  -41.7640 P.3   358  2BA358      0.2141
      2  O1P      -10.9570  -36.5190  -41.3620 O.2   358  2BA358     -0.5172
      3  O2P       -9.8040  -38.6850  -41.1010 O.3   358  2BA358     -0.4373
      4  O5'      -12.2800  -38.6730  -41.3170 O.3   358  2BA358     -0.3114
      5  C5'      -12.4130  -40.0490  -41.6070 C.3   358  2BA358      0.1812
      6  C4'      -13.8090  -40.6580  -41.5200 C.3   358  2BA358      0.1793
      7  O4'      -14.5090  -40.1060  -40.4290 O.3   358  2BA358     -0.3136
      8  C3'      -14.6550  -40.4170  -42.7450 C.3   358  2BA358      0.1884
      9  O3'      -14.0490  -41.0550  -43.8930 O.3   358  2BA358     -0.3111
     10  C2'      -16.0150  -40.7570  -42.1360 C.3   358  2BA358      0.2541
     11  O2'      -16.3080  -42.1520  -42.1360 O.3   358  2BA358     -0.2131
     12  C1'      -15.9260  -40.1840  -40.7240 C.3   358  2BA358      0.3185
     13  N9       -16.5340  -38.5900  -40.7440 N.pl3 358  2BA358     -0.1439
     14  C8       -16.0480  -37.3060  -40.5900 C.3   358  2BA358      0.3377
     15  N7       -17.0020  -36.4450  -40.6900 N.2   358  2BA358     -0.2095
     16  C5       -18.1640  -37.0920  -40.8980 C.2   358  2BA358      0.2526
     17  C6       -19.5250  -36.6860  -41.0820 C.2   358  2BA358      0.4393
     18  N6       -19.8400  -35.3380  -41.0540 N.pl3 358  2BA358      0.2180
     19  N1       -20.4940  -37.6490  -41.2780 N.2   358  2BA358      0.0021
     20  C2       -20.1920  -38.9800  -41.3070 C.3   358  2BA358      0.5254
     21  N3       -18.9080  -39.3840  -41.1370 N.2   358  2BA358     -0.0055
     22  C4       -17.8850  -38.4880  -40.9360 C.2   358  2BA358      0.3518
     23  P1       -14.2040  -40.5110  -45.4200 P.3   358  2BA358      0.2141
     24 O1P1      -15.6920  -40.1890  -45.5460 O.3   358  2BA358     -0.4373
     25 O2P1      -13.8210  -41.5860  -46.4380 O.2   358  2BA358     -0.5172
     26 O5'1      -13.2620  -39.2170  -45.6760 O.3   358  2BA358     -0.3114
     27 C5'1      -11.8600  -39.3560  -45.6040 C.3   358  2BA358      0.1812
     28 C4'1      -10.9440  -38.1570  -45.4580 C.3   358  2BA358      0.1793
     29 O4'1      -11.2090  -37.1420  -46.4370 O.3   358  2BA358     -0.3136
     30 C3'1      -11.0100  -37.5180  -44.0880 C.3   358  2BA358      0.1884
     31 O3'1      -10.3840  -38.1940  -43.0650 O.3   358  2BA358     -0.3111
     32 C2'1      -10.5240  -36.1130  -44.4350 C.3   358  2BA358      0.2541
     33 O2'1       -9.1030  -35.9990  -44.2850 O.3   358  2BA358     -0.2131
     34 C1'1      -10.9560  -35.8480  -45.8770 C.3   358  2BA358      0.3185
     35  N91      -12.0660  -34.8320  -45.8180 N.pl3 358  2BA358     -0.1439
     36  C81      -13.4270  -35.1810  -45.9370 C.3   358  2BA358      0.3377
     37  N71      -14.1900  -34.1310  -45.8430 N.2   358  2BA358     -0.2095
     38  C51      -13.4220  -33.0290  -45.6610 C.2   358  2BA358      0.2526
     39  C61      -13.6690  -31.6100  -45.4840 C.2   358  2BA358      0.4393
     40  N61      -14.9600  -31.1200  -45.4810 N.pl3 358  2BA358      0.2180
     41  N11      -12.6000  -30.7620  -45.3230 N.2   358  2BA358      0.0021
     42  C21      -11.3120  -31.2080  -45.3170 C.3   358  2BA358      0.5254
     43  N31      -11.0610  -32.5290  -45.4760 N.2   358  2BA358     -0.0055
     44  C41      -12.0540  -33.4580  -45.6430 C.2   358  2BA358      0.3518
@<TRIPOS>BOND
     1    25    23    2
     2    29    34    1
     3    29    28    1
     4    36    37    1
     5    36    35    1
     6    34    35    1
     7    34    32    1
     8    37    38    2
     9    35    44    1
    10    26    27    1
    11    26    23    1
    12    38    44    1
    13    38    39    1
    14    44    43    2
    15    27    28    1
    16    24    23    1
    17    39    40    1
    18    39    41    2
    19    43    42    1
    20    28    30    1
    21    23     9    1
    22    41    42    1
    23    32    33    1
    24    32    30    1
    25    30    31    1
    26     9     8    1
    27    31     1    1
    28     8    10    1
    29     8     6    1
    30    10    11    1
    31    10    12    1
    32     1     2    2
    33     1     4    1
    34     1     3    1
    35     5     6    1
    36     5     4    1
    37     6     7    1
    38    20    19    1
    39    20    21    1
    40    19    17    2
    41    21    22    2
    42    17    18    1
    43    17    16    1
    44    22    16    1
    45    22    13    1
    46    16    15    2
    47    13    12    1
    48    13    14    1
    49    12     7    1
    50    15    14    1
