@<TRIPOS>MOLECULE
3c23_3AT_A_1.pdb
 30 32 0 0 0
SMALL
GASTEIGER

@<TRIPOS>ATOM
      1  PG       -35.5880   13.8620   76.0440 P.3   611  3AT611      0.5373
      2  O1G      -35.8180   15.1420   76.7510 O.3   611  3AT611     -0.1143
      3  O2G      -36.7950   13.4690   75.0540 O.2   611  3AT611     -0.2221
      4  O3G      -34.2600   13.8810   75.1350 O.3   611  3AT611     -0.1143
      5  PB       -33.9530   12.1990   77.5740 P.3   611  3AT611      0.2277
      6  O1B      -33.9990   11.2900   78.7410 O.3   611  3AT611     -0.4368
      7  O2B      -33.1980   11.5530   76.3080 O.2   611  3AT611     -0.5168
      8  O3B      -35.4170   12.6160   77.0490 O.3   611  3AT611     -0.2258
      9  PA       -32.5180   13.8200   79.3320 P.3   611  3AT611      0.2189
     10  O1A      -31.3960   14.7840   79.2920 O.2   611  3AT611     -0.5170
     11  O2A      -33.7140   14.2930   80.3000 O.3   611  3AT611     -0.4371
     12  O3A      -33.1870   13.5800   77.8870 O.3   611  3AT611     -0.2700
     13  O5'      -32.0740   12.3650   79.8590 O.3   611  3AT611     -0.3113
     14  C5'      -31.3270   12.2420   81.0730 C.3   611  3AT611      0.1787
     15  C4'      -29.8890   11.8020   80.7900 C.3   611  3AT611      0.1520
     16  O4'      -29.1190   12.9340   80.3550 O.3   611  3AT611     -0.3163
     17  C3'      -29.2180   11.3780   82.0970 C.3   611  3AT611      0.0722
     18  C2'      -27.7780   11.8710   81.9470 C.3   611  3AT611      0.2270
     19  O2'      -26.8870   10.7520   81.9540 O.3   611  3AT611     -0.2158
     20  C1'      -27.7580   12.5310   80.5680 C.3   611  3AT611      0.3159
     21  N9       -26.8890   13.7290   80.6060 N.pl3 611  3AT611     -0.1439
     22  C8       -27.2980   14.9960   80.5360 C.3   611  3AT611      0.3377
     23  N7       -26.2390   15.8050   80.6010 N.2   611  3AT611     -0.2095
     24  C5       -25.1540   15.0480   80.7140 C.2   611  3AT611      0.2526
     25  C6       -23.7990   15.3240   80.8190 C.2   611  3AT611      0.4393
     26  N6       -23.3640   16.5810   80.8200 N.pl3 611  3AT611      0.2180
     27  N1       -22.9350   14.3040   80.9210 N.2   611  3AT611      0.0021
     28  C2       -23.3640   13.0510   80.9210 C.3   611  3AT611      0.5254
     29  N3       -24.6500   12.7550   80.8210 N.2   611  3AT611     -0.0055
     30  C4       -25.5640   13.7290   80.7170 C.2   611  3AT611      0.3518
@<TRIPOS>BOND
     1     3     1    2
     2     4     1    1
     3     1     2    1
     4     1     8    1
     5     7     5    2
     6     8     5    1
     7     5    12    1
     8     5     6    1
     9    12     9    1
    10    10     9    2
    11     9    13    1
    12     9    11    1
    13    13    14    1
    14    16    20    1
    15    16    15    1
    16    22    23    1
    17    22    21    1
    18    20    21    1
    19    20    18    1
    20    23    24    2
    21    21    30    1
    22    24    30    1
    23    24    25    1
    24    30    29    2
    25    15    14    1
    26    15    17    1
    27    25    26    1
    28    25    27    2
    29    29    28    1
    30    27    28    1
    31    18    19    1
    32    18    17    1
