@<TRIPOS>MOLECULE
3c27_DKK_B_1.pdb
 31 32 0 0 0
SMALL
GASTEIGER

@<TRIPOS>ATOM
      1  C1        11.2340  -11.8410   24.0240 C.cat 5000  DKK5000     0.5748
      2  O5        13.0470  -11.0050   22.7690 O.2   5000  DKK5000    -0.3064
      3  C7        13.8110  -11.4750   20.5450 C.3   5000  DKK5000     0.1672
      4  C9        16.1450  -12.4770   20.3920 C.2   5000  DKK5000     0.2460
      5  C11       17.6400  -12.3090   20.7360 C.3   5000  DKK5000     0.1160
      6  C12       18.1960  -13.5850   21.3850 C.ar  5000  DKK5000     0.0254
      7  C13       19.4380  -14.0920   20.9140 C.ar  5000  DKK5000     0.0672
      8  C14       19.9940  -15.2520   21.4730 C.ar  5000  DKK5000     0.0114
      9  C15       19.3090  -15.9160   22.5060 C.ar  5000  DKK5000     0.0190
     10  C16       18.0540  -15.4150   22.9840 C.ar  5000  DKK5000     0.0926
     11  C19       20.1550  -13.3380   19.7890 C.1   5000  DKK5000     0.1002
     12  C22       18.0710  -17.2740   24.6170 C.3   5000  DKK5000     0.1845
     13  C30       20.9420  -13.9180   26.1680 C.ar  5000  DKK5000     0.0030
     14  C31       19.8240  -14.7250   26.2890 C.ar  5000  DKK5000     0.0202
     15  N2        11.1650  -10.7000   24.5560 N.pl3 5000  DKK5000     0.1387
     16  N3        10.4210  -12.9530   24.5080 N.pl3 5000  DKK5000     0.1387
     17  N4        12.1990  -12.1080   22.9760 N.pl3 5000  DKK5000     0.1306
     18  C6        13.0770  -10.4740   21.4600 C.3   5000  DKK5000     0.2827
     19  N8        15.2510  -11.3940   20.7940 N.am  5000  DKK5000    -0.2010
     20  O10       15.6960  -13.5550   20.1100 O.2   5000  DKK5000    -0.2730
     21  C17       17.5100  -14.2400   22.4200 C.ar  5000  DKK5000     0.1519
     22  F18       16.3160  -13.7560   22.8610 F     5000  DKK5000    -0.2031
     23  N20       20.6850  -12.7820   18.9580 N.1   5000  DKK5000    -0.1908
     24  N21       17.3670  -16.1260   24.0650 N.pl3 5000  DKK5000    -0.2291
     25  C23       18.6150  -16.9550   26.0290 C.3   5000  DKK5000     0.3179
     26  F24       17.7260  -16.2500   26.7790 F     5000  DKK5000    -0.1960
     27  F25       18.8690  -18.1350   26.6550 F     5000  DKK5000    -0.1960
     28  C26       19.8800  -16.0980   25.9060 C.ar  5000  DKK5000     0.1208
     29  N27       21.0370  -16.6250   25.3790 N.ar  5000  DKK5000    -0.2428
     30  C28       22.1640  -15.8090   25.2500 C.ar  5000  DKK5000     0.0986
     31  C29       22.1230  -14.4430   25.6390 C.ar  5000  DKK5000     0.0207
@<TRIPOS>BOND
     1    23    11    3
     2    11     7    1
     3    20     4    2
     4     4     5    1
     5     4    19   am
     6     3    19    1
     7     3    18    1
     8     5     6    1
     9     7     6   ar
    10     7     8   ar
    11     6    21   ar
    12    18     2    1
    13     8     9   ar
    14    21    22    1
    15    21    10   ar
    16     9    10   ar
    17     2    17    1
    18    17     1    2
    19    10    24    1
    20     1    16    1
    21     1    15    1
    22    24    12    1
    23    12    25    1
    24    30    29   ar
    25    30    31   ar
    26    29    28   ar
    27    31    13   ar
    28    28    25    1
    29    28    14   ar
    30    25    27    1
    31    25    26    1
    32    13    14   ar
