@<TRIPOS>MOLECULE
3c2c_HEM_A_1.pdb
 43 50 0 0 0
SMALL
GASTEIGER

@<TRIPOS>ATOM
      1 FE         38.9100    2.4500   36.2100 Fe    113  HEM113      0.0000
      2  CHA       37.4500    5.1100   34.5300 C.2   113  HEM113      0.0000
      3  CHB       36.2100    0.4000   35.2600 C.2   113  HEM113      0.0000
      4  CHC       40.4200   -0.2300   37.7200 C.2   113  HEM113      0.0000
      5  CHD       41.4000    4.4700   37.3900 C.2   113  HEM113      0.0000
      6  NA        37.1900    2.6900   35.1200 N.ar  113  HEM113      0.0000
      7  C1A       36.8600    3.8300   34.4900 C.ar  113  HEM113      0.0000
      8  C2A       35.6700    3.5300   33.7200 C.ar  113  HEM113      0.0000
      9  C3A       35.2700    2.3000   34.0100 C.ar  113  HEM113      0.0000
     10  C4A       36.3300    1.6600   34.8000 C.ar  113  HEM113      0.0000
     11  CMA       34.0600    1.5200   33.3300 C.3   113  HEM113      0.0000
     12  CAA       34.9000    4.6200   32.8400 C.3   113  HEM113      0.0000
     13  CBA       33.5900    5.2300   33.4600 C.3   113  HEM113      0.0000
     14  CGA       32.9800    6.3100   32.6400 C.2   113  HEM113      0.0000
     15  O1A       33.2100    6.3800   31.3500 O.co2 113  HEM113      0.0000
     16  O2A       32.1100    6.9700   33.2300 O.co2 113  HEM113      0.0000
     17  NB        38.4900    0.5300   36.4000 N.2   113  HEM113      0.0000
     18  C1B       37.2300   -0.0800   36.1500 C.2   113  HEM113      0.0000
     19  C2B       37.2900   -1.4500   36.5400 C.2   113  HEM113      0.0000
     20  C3B       38.4800   -1.5600   37.1700 C.2   113  HEM113      0.0000
     21  C4B       39.2400   -0.3900   37.0800 C.2   113  HEM113      0.0000
     22  CMB       36.0900   -2.4600   36.4400 C.3   113  HEM113      0.0000
     23  CAB       39.1500   -2.9200   37.7100 C.3   113  HEM113      0.0000
     24  CBB       38.9200   -4.1500   36.9700 C.3   113  HEM113      0.0000
     25  NC        40.5900    2.1500   37.2900 N.ar  113  HEM113      0.0000
     26  C1C       41.0100    0.9600   37.7900 C.ar  113  HEM113      0.0000
     27  C2C       42.2800    1.2600   38.6400 C.ar  113  HEM113      0.0000
     28  C3C       42.6000    2.5200   38.3900 C.ar  113  HEM113      0.0000
     29  C4C       41.4300    3.1500   37.7600 C.ar  113  HEM113      0.0000
     30  CMC       43.0800    0.0600   39.1300 C.3   113  HEM113      0.0000
     31  CAC       43.8200    3.3300   38.9000 C.2   113  HEM113      0.0000
     32  CBC       45.1000    2.8600   38.9700 C.2   113  HEM113      0.0000
     33  ND        39.4000    4.3300   35.9500 N.2   113  HEM113      0.0000
     34  C1D       40.4600    5.0300   36.5500 C.2   113  HEM113      0.0000
     35  C2D       40.4400    6.3800   36.1000 C.2   113  HEM113      0.0000
     36  C3D       39.3500    6.5600   35.3300 C.2   113  HEM113      0.0000
     37  C4D       38.6900    5.3200   35.1700 C.2   113  HEM113      0.0000
     38  CMD       41.5700    7.3700   36.5900 C.3   113  HEM113      0.0000
     39  CAD       38.9500    7.8600   34.5500 C.3   113  HEM113      0.0000
     40  CBD       39.9000    7.9200   33.3600 C.3   113  HEM113      0.0000
     41  CGD       40.0700    9.2700   32.7000 C.2   113  HEM113      0.0000
     42  O1D       39.1400   10.1200   32.7300 O.co2 113  HEM113      0.0000
     43  O2D       41.1500    9.4400   31.9800 O.co2 113  HEM113      0.0000
@<TRIPOS>BOND
     1    15    14   ar
     2    43    41   ar
     3    14    16   ar
     4    14    13    1
     5    41    42   ar
     6    41    40    1
     7    12    13    1
     8    12     8    1
     9    11     9    1
    10    40    39    1
    11     8     9   ar
    12     8     7   ar
    13     9    10   ar
    14     7     2    2
    15     7     6   ar
    16     2    37    1
    17    39    36    1
    18    10     6   ar
    19    10     3    2
    20     6     1    1
    21    37    36    1
    22    37    33    2
    23     3    18    1
    24    36    35    2
    25    33     1    1
    26    33    34    1
    27    35    34    1
    28    35    38    1
    29    18    17    2
    30    18    19    1
    31     1    17    1
    32     1    25    1
    33    17    21    1
    34    22    19    1
    35    19    20    2
    36    34     5    2
    37    24    23    1
    38    21    20    1
    39    21     4    2
    40    20    23    1
    41    25    29   ar
    42    25    26   ar
    43     5    29    1
    44     4    26    1
    45    29    28   ar
    46    26    27   ar
    47    28    27   ar
    48    28    31    1
    49    27    30    1
    50    31    32    2
