@<TRIPOS>MOLECULE
3c2f_PRP_A_1.pdb
 22 22 0 0 0
SMALL
GASTEIGER

@<TRIPOS>ATOM
      1  C1        26.5970  -14.9160   44.8780 C.3   300  PRP300      0.2742
      2  C2        26.5310  -16.2310   44.1890 C.3   300  PRP300      0.2408
      3  C3        27.1200  -15.8080   42.8930 C.3   300  PRP300      0.2167
      4  C4        28.3290  -15.0710   43.3870 C.3   300  PRP300      0.1808
      5  C5        28.9310  -14.1700   42.3660 C.3   300  PRP300      0.1859
      6  O1        26.6820  -15.2160   46.2470 O.3   300  PRP300     -0.2857
      7  O2        27.4640  -17.0060   44.9050 O.3   300  PRP300     -0.2149
      8  O3        27.3920  -16.9790   42.1370 O.3   300  PRP300     -0.2175
      9  O4        27.7660  -14.2910   44.3940 O.3   300  PRP300     -0.3255
     10  O5        30.1340  -13.6660   42.8690 O.3   300  PRP300     -0.2675
     11  P         30.7660  -12.3470   42.3340 P.3   300  PRP300      0.5327
     12  O1P       29.8540  -11.2580   42.5240 O.3   300  PRP300     -0.1145
     13  O2P       31.8320  -12.2400   43.2740 O.3   300  PRP300     -0.1145
     14  O3P       31.1140  -12.7350   40.9880 O.2   300  PRP300     -0.2224
     15  PA        25.7910  -14.3490   47.2120 P.3   300  PRP300      0.2249
     16  O1A       25.1360  -13.3750   46.3210 O.2   300  PRP300     -0.5169
     17  O2A       24.9390  -15.2630   47.9850 O.3   300  PRP300     -0.4370
     18  O3A       27.0470  -13.7300   48.3130 O.3   300  PRP300     -0.2260
     19  PB        27.7510  -12.1520   47.8570 P.3   300  PRP300      0.5373
     20  O1B       26.6800  -11.1230   47.8450 O.3   300  PRP300     -0.1143
     21  O2B       28.4720  -12.3180   46.6040 O.2   300  PRP300     -0.2221
     22  O3B       28.6610  -12.0220   49.0140 O.3   300  PRP300     -0.1143
@<TRIPOS>BOND
     1    14    11    2
     2     8     3    1
     3    11    12    1
     4    11    10    1
     5    11    13    1
     6     5    10    1
     7     5     4    1
     8     3     4    1
     9     3     2    1
    10     4     9    1
    11     2     1    1
    12     2     7    1
    13     9     1    1
    14     1     6    1
    15     6    15    1
    16    16    15    2
    17    21    19    2
    18    15    17    1
    19    15    18    1
    20    20    19    1
    21    19    18    1
    22    19    22    1
