@<TRIPOS>MOLECULE
3c2k_DUP_A_1.pdb
 28 29 0 0 0
SMALL
GASTEIGER

@<TRIPOS>ATOM
      1  O4        10.6860    7.8320   10.7910 O.2   338  DUP338     -0.2085
      2  C4         9.4600    7.8420   10.6970 C.1   338  DUP338      0.2182
      3  C5         8.5400    7.5200   11.7410 C.2   338  DUP338      0.1242
      4  C6         7.2250    7.4950   11.4870 C.2   338  DUP338      0.0928
      5  N3         8.8730    8.1310    9.4820 N.2   338  DUP338     -0.2452
      6  C2         7.5320    8.1130    9.1870 C.1   338  DUP338      0.2844
      7  O2         7.1180    8.3890    8.0830 O.2   338  DUP338     -0.1918
      8  N1         6.7010    7.7560   10.2440 N.am  338  DUP338     -0.1790
      9  C1'        5.2570    7.6280    9.9820 C.3   338  DUP338      0.2090
     10  C2'        4.9000    6.2450    9.4190 C.3   338  DUP338      0.0874
     11  C3'        4.4770    5.5040   10.6840 C.3   338  DUP338      0.1857
     12  O3'        3.5920    4.4140   10.4270 O.3   338  DUP338     -0.2203
     13  O4'        4.5550    7.7700   11.2100 O.3   338  DUP338     -0.3339
     14  C4'        3.7410    6.5960   11.4360 C.3   338  DUP338      0.1774
     15  C5'        3.5380    6.3510   12.9110 C.3   338  DUP338      0.1848
     16  O5'        4.7820    6.3650   13.6060 O.3   338  DUP338     -0.2775
     17  PA         5.0870    5.3140   14.7710 P.3   338  DUP338      0.4623
     18  O1A        3.9050    5.4440   15.6660 O.3   338  DUP338     -0.1255
     19  O2A        6.4310    5.6550   15.3190 O.2   338  DUP338     -0.2354
     20  N3A        5.1140    3.8150   14.1140 N.3   338  DUP338     -0.0179
     21  PB         3.9440    2.7300   13.7540 P.3   338  DUP338      0.4700
     22  O1B        4.1060    2.2780   12.3480 O.2   338  DUP338     -0.2350
     23  O2B        2.6170    3.2340   14.1950 O.3   338  DUP338     -0.1252
     24  O3B        4.2480    1.4760   14.5520 O.3   338  DUP338     -0.1901
     25  PG         4.1280    1.2480   16.0430 P.3   338  DUP338      0.5397
     26  O2G        3.1560    0.1660   16.3000 O.2   338  DUP338     -0.2220
     27  O1G        5.5200    1.0960   16.5370 O.3   338  DUP338     -0.1143
     28  O3G        3.5760    2.4590   16.6960 O.3   338  DUP338     -0.1143
@<TRIPOS>BOND
     1     7     6    2
     2     6     5    2
     3     6     8   am
     4    10     9    1
     5    10    11    1
     6     5     2    2
     7     9     8    1
     8     9    13    1
     9     8     4    1
    10    12    11    1
    11    11    14    1
    12     2     1    2
    13     2     3    1
    14    13    14    1
    15    14    15    1
    16     4     3    2
    17    22    21    2
    18    15    16    1
    19    16    17    1
    20    21    20    1
    21    21    23    1
    22    21    24    1
    23    20    17    1
    24    24    25    1
    25    17    19    2
    26    17    18    1
    27    25    26    2
    28    25    27    1
    29    25    28    1
