@<TRIPOS>MOLECULE
3c2l_F2A_A_1.pdb
 30 32 0 0 0
SMALL
GASTEIGER

@<TRIPOS>ATOM
      1  PA        -3.8420   -3.8800   34.3880 P.3   338  F2A338      0.3820
      2  O1A       -5.0630   -3.6230   35.2000 O.3   338  F2A338     -0.1392
      3  O2A       -2.5330   -3.3600   34.8530 O.2   338  F2A338     -0.2548
      4  C3A       -3.6730   -5.7490   34.4350 C.3   338  F2A338      0.2357
      5  O5'       -4.0670   -3.2890   32.9250 O.3   338  F2A338     -0.2896
      6  PB        -4.7680   -7.0730   33.6880 P.3   338  F2A338      0.3895
      7  O1B       -4.3150   -7.2320   32.2810 O.2   338  F2A338     -0.2544
      8  O2B       -6.1750   -6.6760   33.9700 O.3   338  F2A338     -0.1388
      9  O3B       -4.4650   -8.3420   34.4230 O.3   338  F2A338     -0.2026
     10  PG        -4.4320   -8.3570   35.9150 P.3   338  F2A338      0.5389
     11  O1G       -2.9910   -8.4440   36.2600 O.2   338  F2A338     -0.2220
     12  O2G       -5.3750   -9.3850   36.4290 O.3   338  F2A338     -0.1143
     13  O3G       -4.9460   -7.0530   36.4090 O.3   338  F2A338     -0.1143
     14  C5'       -5.2060   -3.6420   32.1460 C.3   338  F2A338      0.1835
     15  C4'       -4.9600   -3.3380   30.6870 C.3   338  F2A338      0.1795
     16  O4'       -4.2230   -2.0970   30.5480 O.3   338  F2A338     -0.3155
     17  C1'       -3.4020   -2.1610   29.3880 C.3   338  F2A338      0.2873
     18  N9        -2.0060   -1.9320   29.7760 N.pl3 338  F2A338     -0.1460
     19  C4        -1.0020   -1.4760   28.9520 C.2   338  F2A338      0.3518
     20  N3        -1.1010   -1.1350   27.6580 N.2   338  F2A338     -0.0055
     21  C2         0.0810   -0.7540   27.1810 C.3   338  F2A338      0.5254
     22  N1         1.2620   -0.6800   27.8030 N.2   338  F2A338      0.0021
     23  C6         1.3290   -1.0220   29.1060 C.2   338  F2A338      0.4393
     24  N6         2.5070   -0.9360   29.7300 N.pl3 338  F2A338      0.2180
     25  C5         0.1450   -1.4480   29.7310 C.2   338  F2A338      0.2526
     26  N7        -0.1270   -1.8680   31.0250 N.2   338  F2A338     -0.2095
     27  C8        -1.4130   -2.1380   31.0040 C.3   338  F2A338      0.3377
     28  C2'       -3.6220   -3.5390   28.7600 C.3   338  F2A338      0.1151
     29  C3'       -4.0870   -4.3430   29.9640 C.3   338  F2A338      0.1883
     30  O3'       -4.8680   -5.4600   29.5710 O.3   338  F2A338     -0.2202
@<TRIPOS>BOND
     1    21    20    1
     2    21    22    1
     3    20    19    2
     4    22    23    2
     5    28    17    1
     6    28    29    1
     7    19    25    1
     8    19    18    1
     9    23    24    1
    10    23    25    1
    11    17    18    1
    12    17    16    1
    13    30    29    1
    14    25    26    2
    15    18    27    1
    16    29    15    1
    17    16    15    1
    18    15    14    1
    19    27    26    1
    20    14     5    1
    21     7     6    2
    22     5     1    1
    23     6     8    1
    24     6     9    1
    25     6     4    1
    26     1     4    1
    27     1     3    2
    28     1     2    1
    29     9    10    1
    30    10    11    2
    31    10    13    1
    32    10    12    1
