@<TRIPOS>MOLECULE
3c2m_F2A_A_1.pdb
 30 32 0 0 0
SMALL
GASTEIGER

@<TRIPOS>ATOM
      1  PA        -4.1150    2.6290   34.5170 P.3   338  F2A338      0.3820
      2  O1A       -5.3300    2.5780   35.3770 O.3   338  F2A338     -0.1392
      3  O2A       -2.8840    3.2810   35.0280 O.2   338  F2A338     -0.2548
      4  C3A       -3.5810    0.8500   34.2480 C.3   338  F2A338      0.2357
      5  O5'       -4.5310    3.3450   33.1530 O.3   338  F2A338     -0.2896
      6  PB        -4.7510   -0.5110   33.7080 P.3   338  F2A338      0.3895
      7  O1B       -4.3280   -0.7350   32.3030 O.2   338  F2A338     -0.2544
      8  O2B       -6.1360   -0.0550   33.9940 O.3   338  F2A338     -0.1388
      9  O3B       -4.4450   -1.7450   34.5140 O.3   338  F2A338     -0.2026
     10  PG        -4.5370   -1.8050   36.0090 P.3   338  F2A338      0.5389
     11  O1G       -3.1680   -2.0810   36.5230 O.3   338  F2A338     -0.1143
     12  O2G       -5.6510   -2.7020   36.4040 O.2   338  F2A338     -0.2220
     13  O3G       -4.9240   -0.4580   36.4930 O.3   338  F2A338     -0.1143
     14  C5'       -5.6290    2.8740   32.3820 C.3   338  F2A338      0.1835
     15  C4'       -5.4050    3.1480   30.9130 C.3   338  F2A338      0.1795
     16  O4'       -4.7390    4.4230   30.7180 O.3   338  F2A338     -0.3155
     17  C1'       -3.8980    4.3450   29.5820 C.3   338  F2A338      0.2873
     18  N9        -2.5390    4.7160   29.9860 N.pl3 338  F2A338     -0.1460
     19  C4        -1.5610    5.2590   29.1830 C.2   338  F2A338      0.3518
     20  N3        -1.6350    5.5230   27.8650 N.2   338  F2A338     -0.0055
     21  C2        -0.4970    6.0670   27.4290 C.3   338  F2A338      0.5254
     22  N1         0.6220    6.3580   28.1090 N.2   338  F2A338      0.0021
     23  C6         0.6640    6.0800   29.4340 C.2   338  F2A338      0.4393
     24  N6         1.7720    6.3780   30.1180 N.pl3 338  F2A338      0.2180
     25  C5        -0.4770    5.4920   30.0150 C.2   338  F2A338      0.2526
     26  N7        -0.7520    5.0740   31.3100 N.2   338  F2A338     -0.2095
     27  C8        -1.9810    4.6210   31.2410 C.3   338  F2A338      0.3377
     28  C2'       -4.0220    2.9320   29.0080 C.3   338  F2A338      0.1151
     29  C3'       -4.5050    2.1450   30.2210 C.3   338  F2A338      0.1883
     30  O3'       -5.2800    1.0120   29.8400 O.3   338  F2A338     -0.2202
@<TRIPOS>BOND
     1    21    20    1
     2    21    22    1
     3    20    19    2
     4    22    23    2
     5    28    17    1
     6    28    29    1
     7    19    18    1
     8    19    25    1
     9    23    25    1
    10    23    24    1
    11    17    18    1
    12    17    16    1
    13    30    29    1
    14    18    27    1
    15    25    26    2
    16    29    15    1
    17    16    15    1
    18    15    14    1
    19    27    26    1
    20     7     6    2
    21    14     5    1
    22     5     1    1
    23     6     8    1
    24     6     4    1
    25     6     9    1
    26     4     1    1
    27     9    10    1
    28     1     3    2
    29     1     2    1
    30    10    12    2
    31    10    13    1
    32    10    11    1
