@<TRIPOS>MOLECULE
3c2n_CKR_A_1.pdb
 18 20 0 0 0
SMALL
GASTEIGER

@<TRIPOS>ATOM
      1  N2        19.0520   17.9880   17.9690 N.2   400  CKR400     -0.3247
      2  C3        18.3200   17.7410   19.0830 C.2   400  CKR400      0.1725
      3  C4        18.7230   17.7180   20.4160 C.2   400  CKR400      0.0504
      4  C5        17.7050   17.4320   21.3470 C.2   400  CKR400      0.1247
      5  C6        17.9770   17.5480   22.8210 C.1   400  CKR400      0.2180
      6  O1        19.1050   17.8280   23.1940 O.2   400  CKR400     -0.2085
      7  N7        17.0010   17.3140   23.6690 N.2   400  CKR400     -0.2501
      8  C8        15.7920   16.9220   23.2480 C.1   400  CKR400      0.2515
      9  N22       14.8910   16.5540   24.1940 N.pl3 400  CKR400     -0.0226
     10  N9        15.4990   16.6730   21.9100 N.2   400  CKR400     -0.3285
     11  C10       16.4670   16.9090   20.9430 C.2   400  CKR400      0.1418
     12  C11       16.1380   16.8150   19.5840 C.3   400  CKR400      0.1233
     13  C12       17.0940   17.2560   18.6580 C.2   400  CKR400      0.1600
     14  N13       17.0630   17.3180   17.3040 N.2   400  CKR400     -0.3284
     15  C1        18.2120   17.9560   16.9300 C.1   400  CKR400      0.2200
     16  N14       18.6250   18.1240   15.6630 N.pl3 400  CKR400     -0.1518
     17  C2        17.5080   18.0160   14.7580 C.3   400  CKR400      0.1263
     18  C7        18.0050   18.1300   13.3070 C.3   400  CKR400      0.0261
@<TRIPOS>BOND
     1    18    17    1
     2    17    16    1
     3    16    15    1
     4    15    14    2
     5    15     1    2
     6    14    13    2
     7     1     2    2
     8    13     2    1
     9    13    12    1
    10     2     3    1
    11    12    11    1
    12     3     4    2
    13    11     4    1
    14    11    10    2
    15     4     5    1
    16    10     8    2
    17     5     6    2
    18     5     7    2
    19     8     7    2
    20     8     9    1
