@<TRIPOS>MOLECULE
3c2o_NTM_A_1.pdb
 12 12 0 0 0
SMALL
GASTEIGER

@<TRIPOS>ATOM
      1  N1       -26.3650   14.2920   -7.2880 N.ar  300  NTM300     -0.2370
      2  C2       -25.5360   13.2370   -7.2740 C.ar  300  NTM300      0.1671
      3  C3       -25.8720   12.1070   -6.5290 C.ar  300  NTM300      0.1039
      4  C4       -27.0580   12.1120   -5.8010 C.ar  300  NTM300      0.0099
      5  C5       -27.8870   13.2280   -5.8390 C.ar  300  NTM300      0.0209
      6  C6       -27.5010   14.3200   -6.6110 C.ar  300  NTM300      0.0991
      7  C7       -24.1970   13.3530   -8.0070 C.2   300  NTM300      0.4053
      8  O1       -24.1970   13.8860   -9.1370 O.co2 300  NTM300     -0.2388
      9  O2       -23.1660   12.9600   -7.4200 O.co2 300  NTM300     -0.2388
     10  C8       -25.0360   10.8270   -6.5700 C.2   300  NTM300      0.3894
     11  O3       -24.4190   10.5560   -7.6230 O.co2 300  NTM300     -0.2405
     12  O4       -24.9970   10.1250   -5.5360 O.co2 300  NTM300     -0.2405
@<TRIPOS>BOND
     1     8     7   ar
     2     7     9   ar
     3     7     2    1
     4    11    10   ar
     5     1     2   ar
     6     1     6   ar
     7     2     3   ar
     8     6     5   ar
     9    10     3    1
    10    10    12   ar
    11     3     4   ar
    12     5     4   ar
