@<TRIPOS>MOLECULE
3c2r_PHT_A_1.pdb
 12 12 0 0 0
SMALL
GASTEIGER

@<TRIPOS>ATOM
      1  O8       -21.9230  -14.2250   22.7120 O.co2 300  PHT300     -0.2405
      2  O9       -23.4620  -14.5330   21.1630 O.co2 300  PHT300     -0.2405
      3  C10      -21.1670  -16.8040   23.6570 C.2   300  PHT300      0.3880
      4  O11      -20.4790  -17.0310   24.6760 O.co2 300  PHT300     -0.2405
      5  O12      -20.6850  -16.5870   22.5250 O.co2 300  PHT300     -0.2405
      6  C7       -22.9250  -14.8170   22.2550 C.2   300  PHT300      0.3880
      7  C1       -23.2690  -17.8320   24.5850 C.ar  300  PHT300      0.0068
      8  C2       -22.6930  -16.8470   23.7880 C.ar  300  PHT300      0.0861
      9  C3       -23.5100  -15.9740   23.0700 C.ar  300  PHT300      0.0861
     10  C4       -24.8940  -16.1000   23.1500 C.ar  300  PHT300      0.0068
     11  C5       -25.4690  -17.0880   23.9460 C.ar  300  PHT300      0.0002
     12  C6       -24.6540  -17.9550   24.6660 C.ar  300  PHT300      0.0002
@<TRIPOS>BOND
     1     2     6   ar
     2     6     1   ar
     3     6     9    1
     4     5     3   ar
     5     9    10   ar
     6     9     8   ar
     7    10    11   ar
     8     3     8    1
     9     3     4   ar
    10     8     7   ar
    11    11    12   ar
    12     7    12   ar
