@<TRIPOS>MOLECULE
3c2s_BMA_A_1.pdb
 11 11 0 0 0
SMALL
GASTEIGER

@<TRIPOS>ATOM
      1  C1        20.1700   25.6020  -12.0360 C.3     3  BMA3        0.1777
      2  C2        20.2180   25.3130  -13.5290 C.3     3  BMA3        0.2141
      3  C3        19.3010   24.1460  -13.8870 C.3     3  BMA3        0.2173
      4  C4        19.6350   22.9310  -13.0350 C.3     3  BMA3        0.2142
      5  C5        19.5650   23.3040  -11.5620 C.3     3  BMA3        0.1810
      6  C6        19.9920   22.1630  -10.6560 C.3     3  BMA3        0.2141
      7  O2        21.5690   24.9900  -13.8660 O.3     3  BMA3       -0.2176
      8  O3        19.4310   23.7630  -15.2590 O.3     3  BMA3       -0.2175
      9  O4        18.6940   21.9090  -13.3530 O.3     3  BMA3       -0.2176
     10  O5        20.4260   24.4120  -11.2920 O.3     3  BMA3       -0.3481
     11  O6        20.1870   22.6750   -9.3360 O.3     3  BMA3       -0.2176
@<TRIPOS>BOND
     1     8     3    1
     2     3     2    1
     3     3     4    1
     4     7     2    1
     5     2     1    1
     6     9     4    1
     7     4     5    1
     8     1    10    1
     9     5    10    1
    10     5     6    1
    11     6    11    1
