@<TRIPOS>MOLECULE
3c2s_GAL_A_1.pdb
 11 11 0 0 0
SMALL
GASTEIGER

@<TRIPOS>ATOM
      1  C1        14.6030   17.5610   -3.9720 C.3     9  GAL9        0.1777
      2  C2        13.2900   16.7870   -4.1780 C.3     9  GAL9        0.2141
      3  C3        12.8180   16.1480   -2.8600 C.3     9  GAL9        0.2173
      4  C4        13.9580   15.5000   -2.0820 C.3     9  GAL9        0.2142
      5  C5        15.0220   16.5590   -1.8670 C.3     9  GAL9        0.1810
      6  C6        16.1170   16.1120   -0.9030 C.3     9  GAL9        0.2141
      7  O2        12.2740   17.6220   -4.7090 O.3     9  GAL9       -0.2176
      8  O3        11.8490   15.1580   -3.1020 O.3     9  GAL9       -0.2175
      9  O4        14.4990   14.4200   -2.8180 O.3     9  GAL9       -0.2176
     10  O5        15.5250   16.8430   -3.1570 O.3     9  GAL9       -0.3481
     11  O6        17.2860   16.8910   -1.0770 O.3     9  GAL9       -0.2176
@<TRIPOS>BOND
     1     7     2    1
     2     2     1    1
     3     2     3    1
     4     1    10    1
     5    10     5    1
     6     8     3    1
     7     3     4    1
     8     9     4    1
     9     4     5    1
    10     5     6    1
    11    11     6    1
