@<TRIPOS>MOLECULE
3c2t_DUD_A_1.pdb
 24 25 0 0 0
SMALL
GASTEIGER

@<TRIPOS>ATOM
      1  N1        12.7880   -7.0490    2.6420 N.am  777  DUD777     -0.1790
      2  C2        12.7670   -7.2860    3.9900 C.1   777  DUD777      0.2844
      3  N3        12.3320   -6.3190    4.8490 N.2   777  DUD777     -0.2452
      4  C4        11.9100   -5.0930    4.3910 C.1   777  DUD777      0.2182
      5  C5        11.9270   -4.8190    2.9950 C.2   777  DUD777      0.1242
      6  C6        12.3650   -5.8030    2.1540 C.2   777  DUD777      0.0928
      7  O2        13.1270   -8.3450    4.4380 O.2   777  DUD777     -0.1918
      8  O4        11.5190   -4.2380    5.1740 O.2   777  DUD777     -0.2085
      9  C1'       13.2530   -8.0910    1.6810 C.3   777  DUD777      0.2090
     10  C2'       12.1240   -8.4410    0.6770 C.3   777  DUD777      0.0874
     11  C3'       12.7640   -8.3680   -0.7140 C.3   777  DUD777      0.1857
     12  C4'       14.2480   -8.0260   -0.4650 C.3   777  DUD777      0.1773
     13  O4'       14.3680   -7.5870    0.9150 O.3   777  DUD777     -0.3339
     14  O3'       12.6190   -9.6050   -1.3900 O.3   777  DUD777     -0.2203
     15  C5'       14.6610   -6.9050   -1.3930 C.3   777  DUD777      0.1812
     16  O5'       16.0180   -6.4760   -1.1690 O.3   777  DUD777     -0.3111
     17  PA        16.4240   -5.7780   -2.5600 P.3   777  DUD777      0.2231
     18  O1A       15.2200   -5.2680   -3.2890 O.3   777  DUD777     -0.4370
     19  O2A       17.1240   -6.9430   -3.4270 O.2   777  DUD777     -0.5169
     20  O3A       17.4830   -4.5940   -2.3430 O.3   777  DUD777     -0.2261
     21  PB        16.8620   -3.2650   -3.0840 P.3   777  DUD777      0.5373
     22  O1B       15.5450   -2.9020   -2.4790 O.3   777  DUD777     -0.1143
     23  O2B       17.8740   -2.0200   -2.9080 O.3   777  DUD777     -0.1143
     24  O3B       16.6350   -3.5540   -4.6570 O.2   777  DUD777     -0.2221
@<TRIPOS>BOND
     1    24    21    2
     2    19    17    2
     3    18    17    1
     4    21    23    1
     5    21    22    1
     6    21    20    1
     7    17    20    1
     8    17    16    1
     9    15    16    1
    10    15    12    1
    11    14    11    1
    12    11    12    1
    13    11    10    1
    14    12    13    1
    15    10     9    1
    16    13     9    1
    17     9     1    1
    18     6     1    1
    19     6     5    2
    20     1     2   am
    21     5     4    1
    22     2     7    2
    23     2     3    2
    24     4     3    2
    25     4     8    2
