@<TRIPOS>MOLECULE
3c2u_B3P_A_1.pdb
 19 18 0 0 0
SMALL
GASTEIGER

@<TRIPOS>ATOM
      1  C1        61.1180   38.1320   48.2560 C.3   539  B3P539      0.0376
      2  C2        60.3360   38.9610   47.2550 C.3   539  B3P539      0.0904
      3  C3        60.2060   37.5320   49.2840 C.3   539  B3P539      0.0904
      4  N1        61.0240   36.8030   50.2530 N.3   539  B3P539     -0.2130
      5  C4        60.4920   35.6410   50.9440 C.3   539  B3P539      0.1507
      6  C5        61.4450   35.1150   51.9590 C.3   539  B3P539      0.2031
      7  C6        59.2420   36.0590   51.7270 C.3   539  B3P539      0.2031
      8  C7        60.3420   34.5270   49.9020 C.3   539  B3P539      0.2031
      9  N2        59.4100   38.1560   46.5040 N.3   539  B3P539     -0.2130
     10  C8        59.7510   37.3700   45.3260 C.3   539  B3P539      0.1507
     11  C9        60.8170   36.2980   45.5750 C.3   539  B3P539      0.2031
     12  C10       60.3060   38.2340   44.1660 C.3   539  B3P539      0.2031
     13  C11       58.4200   36.7800   44.9070 C.3   539  B3P539      0.2031
     14  O1        60.4370   35.2010   46.4270 O.3   539  B3P539     -0.2187
     15  O2        59.4490   39.3870   43.9490 O.3   539  B3P539     -0.2187
     16  O3        58.6310   35.7470   43.9600 O.3   539  B3P539     -0.2187
     17  O4        61.8080   36.2390   52.8770 O.3   539  B3P539     -0.2187
     18  O5        58.4400   34.9450   52.1340 O.3   539  B3P539     -0.2187
     19  O6        59.0390   34.4940   49.3340 O.3   539  B3P539     -0.2187
@<TRIPOS>BOND
     1    15    12    1
     2    16    13    1
     3    12    10    1
     4    13    10    1
     5    10    11    1
     6    10     9    1
     7    11    14    1
     8     9     2    1
     9     2     1    1
    10     1     3    1
    11     3     4    1
    12    19     8    1
    13     8     5    1
    14     4     5    1
    15     5     7    1
    16     5     6    1
    17     7    18    1
    18     6    17    1
