@<TRIPOS>MOLECULE
3c2v_PRP_A_1.pdb
 22 22 0 0 0
SMALL
GASTEIGER

@<TRIPOS>ATOM
      1  C1       -26.2550  -16.4320   44.9710 C.3   300  PRP300      0.2742
      2  C2       -27.6100  -15.8880   44.4840 C.3   300  PRP300      0.2408
      3  C3       -28.2980  -17.1010   43.9540 C.3   300  PRP300      0.2167
      4  C4       -27.2110  -18.0890   43.6080 C.3   300  PRP300      0.1808
      5  C5       -27.1400  -18.2590   42.0940 C.3   300  PRP300      0.1859
      6  O1       -26.2100  -16.7580   46.3580 O.3   300  PRP300     -0.2857
      7  O2       -28.4710  -15.2730   45.4470 O.3   300  PRP300     -0.2149
      8  O3       -29.1400  -17.6590   44.9600 O.3   300  PRP300     -0.2175
      9  O4       -26.0050  -17.5970   44.1990 O.3   300  PRP300     -0.3255
     10  O5       -26.0110  -18.9750   41.7010 O.3   300  PRP300     -0.2675
     11  P        -25.9570  -20.5430   41.5010 P.3   300  PRP300      0.5327
     12  O1P      -24.4310  -20.6360   41.5220 O.3   300  PRP300     -0.1145
     13  O2P      -26.5720  -21.1200   42.7460 O.3   300  PRP300     -0.1145
     14  O3P      -26.6210  -20.7970   40.2500 O.2   300  PRP300     -0.2224
     15  PA       -24.9300  -17.3460   47.1420 P.3   300  PRP300      0.2249
     16  O1A      -25.4580  -17.6570   48.5010 O.3   300  PRP300     -0.4370
     17  O2A      -24.3520  -18.4220   46.2750 O.2   300  PRP300     -0.5169
     18  O3A      -23.7680  -15.9610   47.3020 O.3   300  PRP300     -0.2260
     19  PB       -22.2170  -16.2430   48.2160 P.3   300  PRP300      0.5373
     20  O1B      -21.6630  -17.4260   47.4740 O.2   300  PRP300     -0.2221
     21  O2B      -21.3660  -15.0340   48.0540 O.3   300  PRP300     -0.1143
     22  O3B      -22.4820  -16.1690   49.6870 O.3   300  PRP300     -0.1143
@<TRIPOS>BOND
     1    14    11    2
     2    11    12    1
     3    11    10    1
     4    11    13    1
     5    10     5    1
     6     5     4    1
     7     4     3    1
     8     4     9    1
     9     3     2    1
    10     3     8    1
    11     9     1    1
    12     2     1    1
    13     2     7    1
    14     1     6    1
    15    17    15    2
    16     6    15    1
    17    15    18    1
    18    15    16    1
    19    18    19    1
    20    20    19    2
    21    21    19    1
    22    19    22    1
