@<TRIPOS>MOLECULE
3c2v_PHT_A_1.pdb
 12 12 0 0 0
SMALL
GASTEIGER

@<TRIPOS>ATOM
      1  O8       -22.9490  -13.0430   42.0270 O.co2 301  PHT301     -0.2405
      2  O9       -24.0570  -13.5390   43.8720 O.co2 301  PHT301     -0.2405
      3  C10      -24.9470  -10.7070   41.3290 C.2   301  PHT301      0.3880
      4  O11      -25.0520   -9.8670   40.4060 O.co2 301  PHT301     -0.2405
      5  O12      -24.3030  -10.5060   42.3780 O.co2 301  PHT301     -0.2405
      6  C7       -24.0070  -13.2640   42.6550 C.2   301  PHT301      0.3880
      7  C1       -26.8390  -12.0640   40.3790 C.ar  301  PHT301      0.0068
      8  C2       -25.6990  -12.0360   41.1810 C.ar  301  PHT301      0.0861
      9  C3       -25.3280  -13.1820   41.8810 C.ar  301  PHT301      0.0861
     10  C4       -26.1020  -14.3320   41.7900 C.ar  301  PHT301      0.0068
     11  C5       -27.2450  -14.3570   40.9910 C.ar  301  PHT301      0.0002
     12  C6       -27.6100  -13.2190   40.2820 C.ar  301  PHT301      0.0002
@<TRIPOS>BOND
     1    12     7   ar
     2    12    11   ar
     3     7     8   ar
     4     4     3   ar
     5    11    10   ar
     6     8     3    1
     7     8     9   ar
     8     3     5   ar
     9    10     9   ar
    10     9     6    1
    11     1     6   ar
    12     6     2   ar
