@<TRIPOS>MOLECULE
3c2w_BLA_A_1.pdb
 43 46 0 0 0
SMALL
GASTEIGER

@<TRIPOS>ATOM
      1  CHA      -18.1830   24.1320  106.3770 C.3   900  BLA900      0.1170
      2  NA       -17.5130   25.9670  104.8790 N.2   900  BLA900     -0.4104
      3  C1A      -18.2260   24.9000  105.2160 C.2   900  BLA900      0.1114
      4  C2A      -19.2170   24.7260  104.2460 C.2   900  BLA900      0.0024
      5  C3A      -18.9470   25.6690  103.2630 C.2   900  BLA900      0.0021
      6  C4A      -17.8900   26.4640  103.7060 C.2   900  BLA900      0.1114
      7  CMA      -19.7360   25.8100  101.9520 C.3   900  BLA900      0.0331
      8  CAA      -20.2340   23.5840  104.2160 C.3   900  BLA900      0.0402
      9  CBA      -21.5990   23.9360  104.8100 C.3   900  BLA900      0.1188
     10  CGA      -22.3220   25.0340  104.0360 C.2   900  BLA900      0.3652
     11  O1A      -22.6920   26.0380  104.6770 O.co2 900  BLA900     -0.2456
     12  O2A      -22.5120   24.8210  102.8250 O.co2 900  BLA900     -0.2456
     13  CHB      -17.1770   27.6720  103.0820 C.3   900  BLA900      0.1181
     14  NB       -17.3760   29.2940  101.1800 N.2   900  BLA900     -0.3375
     15  C1B      -17.9720   28.6190  102.1730 C.2   900  BLA900      0.1254
     16  C2B      -19.3260   28.9740  102.1860 C.2   900  BLA900      0.0128
     17  C3B      -19.5090   29.8650  101.1400 C.2   900  BLA900      0.0706
     18  C4B      -18.2730   30.0510  100.5450 C.1   900  BLA900      0.2000
     19  CMB      -20.4300   28.4930  103.1170 C.3   900  BLA900      0.0339
     20  OB       -18.0080   30.7770   99.5830 O.2   900  BLA900     -0.2096
     21  CAB      -20.7100   30.4640  100.8030 C.3   900  BLA900      0.0390
     22  CBB      -20.7620   31.3520   99.7410 C.3   900  BLA900      0.0058
     23  NC       -14.4530   27.7030  107.0160 N.2   900  BLA900     -0.3375
     24  C1C      -13.7240   28.6860  106.4770 C.1   900  BLA900      0.2000
     25  C2C      -12.4500   28.6590  107.0260 C.2   900  BLA900      0.0710
     26  C3C      -12.4180   27.6130  107.9290 C.2   900  BLA900      0.0125
     27  C4C      -13.6910   27.0430  107.8970 C.2   900  BLA900      0.1254
     28  CMC      -11.2880   29.6000  106.7050 C.3   900  BLA900      0.0445
     29  OC       -14.1170   29.4910  105.6300 O.2   900  BLA900     -0.2096
     30  CAC      -11.2540   27.1530  108.8200 C.3   900  BLA900      0.0291
     31  CBC       -9.9200   27.0390  108.0770 C.3   900  BLA900      0.0051
     32  CHD      -14.0990   25.8530  108.7650 C.3   900  BLA900      0.1181
     33  ND       -16.1520   25.2490  107.2730 N.2   900  BLA900     -0.4104
     34  C1D      -15.3720   25.1040  108.3440 C.2   900  BLA900      0.1114
     35  C2D      -15.9250   24.0880  109.0910 C.2   900  BLA900      0.0021
     36  C3D      -17.0460   23.6140  108.4510 C.2   900  BLA900      0.0024
     37  C4D      -17.1600   24.3780  107.2970 C.2   900  BLA900      0.1114
     38  CMD      -15.3850   23.5610  110.4250 C.3   900  BLA900      0.0331
     39  CAD      -17.9360   22.4800  108.9710 C.3   900  BLA900      0.0402
     40  CBD      -19.1060   22.9970  109.8090 C.3   900  BLA900      0.1188
     41  CGD      -19.9300   21.8160  110.3150 C.2   900  BLA900      0.3652
     42  O1D      -19.4060   21.1130  111.2120 O.co2 900  BLA900     -0.2456
     43  O2D      -21.0520   21.6370  109.7870 O.co2 900  BLA900     -0.2456
@<TRIPOS>BOND
     1    20    18    2
     2    22    21    1
     3    18    17    1
     4    18    14    2
     5    21    17    1
     6    17    16    2
     7    14    15    2
     8     7     5    1
     9    15    16    1
    10    15    13    1
    11    16    19    1
    12    12    10   ar
    13    13     6    1
    14     5     6    1
    15     5     4    2
    16     6     2    2
    17    10    11   ar
    18    10     9    1
    19     8     4    1
    20     8     9    1
    21     4     3    1
    22     2     3    2
    23     3     1    1
    24    29    24    2
    25     1    37    1
    26    24    23    2
    27    24    25    1
    28    28    25    1
    29    23    27    2
    30    25    26    2
    31    33    37    2
    32    33    34    2
    33    37    36    1
    34    27    26    1
    35    27    32    1
    36    26    30    1
    37    31    30    1
    38    34    32    1
    39    34    35    1
    40    36    39    1
    41    36    35    2
    42    39    40    1
    43    35    38    1
    44    43    41   ar
    45    40    41    1
    46    41    42   ar
