@<TRIPOS>MOLECULE
3c2y_S60_A_1.pdb
 16 18 0 0 0
SMALL
GASTEIGER

@<TRIPOS>ATOM
      1  C2        15.5880   16.4580   23.2380 C.1   400  S60400      0.2515
      2  N11       14.6060   16.1430   24.0760 N.pl3 400  S60400     -0.0226
      3  N3        15.3920   16.3670   21.9750 N.2   400  S60400     -0.3285
      4  C4        16.3350   16.6660   21.0390 C.2   400  S60400      0.1418
      5  C10       16.0730   16.5510   19.6720 C.3   400  S60400      0.1233
      6  C9        17.1020   16.8810   18.7890 C.2   400  S60400      0.1584
      7  N14       17.1830   16.8820   17.4480 N.2   400  S60400     -0.3449
      8  C13       18.3380   17.2650   17.0790 C.1   400  S60400      0.1142
      9  C15       18.7660   17.3790   15.6300 C.3   400  S60400      0.1428
     10  N12       19.0990   17.5420   18.1030 N.2   400  S60400     -0.3413
     11  C8        18.3480   17.3110   19.2160 C.2   400  S60400      0.1708
     12  C7        18.6260   17.4310   20.5720 C.2   400  S60400      0.0503
     13  C5        17.5980   17.1010   21.4580 C.2   400  S60400      0.1247
     14  C6        17.7650   17.1880   22.9610 C.1   400  S60400      0.2180
     15  O16       18.8370   17.6300   23.3510 O.2   400  S60400     -0.2085
     16  N1        16.7570   16.8620   23.7260 N.2   400  S60400     -0.2501
@<TRIPOS>BOND
     1     9     8    1
     2     8     7    2
     3     8    10    2
     4     7     6    2
     5    10    11    2
     6     6    11    1
     7     6     5    1
     8    11    12    1
     9     5     4    1
    10    12    13    2
    11     4    13    1
    12     4     3    2
    13    13    14    1
    14     3     1    2
    15    14    15    2
    16    14    16    2
    17     1    16    2
    18     1     2    1
