@<TRIPOS>MOLECULE
3c2z_S98_A_1.pdb
 18 20 0 0 0
SMALL
GASTEIGER

@<TRIPOS>ATOM
      1  N2        19.2090   18.1450   18.0950 N.2   1403  S981403    -0.3247
      2  C3        18.5210   17.8440   19.2420 C.2   1403  S981403     0.1725
      3  C12       17.2500   17.4470   18.8450 C.2   1403  S981403     0.1600
      4  N13       17.2320   17.6230   17.5170 N.2   1403  S981403    -0.3284
      5  C1        18.3320   18.1270   17.1220 C.1   1403  S981403     0.2200
      6  N14       18.6010   18.4410   15.8730 N.pl3 1403  S981403    -0.1518
      7  C15       17.6280   18.2540   14.8150 C.3   1403  S981403     0.1263
      8  C16       18.1420   18.6680   13.4600 C.3   1403  S981403     0.0261
      9  C11       16.3060   16.9880   19.7580 C.3   1403  S981403     0.1233
     10  C10       16.6140   17.1830   21.1100 C.2   1403  S981403     0.1418
     11  C5        17.8910   17.5620   21.5150 C.2   1403  S981403     0.1247
     12  C6        18.1200   17.6100   23.0110 C.1   1403  S981403     0.2180
     13  O21       19.2590   17.8940   23.3760 O.2   1403  S981403    -0.2085
     14  N7        17.0920   17.3870   23.8110 N.2   1403  S981403    -0.2501
     15  C8        15.9120   17.0530   23.3140 C.1   1403  S981403     0.2515
     16  N22       14.9350   16.6940   24.1290 N.pl3 1403  S981403    -0.0226
     17  N9        15.6690   16.9050   22.0560 N.2   1403  S981403    -0.3285
     18  C4        18.9150   17.7860   20.5820 C.2   1403  S981403     0.0504
@<TRIPOS>BOND
     1     8     7    1
     2     7     6    1
     3     6     5    1
     4     5     4    2
     5     5     1    2
     6     4     3    2
     7     1     2    2
     8     3     2    1
     9     3     9    1
    10     2    18    1
    11     9    10    1
    12    18    11    2
    13    10    11    1
    14    10    17    2
    15    11    12    1
    16    17    15    2
    17    12    13    2
    18    12    14    2
    19    15    14    2
    20    15    16    1
