@<TRIPOS>MOLECULE
3c31_KAI_A_1.pdb
 15 15 0 0 0
SMALL
GASTEIGER

@<TRIPOS>ATOM
      1  N         -0.2770   32.6680   46.0390 N.3   401  KAI401     -0.2084
      2  CD         0.3110   33.3200   44.8100 C.3   401  KAI401      0.0893
      3  CD1        0.2590   34.6990   42.2520 C.3   401  KAI401      0.0000
      4  CD2       -1.1910   32.7710   41.2070 C.3   401  KAI401      0.0000
      5  CA        -1.5090   31.9010   45.6740 C.3   401  KAI401      0.1762
      6  CB        -1.8580   32.4450   44.2770 C.3   401  KAI401      0.0397
      7  CB1       -2.6610   33.7740   44.3970 C.3   401  KAI401      0.1160
      8  CG        -0.4620   32.6820   43.6620 C.3   401  KAI401      0.0199
      9  CG1       -4.1460   33.5830   44.6060 C.2   401  KAI401      0.3649
     10  CG2       -0.6900   33.5640   42.4160 C.3   401  KAI401      0.0015
     11  C         -1.2240   30.3730   45.6340 C.2   401  KAI401      0.3803
     12  O         -0.1110   30.0450   46.1360 O.co2 401  KAI401     -0.2441
     13  OD1       -4.7650   34.6460   44.9120 O.co2 401  KAI401     -0.2457
     14  OD2       -4.6510   32.4680   44.4720 O.co2 401  KAI401     -0.2457
     15  OXT       -2.0980   29.6340   45.1360 O.co2 401  KAI401     -0.2441
@<TRIPOS>BOND
     1     4    10    1
     2     3    10    1
     3    10     8    1
     4     8     6    1
     5     8     2    1
     6     6     7    1
     7     6     5    1
     8     7     9    1
     9    14     9   ar
    10     9    13   ar
    11     2     1    1
    12    15    11   ar
    13    11     5    1
    14    11    12   ar
    15     5     1    1
