@<TRIPOS>MOLECULE
3c32_KAI_A_1.pdb
 15 15 0 0 0
SMALL
GASTEIGER

@<TRIPOS>ATOM
      1  N          0.0900   32.5560   46.1220 N.3   401  KAI401     -0.2084
      2  CD         0.6260   33.3200   44.9240 C.3   401  KAI401      0.0893
      3  CD1        0.5670   34.6880   42.3370 C.3   401  KAI401      0.0000
      4  CD2       -0.8110   32.7480   41.2100 C.3   401  KAI401      0.0000
      5  CA        -1.1070   31.8130   45.6630 C.3   401  KAI401      0.1762
      6  CB        -1.4570   32.3360   44.2460 C.3   401  KAI401      0.0397
      7  CB1       -2.2800   33.6670   44.3840 C.3   401  KAI401      0.1160
      8  CG        -0.0850   32.6890   43.7210 C.3   401  KAI401      0.0199
      9  CG1       -3.7800   33.4720   44.6570 C.2   401  KAI401      0.3649
     10  CG2       -0.3290   33.5530   42.4710 C.3   401  KAI401      0.0015
     11  C         -0.7560   30.2910   45.6280 C.2   401  KAI401      0.3803
     12  O          0.3080   29.9390   46.1910 O.co2 401  KAI401     -0.2441
     13  OD1       -4.4100   34.5520   44.9340 O.co2 401  KAI401     -0.2457
     14  OD2       -4.2920   32.3240   44.5380 O.co2 401  KAI401     -0.2457
     15  OXT       -1.6430   29.5180   45.1710 O.co2 401  KAI401     -0.2441
@<TRIPOS>BOND
     1     4    10    1
     2     3    10    1
     3    10     8    1
     4     8     6    1
     5     8     2    1
     6     6     7    1
     7     6     5    1
     8     7     9    1
     9    14     9   ar
    10     9    13   ar
    11     2     1    1
    12    15    11   ar
    13    11     5    1
    14    11    12   ar
    15     5     1    1
