@<TRIPOS>MOLECULE
3c33_KAI_A_1.pdb
 15 15 0 0 0
SMALL
GASTEIGER

@<TRIPOS>ATOM
      1  N          0.1330   32.6760   46.1880 N.3   401  KAI401     -0.2084
      2  CD         0.6470   33.4720   44.9960 C.3   401  KAI401      0.0893
      3  CD1        0.7020   34.8240   42.3970 C.3   401  KAI401      0.0000
      4  CD2       -0.7540   32.9270   41.2640 C.3   401  KAI401      0.0000
      5  CA        -1.0720   31.9240   45.7310 C.3   401  KAI401      0.1762
      6  CB        -1.4170   32.4420   44.3200 C.3   401  KAI401      0.0397
      7  CB1       -2.2650   33.7300   44.4250 C.3   401  KAI401      0.1160
      8  CG        -0.0520   32.8280   43.7780 C.3   401  KAI401      0.0199
      9  CG1       -3.7520   33.5610   44.6750 C.2   401  KAI401      0.3649
     10  CG2       -0.2570   33.7050   42.5130 C.3   401  KAI401      0.0015
     11  C         -0.7190   30.3930   45.6970 C.2   401  KAI401      0.3803
     12  O          0.3640   30.0870   46.2130 O.co2 401  KAI401     -0.2441
     13  OD1       -4.4040   34.6440   44.9620 O.co2 401  KAI401     -0.2457
     14  OD2       -4.2640   32.4260   44.5600 O.co2 401  KAI401     -0.2457
     15  OXT       -1.6010   29.6290   45.2310 O.co2 401  KAI401     -0.2441
@<TRIPOS>BOND
     1     4    10    1
     2     3    10    1
     3    10     8    1
     4     8     6    1
     5     8     2    1
     6     6     7    1
     7     6     5    1
     8     7     9    1
     9    14     9   ar
    10     9    13   ar
    11     2     1    1
    12    15    11   ar
    13    11     5    1
    14    11    12   ar
    15     5     1    1
