@<TRIPOS>MOLECULE
3c34_KAI_A_1.pdb
 15 15 0 0 0
SMALL
GASTEIGER

@<TRIPOS>ATOM
      1  N          0.1820   32.7720   46.1840 N.3   401  KAI401     -0.2084
      2  CD         0.7370   33.5400   44.9800 C.3   401  KAI401      0.0893
      3  CD1        0.7500   34.9320   42.4010 C.3   401  KAI401      0.0000
      4  CD2       -0.7210   32.9950   41.2950 C.3   401  KAI401      0.0000
      5  CA        -1.0250   32.0580   45.7080 C.3   401  KAI401      0.1762
      6  CB        -1.3320   32.5580   44.2910 C.3   401  KAI401      0.0397
      7  CB1       -2.2160   33.8560   44.4080 C.3   401  KAI401      0.1160
      8  CG         0.0440   32.9000   43.7610 C.3   401  KAI401      0.0199
      9  CG1       -3.6870   33.6620   44.6980 C.2   401  KAI401      0.3649
     10  CG2       -0.2170   33.7960   42.5420 C.3   401  KAI401      0.0015
     11  C         -0.7100   30.5120   45.7270 C.2   401  KAI401      0.3803
     12  O          0.3810   30.1800   46.2210 O.co2 401  KAI401     -0.2441
     13  OD1       -4.3610   34.7320   44.9470 O.co2 401  KAI401     -0.2457
     14  OD2       -4.1820   32.5370   44.5850 O.co2 401  KAI401     -0.2457
     15  OXT       -1.5630   29.7340   45.2590 O.co2 401  KAI401     -0.2441
@<TRIPOS>BOND
     1     4    10    1
     2     3    10    1
     3    10     8    1
     4     8     6    1
     5     8     2    1
     6     6     7    1
     7     6     5    1
     8     7     9    1
     9    14     9   ar
    10     9    13   ar
    11     2     1    1
    12    15    11   ar
    13     5    11    1
    14     5     1    1
    15    11    12   ar
