@<TRIPOS>MOLECULE
3c35_KAI_A_1.pdb
 15 15 0 0 0
SMALL
GASTEIGER

@<TRIPOS>ATOM
      1  N          0.1900   32.5720   46.2090 N.3   401  KAI401     -0.2084
      2  CD         0.6350   33.3610   45.0200 C.3   401  KAI401      0.0893
      3  CD1        0.7580   34.7580   42.3500 C.3   401  KAI401      0.0000
      4  CD2       -0.8030   32.9920   41.2740 C.3   401  KAI401      0.0000
      5  CA        -1.0070   31.8280   45.8180 C.3   401  KAI401      0.1762
      6  CB        -1.4150   32.3710   44.4070 C.3   401  KAI401      0.0397
      7  CB1       -2.2900   33.6920   44.4520 C.3   401  KAI401      0.1160
      8  CG        -0.0600   32.7220   43.8040 C.3   401  KAI401      0.0199
      9  CG1       -3.7660   33.5040   44.7460 C.2   401  KAI401      0.3649
     10  CG2       -0.2940   33.6870   42.5810 C.3   401  KAI401      0.0015
     11  C         -0.6890   30.3170   45.7490 C.2   401  KAI401      0.3803
     12  O          0.3850   29.9410   46.2280 O.co2 401  KAI401     -0.2441
     13  OD1       -4.3850   34.5590   45.0740 O.co2 401  KAI401     -0.2457
     14  OD2       -4.2810   32.3560   44.6490 O.co2 401  KAI401     -0.2457
     15  OXT       -1.5770   29.5580   45.3060 O.co2 401  KAI401     -0.2441
@<TRIPOS>BOND
     1     4    10    1
     2     3    10    1
     3    10     8    1
     4     8     6    1
     5     8     2    1
     6     6     7    1
     7     6     5    1
     8     7     9    1
     9    14     9   ar
    10     9    13   ar
    11     2     1    1
    12    15    11   ar
    13    11     5    1
    14    11    12   ar
    15     5     1    1
