@<TRIPOS>MOLECULE
3c36_KAI_A_1.pdb
 15 15 0 0 0
SMALL
GASTEIGER

@<TRIPOS>ATOM
      1  N          0.0640   32.6250   46.1470 N.3   401  KAI401     -0.2084
      2  CD         0.6150   33.3520   44.9210 C.3   401  KAI401      0.0893
      3  CD1        0.6030   34.7730   42.3470 C.3   401  KAI401      0.0000
      4  CD2       -0.8110   32.8380   41.2470 C.3   401  KAI401      0.0000
      5  CA        -1.1260   31.8730   45.6850 C.3   401  KAI401      0.1762
      6  CB        -1.4890   32.3470   44.2610 C.3   401  KAI401      0.0397
      7  CB1       -2.3430   33.6810   44.3830 C.3   401  KAI401      0.1160
      8  CG        -0.1110   32.7030   43.7280 C.3   401  KAI401      0.0199
      9  CG1       -3.8430   33.5410   44.6770 C.2   401  KAI401      0.3649
     10  CG2       -0.3140   33.6320   42.4820 C.3   401  KAI401      0.0015
     11  C         -0.7670   30.3360   45.6610 C.2   401  KAI401      0.3803
     12  O          0.3090   30.0270   46.2140 O.co2 401  KAI401     -0.2441
     13  OD1       -4.5010   34.6060   44.9530 O.co2 401  KAI401     -0.2457
     14  OD2       -4.3640   32.4100   44.5770 O.co2 401  KAI401     -0.2457
     15  OXT       -1.6820   29.5710   45.2820 O.co2 401  KAI401     -0.2441
@<TRIPOS>BOND
     1     4    10    1
     2     3    10    1
     3    10     8    1
     4     8     6    1
     5     8     2    1
     6     6     7    1
     7     6     5    1
     8     7     9    1
     9    14     9   ar
    10     9    13   ar
    11     2     1    1
    12    15    11   ar
    13    11     5    1
    14    11    12   ar
    15     5     1    1
