@<TRIPOS>MOLECULE
3c39_3PG_A_1.pdb
 11 10 0 0 0
SMALL
GASTEIGER

@<TRIPOS>ATOM
      1  C1         7.0990    6.9610   22.5320 C.2   417  3PG417      0.3972
      2  O1         6.5580    5.8840   22.8020 O.co2 417  3PG417     -0.2427
      3  O2         8.2340    7.2520   22.9320 O.co2 417  3PG417     -0.2427
      4  C2         6.3640    7.8740   21.5600 C.3   417  3PG417      0.2838
      5  O3         7.2390    8.8830   21.0690 O.3   417  3PG417     -0.2081
      6  C3         5.0910    8.4480   22.1830 C.3   417  3PG417      0.1983
      7  O1P        5.3880    9.4180   23.1990 O.3   417  3PG417     -0.2669
      8  P          4.3410    9.6760   24.4140 P.3   417  3PG417      0.5327
      9  O2P        4.3050    8.4150   25.1820 O.3   417  3PG417     -0.1145
     10  O3P        3.0230    9.9590   23.7070 O.2   417  3PG417     -0.2224
     11  O4P        5.0570   10.7630   25.1730 O.3   417  3PG417     -0.1145
@<TRIPOS>BOND
     1     5     4    1
     2     4     6    1
     3     4     1    1
     4     6     7    1
     5     1     2   ar
     6     1     3   ar
     7     7     8    1
     8    10     8    2
     9     8    11    1
    10     8     9    1
