@<TRIPOS>MOLECULE
3c3a_ADP_B_1.pdb
 27 29 0 0 0
SMALL
GASTEIGER

@<TRIPOS>ATOM
      1  PB        23.3580   -6.0830  -61.1910 P.3   419  ADP419      0.5373
      2  O1B       23.1950   -5.1320  -60.0490 O.3   419  ADP419     -0.1143
      3  O2B       22.6530   -5.5370  -62.5660 O.2   419  ADP419     -0.2221
      4  O3B       24.9330   -6.3050  -61.5860 O.3   419  ADP419     -0.1143
      5  PA        21.5210   -8.3150  -61.5920 P.3   419  ADP419      0.2231
      6  O1A       21.0040   -9.4010  -60.7250 O.3   419  ADP419     -0.4370
      7  O2A       22.1560   -8.8320  -63.0090 O.2   419  ADP419     -0.5169
      8  O3A       22.7860   -7.5870  -60.8480 O.3   419  ADP419     -0.2261
      9  O5'       20.3820   -7.1890  -61.9430 O.3   419  ADP419     -0.3111
     10  C5'       19.5310   -7.3110  -63.0890 C.3   419  ADP419      0.1813
     11  C4'       18.2390   -8.0680  -62.7360 C.3   419  ADP419      0.1821
     12  O4'       18.2560   -9.3190  -63.4530 O.3   419  ADP419     -0.3135
     13  C3'       17.0480   -7.2750  -63.2790 C.3   419  ADP419      0.2184
     14  O3'       16.4060   -6.6160  -62.1860 O.3   419  ADP419     -0.2174
     15  C2'       16.1070   -8.3220  -63.8740 C.3   419  ADP419      0.2570
     16  O2'       14.8970   -8.4330  -63.1020 O.3   419  ADP419     -0.2130
     17  C1'       16.8840   -9.6440  -63.7930 C.3   419  ADP419      0.3186
     18  N9        16.8810  -10.3780  -65.0820 N.pl3 419  ADP419     -0.1439
     19  C8        16.7750  -11.7010  -65.2270 C.3   419  ADP419      0.3377
     20  N7        16.8070  -12.0090  -66.5230 N.2   419  ADP419     -0.2095
     21  C5        16.9530  -10.8790  -67.1970 C.2   419  ADP419      0.2526
     22  C6        17.0560  -10.5790  -68.5440 C.2   419  ADP419      0.4393
     23  N6        17.0060  -11.5880  -69.4160 N.pl3 419  ADP419      0.2180
     24  N1        17.1900   -9.2770  -68.9220 N.2   419  ADP419      0.0021
     25  C2        17.2340   -8.2840  -68.0310 C.3   419  ADP419      0.5254
     26  N3        17.1470   -8.5470  -66.7280 N.2   419  ADP419     -0.0055
     27  C4        17.0000   -9.8260  -66.2890 C.2   419  ADP419      0.3518
@<TRIPOS>BOND
     1    23    22    1
     2    24    22    2
     3    24    25    1
     4    22    21    1
     5    25    26    1
     6    21    20    2
     7    21    27    1
     8    26    27    2
     9    20    19    1
    10    27    18    1
    11    19    18    1
    12    18    17    1
    13    15    17    1
    14    15    13    1
    15    15    16    1
    16    17    12    1
    17    12    11    1
    18    13    11    1
    19    13    14    1
    20    10    11    1
    21    10     9    1
    22     7     5    2
    23     3     1    2
    24     9     5    1
    25     5     8    1
    26     5     6    1
    27     4     1    1
    28     1     8    1
    29     1     2    1
