@<TRIPOS>MOLECULE
3c3a_3PG_A_1.pdb
 11 10 0 0 0
SMALL
GASTEIGER

@<TRIPOS>ATOM
      1  C1         4.6250  -16.8120   -6.8520 C.2   417  3PG417      0.3972
      2  O1         5.3640  -15.9280   -6.3610 O.co2 417  3PG417     -0.2427
      3  O2         3.4350  -16.9370   -6.4840 O.co2 417  3PG417     -0.2427
      4  C2         5.1510  -17.7450   -7.9260 C.3   417  3PG417      0.2838
      5  O3         4.0460  -18.5160   -8.4220 O.3   417  3PG417     -0.2081
      6  C3         6.2490  -18.6910   -7.4210 C.3   417  3PG417      0.1983
      7  O1P        6.0450  -18.8950   -6.0200 O.3   417  3PG417     -0.2669
      8  P          7.1580  -19.3960   -4.9730 P.3   417  3PG417      0.5327
      9  O2P        7.3660  -18.1880   -4.0870 O.3   417  3PG417     -0.1145
     10  O3P        8.4580  -19.7540   -5.6820 O.2   417  3PG417     -0.2224
     11  O4P        6.4270  -20.5540   -4.3790 O.3   417  3PG417     -0.1145
@<TRIPOS>BOND
     1     5     4    1
     2     4     6    1
     3     4     1    1
     4     6     7    1
     5     1     3   ar
     6     1     2   ar
     7     7     8    1
     8    10     8    2
     9     8    11    1
    10     8     9    1
