@<TRIPOS>MOLECULE
3c3b_CDP_B_1.pdb
 25 26 0 0 0
SMALL
GASTEIGER

@<TRIPOS>ATOM
      1  O3B       -8.2130   -0.6440  -32.0460 O.3   418  CDP418     -0.1143
      2  PB        -9.3740   -1.1070  -33.1200 P.3   418  CDP418      0.5373
      3  O1B      -10.2440   -0.0150  -33.5770 O.2   418  CDP418     -0.2221
      4  O2B      -10.3670   -2.2830  -32.4810 O.3   418  CDP418     -0.1143
      5  O3A       -8.6290   -1.8530  -34.4240 O.3   418  CDP418     -0.2261
      6  PA        -7.3740   -2.9260  -34.2770 P.3   418  CDP418      0.2231
      7  O1A       -7.5750   -3.9870  -35.3500 O.2   418  CDP418     -0.5169
      8  O2A       -7.4110   -3.3680  -32.6370 O.3   418  CDP418     -0.4370
      9  O5'       -5.9530   -1.9950  -34.5430 O.3   418  CDP418     -0.3111
     10  C5'       -5.5140   -0.9890  -33.5390 C.3   418  CDP418      0.1813
     11  C4'       -5.4280    0.4120  -34.2160 C.3   418  CDP418      0.1799
     12  O4'       -5.0330   -0.0010  -35.4990 O.3   418  CDP418     -0.3320
     13  C3'       -6.6900    1.2260  -34.4660 C.3   418  CDP418      0.2158
     14  O3'       -6.7820    2.2730  -33.4930 O.3   418  CDP418     -0.2175
     15  C2'       -6.3630    1.9460  -35.8040 C.3   418  CDP418      0.2319
     16  O2'       -5.7990    3.2250  -35.4560 O.3   418  CDP418     -0.2157
     17  C1'       -5.2240    1.1510  -36.3850 C.3   418  CDP418      0.2400
     18  N1        -5.4720    0.7900  -37.8440 N.am  418  CDP418     -0.1778
     19  C2        -5.5700    1.8190  -38.8110 C.1   418  CDP418      0.2756
     20  O2        -5.4730    3.0050  -38.4640 O.2   418  CDP418     -0.1925
     21  N3        -5.7770    1.4560  -40.1630 N.2   418  CDP418     -0.3024
     22  C4        -5.8740    0.0710  -40.5140 C.2   418  CDP418      0.2346
     23  N4        -6.0670   -0.3360  -41.7940 N.pl3 418  CDP418     -0.0921
     24  C5        -5.7790   -0.9190  -39.5430 C.2   418  CDP418      0.0687
     25  C6        -5.5600   -0.5670  -38.2060 C.2   418  CDP418      0.0836
@<TRIPOS>BOND
     1    23    22    1
     2    22    21    2
     3    22    24    1
     4    21    19    2
     5    24    25    2
     6    19    20    2
     7    19    18   am
     8    25    18    1
     9    18    17    1
    10    17    15    1
    11    17    12    1
    12    15    16    1
    13    15    13    1
    14    12    11    1
    15     7     6    2
    16     9     6    1
    17     9    10    1
    18    13    11    1
    19    13    14    1
    20     5     6    1
    21     5     2    1
    22     6     8    1
    23    11    10    1
    24     3     2    2
    25     2     4    1
    26     2     1    1
