@<TRIPOS>MOLECULE
3c3c_3PG_A_1.pdb
 11 10 0 0 0
SMALL
GASTEIGER

@<TRIPOS>ATOM
      1  C1         7.1550    7.1490   23.0130 C.2   418  3PG418      0.3972
      2  O1         6.4900    6.2490   23.5660 O.co2 418  3PG418     -0.2427
      3  O2         8.3640    7.3000   23.2940 O.co2 418  3PG418     -0.2427
      4  C2         6.4900    8.0250   21.9590 C.3   418  3PG418      0.2838
      5  O3         7.3440    9.0540   21.3920 O.3   418  3PG418     -0.2081
      6  C3         5.2210    8.6550   22.5090 C.3   418  3PG418      0.1983
      7  O1P        5.5850    9.4560   23.6240 O.3   418  3PG418     -0.2669
      8  P          4.5980    9.6780   24.8960 P.3   418  3PG418      0.5327
      9  O2P        4.7490    8.3470   25.5620 O.3   418  3PG418     -0.1145
     10  O3P        3.1730    9.9420   24.3920 O.2   418  3PG418     -0.2224
     11  O4P        5.2520   10.8280   25.6240 O.3   418  3PG418     -0.1145
@<TRIPOS>BOND
     1     5     4    1
     2     4     6    1
     3     4     1    1
     4     6     7    1
     5     1     3   ar
     6     1     2   ar
     7     7     8    1
     8    10     8    2
     9     8     9    1
    10     8    11    1
