@<TRIPOS>MOLECULE
3c3c_CDP_A_1.pdb
 25 26 0 0 0
SMALL
GASTEIGER

@<TRIPOS>ATOM
      1  O3B       10.1450    0.4180   29.4950 O.2   419  CDP419     -0.2221
      2  PB         9.6190   -0.4970   30.7110 P.3   419  CDP419      0.5373
      3  O1B       10.6640   -1.3990   31.2460 O.3   419  CDP419     -0.1143
      4  O2B        8.3380   -1.2900   30.1440 O.3   419  CDP419     -0.1143
      5  O3A        9.0500    0.5250   31.8180 O.3   419  CDP419     -0.2261
      6  PA         8.7580    0.0100   33.3150 P.3   419  CDP419      0.2231
      7  O1A        8.0650   -1.2970   33.3470 O.2   419  CDP419     -0.5169
      8  O2A        7.9160    1.1810   34.0280 O.3   419  CDP419     -0.4370
      9  O5'       10.1870   -0.0220   34.0570 O.3   419  CDP419     -0.3111
     10  C5'       11.3240    0.5900   33.4440 C.3   419  CDP419      0.1813
     11  C4'       12.5710   -0.2810   33.6070 C.3   419  CDP419      0.1799
     12  O4'       12.4600   -1.0550   34.8110 O.3   419  CDP419     -0.3320
     13  C3'       13.7890    0.6100   33.8510 C.3   419  CDP419      0.2158
     14  O3'       14.5240    0.7590   32.6330 O.3   419  CDP419     -0.2175
     15  C2'       14.6260   -0.1790   34.8600 C.3   419  CDP419      0.2319
     16  O2'       15.8840   -0.5210   34.2720 O.3   419  CDP419     -0.2157
     17  C1'       13.8100   -1.4500   35.0980 C.3   419  CDP419      0.2400
     18  N1        13.9170   -1.8460   36.5200 N.am  419  CDP419     -0.1778
     19  C2        14.1850   -3.1770   36.8590 C.1   419  CDP419      0.2756
     20  O2        14.3320   -4.0200   35.9750 O.2   419  CDP419     -0.1925
     21  N3        14.2850   -3.5460   38.2050 N.2   419  CDP419     -0.3024
     22  C4        14.1170   -2.5830   39.2060 C.2   419  CDP419      0.2346
     23  N4        14.2120   -2.9320   40.4860 N.pl3 419  CDP419     -0.0921
     24  C5        13.8510   -1.2620   38.8650 C.2   419  CDP419      0.0687
     25  C6        13.7500   -0.8910   37.5290 C.2   419  CDP419      0.0836
@<TRIPOS>BOND
     1     1     2    2
     2     4     2    1
     3     2     3    1
     4     2     5    1
     5     5     6    1
     6    14    13    1
     7     6     7    2
     8     6     8    1
     9     6     9    1
    10    10    11    1
    11    10     9    1
    12    11    13    1
    13    11    12    1
    14    13    15    1
    15    16    15    1
    16    12    17    1
    17    15    17    1
    18    17    18    1
    19    20    19    2
    20    18    19   am
    21    18    25    1
    22    19    21    2
    23    25    24    2
    24    21    22    2
    25    24    22    1
    26    22    23    1
