@<TRIPOS>MOLECULE
3c3d_FO1_A_1.pdb
 20 22 0 0 0
SMALL
GASTEIGER

@<TRIPOS>ATOM
      1  N1       -35.1360   63.0850   21.9690 N.2   401  FO1401     -0.2915
      2  C1       -34.4960   62.6540   23.0810 C.1   401  FO1401      0.3667
      3  O1       -35.2100   62.2690   24.0290 O.2   401  FO1401     -0.1744
      4  N2       -33.0530   62.6530   23.1100 N.2   401  FO1401     -0.2326
      5  C2       -32.3250   63.1040   21.9830 C.1   401  FO1401      0.2212
      6  O2       -31.0940   63.1640   21.8520 O.2   401  FO1401     -0.2084
      7  C3       -33.0060   63.5910   20.7150 C.2   401  FO1401      0.1406
      8  C4       -32.3440   64.0650   19.5090 C.2   401  FO1401      0.0179
      9  C5       -33.0750   64.5080   18.3510 C.ar  401  FO1401      0.0148
     10  C6       -32.3960   64.9670   17.1470 C.ar  401  FO1401      0.0045
     11  C7       -33.1650   65.4020   15.9840 C.ar  401  FO1401      0.0421
     12  C9       -34.6690   65.3630   16.0530 C.ar  401  FO1401      0.1970
     13  O10      -35.4770   65.7340   15.0660 O.3   401  FO1401     -0.2865
     14  C11      -35.3730   64.9300   17.1900 C.ar  401  FO1401      0.0569
     15  C12      -34.6530   64.4750   18.3920 C.ar  401  FO1401      0.0569
     16  N3       -35.3020   63.9890   19.6540 N.pl3 401  FO1401     -0.2585
     17  C13      -34.5220   63.5510   20.7960 C.2   401  FO1401      0.2146
     18  C14      -36.8230   63.9380   19.7550 C.3   401  FO1401      0.1334
     19  C15      -37.6450   65.1870   20.1990 C.3   401  FO1401      0.2039
     20  O3       -37.2410   65.4920   21.5780 O.3   401  FO1401     -0.2185
@<TRIPOS>BOND
     1    13    12    1
     2    11    12   ar
     3    11    10   ar
     4    12    14   ar
     5    10     9   ar
     6    14    15   ar
     7     9    15   ar
     8     9     8    1
     9    15    16    1
    10     8     7    2
    11    16    18    1
    12    16    17    1
    13    18    19    1
    14    19    20    1
    15     7    17    1
    16     7     5    1
    17    17     1    2
    18     6     5    2
    19     1     2    2
    20     5     4    2
    21     2     4    2
    22     2     3    2
