@<TRIPOS>MOLECULE
3c3e_GDP_A_1.pdb
 28 30 0 0 0
SMALL
GASTEIGER

@<TRIPOS>ATOM
      1  PB        97.5790   25.7000   17.3870 P.3   402  GDP402      0.5373
      2  O1B       97.4890   24.9250   18.6660 O.3   402  GDP402     -0.1143
      3  O2B       98.2140   24.8720   16.2810 O.2   402  GDP402     -0.2221
      4  O3B       98.3380   27.0140   17.6530 O.3   402  GDP402     -0.1143
      5  O3A       96.0220   26.0100   17.0190 O.3   402  GDP402     -0.2261
      6  PA        95.1530   26.7770   15.8960 P.3   402  GDP402      0.2231
      7  O1A       95.2230   26.1100   14.6010 O.2   402  GDP402     -0.5169
      8  O2A       95.5360   28.2400   15.9020 O.3   402  GDP402     -0.4370
      9  O5'       93.7110   26.5190   16.4060 O.3   402  GDP402     -0.3111
     10  C5'       93.4300   25.7940   17.5720 C.3   402  GDP402      0.1813
     11  C4'       92.2030   26.4100   18.1890 C.3   402  GDP402      0.1799
     12  O4'       91.0830   25.7830   17.6470 O.3   402  GDP402     -0.3326
     13  C3'       92.1700   26.3300   19.6720 C.3   402  GDP402      0.2158
     14  O3'       91.8490   27.6310   20.1660 O.3   402  GDP402     -0.2175
     15  C2'       91.1720   25.2870   19.9310 C.3   402  GDP402      0.2310
     16  O2'       90.4050   25.4510   21.1100 O.3   402  GDP402     -0.2158
     17  C1'       90.2980   25.2990   18.6960 C.3   402  GDP402      0.2293
     18  N9        89.7710   23.9960   18.2680 N.pl3 402  GDP402     -0.2354
     19  C8        90.4440   22.8080   18.0070 C.3   402  GDP402      0.2246
     20  N7        89.5230   21.8720   17.6540 N.2   402  GDP402     -0.2322
     21  C5        88.2820   22.4520   17.6890 C.2   402  GDP402      0.2182
     22  C6        86.9780   21.9890   17.4320 C.1   402  GDP402      0.2372
     23  O6        86.6910   20.8260   17.0960 O.2   402  GDP402     -0.2069
     24  N1        85.9380   22.9020   17.5720 N.2   402  GDP402     -0.2485
     25  C2        86.1310   24.2270   17.9470 C.1   402  GDP402      0.2531
     26  N2        85.0590   25.0250   18.0510 N.pl3 402  GDP402     -0.0226
     27  N3        87.3960   24.6900   18.2060 N.2   402  GDP402     -0.3074
     28  C4        88.4320   23.7940   18.0680 C.2   402  GDP402      0.2300
@<TRIPOS>BOND
     1     7     6    2
     2     6     8    1
     3     6     9    1
     4     6     5    1
     5     3     1    2
     6     9    10    1
     7     5     1    1
     8    23    22    2
     9     1     4    1
    10     1     2    1
    11    22    24    2
    12    22    21    1
    13    10    11    1
    14    24    25    2
    15    12    11    1
    16    12    17    1
    17    20    21    2
    18    20    19    1
    19    21    28    1
    20    25    26    1
    21    25    27    2
    22    19    18    1
    23    28    27    2
    24    28    18    1
    25    11    13    1
    26    18    17    1
    27    17    15    1
    28    13    15    1
    29    13    14    1
    30    15    16    1
