@<TRIPOS>MOLECULE
3c3e_FO1_A_1.pdb
 17 19 0 0 0
SMALL
GASTEIGER

@<TRIPOS>ATOM
      1  N1       103.3820   19.8610   18.0010 N.2   401  FO1401     -0.2403
      2  C1       103.7300   19.1980   19.2130 C.1   401  FO1401      0.3752
      3  O1       102.9840   19.3530   20.1940 O.2   401  FO1401     -0.1738
      4  N2       104.9400   18.3720   19.2500 N.2   401  FO1401     -0.2315
      5  C2       105.7780   18.2250   18.0690 C.1   401  FO1401      0.2289
      6  O2       106.7950   17.4930   18.2020 O.2   401  FO1401     -0.2077
      7  C3       105.3930   18.9300   16.7980 C.2   401  FO1401      0.1814
      8  C4       106.1380   18.8580   15.5610 C.2   401  FO1401      0.0272
      9  C5       105.7320   19.5490   14.3390 C.2   401  FO1401      0.0284
     10  C6       106.6220   19.3750   13.0680 C.2   401  FO1401      0.0052
     11  C7       106.2140   20.0520   11.8490 C.2   401  FO1401      0.0380
     12  C9       105.0110   20.8670   11.8240 C.2   401  FO1401      0.1802
     13  O10      104.5900   21.5320   10.6350 O.2   401  FO1401     -0.2909
     14  C11      104.1360   21.0690   12.9980 C.3   401  FO1401      0.1289
     15  C12      104.4740   20.4060   14.3100 C.2   401  FO1401      0.1292
     16  N3       103.6720   20.5130   15.5780 N.2   401  FO1401     -0.3426
     17  C13      104.1420   19.7710   16.8040 C.1   401  FO1401      0.1642
@<TRIPOS>BOND
     1    13    12    1
     2    12    11    2
     3    12    14    1
     4    11    10    1
     5    14    15    1
     6    10     9    2
     7    15     9    1
     8    15    16    2
     9     9     8    1
    10     8     7    2
    11    16    17    2
    12     7    17    1
    13     7     5    1
    14    17     1    2
    15     1     2    2
    16     5     6    2
    17     5     4    2
    18     2     4    2
    19     2     3    2
