@<TRIPOS>MOLECULE
3c3i_DUD_A_1.pdb
 24 25 0 0 0
SMALL
GASTEIGER

@<TRIPOS>ATOM
      1  N1       -53.6270   31.7500   -1.6770 N.am  776  DUD776     -0.1790
      2  C2       -54.0720   30.6180   -1.0390 C.1   776  DUD776      0.2844
      3  N3       -55.1940   30.6750   -0.2460 N.2   776  DUD776     -0.2452
      4  C4       -55.8900   31.8560   -0.0750 C.1   776  DUD776      0.2182
      5  C5       -55.4380   33.0370   -0.7250 C.2   776  DUD776      0.1242
      6  C6       -54.3210   32.9620   -1.5080 C.2   776  DUD776      0.0928
      7  O2       -53.4840   29.5550   -1.1700 O.2   776  DUD776     -0.1918
      8  O4       -56.8910   31.8990    0.6270 O.2   776  DUD776     -0.2085
      9  C1'      -52.4190   31.7110   -2.5600 C.3   776  DUD776      0.2090
     10  C2'      -52.7970   32.3750   -3.9180 C.3   776  DUD776      0.0874
     11  C3'      -51.7050   33.3960   -4.2040 C.3   776  DUD776      0.1857
     12  C4'      -50.6870   33.2510   -3.0610 C.3   776  DUD776      0.1773
     13  O4'      -51.3340   32.4870   -1.9920 O.3   776  DUD776     -0.3339
     14  O3'      -51.1050   33.1590   -5.4620 O.3   776  DUD776     -0.2203
     15  C5'      -50.3430   34.6250   -2.5740 C.3   776  DUD776      0.1812
     16  O5'      -49.4150   34.5930   -1.4980 O.3   776  DUD776     -0.3111
     17  PA       -48.8490   36.0890   -1.4600 P.3   776  DUD776      0.2231
     18  O1A      -49.8530   37.0550   -1.9830 O.3   776  DUD776     -0.4370
     19  O2A      -47.5210   36.0970   -2.3850 O.2   776  DUD776     -0.5169
     20  O3A      -48.4260   36.4890    0.0170 O.3   776  DUD776     -0.2261
     21  PB       -49.0760   37.9570    0.3060 P.3   776  DUD776      0.5373
     22  O1B      -50.5660   37.8490    0.2430 O.3   776  DUD776     -0.1143
     23  O2B      -48.6410   38.4350    1.7890 O.3   776  DUD776     -0.1143
     24  O3B      -48.6090   39.0400   -0.8030 O.2   776  DUD776     -0.2221
@<TRIPOS>BOND
     1    14    11    1
     2    11    10    1
     3    11    12    1
     4    10     9    1
     5    12    15    1
     6    12    13    1
     7    15    16    1
     8     9    13    1
     9     9     1    1
    10    19    17    2
    11    18    17    1
    12     1     6    1
    13     1     2   am
    14     6     5    2
    15    16    17    1
    16    17    20    1
    17     7     2    2
    18     2     3    2
    19    24    21    2
    20     5     4    1
    21     3     4    2
    22     4     8    2
    23    20    21    1
    24    22    21    1
    25    21    23    1
