@<TRIPOS>MOLECULE
3c3n_FMN_A_1.pdb
 31 33 0 0 0
SMALL
GASTEIGER

@<TRIPOS>ATOM
      1  N1        -0.9500   14.0190   44.3210 N.2   315  FMN315     -0.2887
      2  C2        -1.8210   14.6290   45.1750 C.1   315  FMN315      0.3669
      3  O2        -1.6700   14.4530   46.3790 O.2   315  FMN315     -0.1744
      4  N3        -2.8420   15.4110   44.6790 N.2   315  FMN315     -0.2300
      5  C4        -2.9880   15.5880   43.3140 C.1   315  FMN315      0.2513
      6  O4        -3.9030   16.2910   42.8670 O.2   315  FMN315     -0.2057
      7  C4A       -2.0940   14.9700   42.4440 C.2   315  FMN315      0.2703
      8  N5        -2.1860   15.1360   41.0780 N.2   315  FMN315     -0.3885
      9  C5A       -1.3070   14.4920   40.2160 C.2   315  FMN315      0.1233
     10  C6        -1.4300   14.6470   38.8510 C.3   315  FMN315      0.0606
     11  C7        -0.5870   14.0440   37.9340 C.3   315  FMN315      0.0111
     12  C7M       -1.2650   13.6380   36.6620 C.3   315  FMN315      0.0008
     13  C8         0.4430   13.2450   38.4210 C.3   315  FMN315      0.0238
     14  C8M        1.0510   12.1960   37.5250 C.3   315  FMN315      0.0047
     15  C9         0.5710   13.0770   39.8100 C.2   315  FMN315     -0.0093
     16  C9A       -0.2930   13.7010   40.7160 C.2   315  FMN315      0.0750
     17  N10       -0.1740   13.5660   42.0930 N.pl3 315  FMN315     -0.2548
     18  C10       -1.0740   14.1830   42.9520 C.2   315  FMN315      0.2449
     19  C1'        0.8850   12.7080   42.6920 C.3   315  FMN315      0.1336
     20  C2'        0.3280   11.2970   42.6950 C.3   315  FMN315      0.2048
     21  O2'       -0.8110   11.3090   43.4860 O.3   315  FMN315     -0.2185
     22  C3'        1.2850   10.2840   43.2650 C.3   315  FMN315      0.2165
     23  O3'        1.5080   10.5870   44.6300 O.3   315  FMN315     -0.2175
     24  C4'        2.5970   10.3270   42.4940 C.3   315  FMN315      0.2147
     25  O4'        2.3260   10.2310   41.1110 O.3   315  FMN315     -0.2176
     26  C5'        3.5090    9.1940   42.9400 C.3   315  FMN315      0.1892
     27  O5'        2.7860    8.0110   42.7080 O.3   315  FMN315     -0.2674
     28  P          3.0940    7.1520   41.3960 P.3   315  FMN315      0.5327
     29  O1P        4.5670    6.7620   41.5040 O.3   315  FMN315     -0.1145
     30  O2P        2.8620    7.9750   40.1540 O.2   315  FMN315     -0.2224
     31  O3P        2.1910    5.9550   41.4450 O.3   315  FMN315     -0.1145
@<TRIPOS>BOND
     1    12    11    1
     2    14    13    1
     3    11    13    1
     4    11    10    1
     5    13    15    1
     6    10     9    1
     7    15    16    2
     8    30    28    2
     9     9    16    1
    10     9     8    2
    11    16    17    1
    12     8     7    2
    13    25    24    1
    14    28    31    1
    15    28    29    1
    16    28    27    1
    17    17    19    1
    18    17    18    1
    19     7    18    1
    20     7     5    1
    21    24    26    1
    22    24    22    1
    23    19    20    1
    24    20    22    1
    25    20    21    1
    26    27    26    1
    27     6     5    2
    28    18     1    2
    29    22    23    1
    30     5     4    2
    31     1     2    2
    32     4     2    2
    33     2     3    2
