@<TRIPOS>MOLECULE
3c3u_C2U_A_1.pdb
 12 12 0 0 0
SMALL
GASTEIGER

@<TRIPOS>ATOM
      1  O7B        7.1380   -2.7800   18.1590 O.co2 351  C2U351     -0.2404
      2  C7         6.5150   -3.6980   18.7380 C.2   351  C2U351      0.3909
      3  O7A        6.2990   -3.7520   19.9600 O.co2 351  C2U351     -0.2404
      4  C6         5.8760   -4.7560   17.9140 C.ar  351  C2U351      0.1203
      5  C1         5.9350   -4.6700   16.5370 C.ar  351  C2U351      0.0213
      6  C5         5.2110   -5.8030   18.5270 C.ar  351  C2U351      0.2125
      7  O5         5.1280   -5.9240   19.8780 O.3   351  C2U351     -0.2854
      8  C4         4.5950   -6.7480   17.7450 C.ar  351  C2U351      0.0975
      9 CL4         3.7120   -8.0430   18.5470 Cl    351  C2U351     -0.0789
     10  C3         4.6190   -6.7100   16.3670 C.ar  351  C2U351      0.0260
     11  C2         5.3180   -5.6650   15.7920 C.ar  351  C2U351      0.0589
     12 CL2         5.3740   -5.5530   14.0310 Cl    351  C2U351     -0.0822
@<TRIPOS>BOND
     1    12    11    1
     2    11    10   ar
     3    11     5   ar
     4    10     8   ar
     5     5     4   ar
     6     8     6   ar
     7     8     9    1
     8     4     6   ar
     9     4     2    1
    10     1     2   ar
    11     6     7    1
    12     2     3   ar
