@<TRIPOS>MOLECULE
3c3u_NAP_A_1.pdb
 48 52 0 0 0
SMALL
GASTEIGER

@<TRIPOS>ATOM
      1  PA         9.1480   -6.9540   27.8450 P.3   350  NAP350      0.2189
      2  O1A       10.1160   -7.9600   27.3570 O.2   350  NAP350     -0.5170
      3  O2A        9.6220   -5.6270   28.3180 O.3   350  NAP350     -0.4371
      4  O5B        8.3080   -7.5700   29.0670 O.3   350  NAP350     -0.3112
      5  C5B        7.4730   -8.6870   28.9060 C.3   350  NAP350      0.1813
      6  C4B        6.4840   -8.8350   30.0710 C.3   350  NAP350      0.1820
      7  O4B        7.1650   -8.8810   31.3020 O.3   350  NAP350     -0.3136
      8  C3B        5.4510   -7.7210   30.2200 C.3   350  NAP350      0.2157
      9  O3B        4.2470   -8.2380   29.7030 O.3   350  NAP350     -0.2175
     10  C2B        5.2880   -7.5110   31.7130 C.3   350  NAP350      0.2314
     11  O2B        3.9650   -7.8180   32.2010 O.3   350  NAP350     -0.2630
     12  C1B        6.3140   -8.4390   32.3610 C.3   350  NAP350      0.3158
     13  N9A        7.1690   -7.7700   33.3850 N.pl3 350  NAP350     -0.1439
     14  C8A        7.6230   -6.4920   33.3960 C.3   350  NAP350      0.3377
     15  N7A        8.3710   -6.2870   34.4970 N.2   350  NAP350     -0.2095
     16  C5A        8.3880   -7.4650   35.1920 C.2   350  NAP350      0.2526
     17  C6A        8.9700   -7.8940   36.3980 C.2   350  NAP350      0.4393
     18  N6A        9.7440   -7.0920   37.1690 N.pl3 350  NAP350      0.2180
     19  N1A        8.7740   -9.1750   36.7900 N.2   350  NAP350      0.0021
     20  C2A        8.0250  -10.0180   36.0860 C.3   350  NAP350      0.5254
     21  N3A        7.4440   -9.6630   34.9170 N.2   350  NAP350     -0.0055
     22  C4A        7.6240   -8.3840   34.4690 C.2   350  NAP350      0.3518
     23  O3         7.9390   -6.6470   26.8050 O.3   350  NAP350     -0.2703
     24  PN         7.8820   -6.2290   25.2640 P.3   350  NAP350      0.2189
     25  O1N        7.9790   -7.4330   24.3650 O.2   350  NAP350     -0.5170
     26  O2N        6.6430   -5.3680   25.1840 O.3   350  NAP350     -0.4371
     27  O5D        9.1640   -5.3150   24.9980 O.3   350  NAP350     -0.3112
     28  C5D        9.2710   -4.0360   25.6460 C.3   350  NAP350      0.1813
     29  C4D        9.0520   -2.8760   24.6900 C.3   350  NAP350      0.1799
     30  O4D       10.0270   -2.7940   23.6040 O.3   350  NAP350     -0.3327
     31  C3D        7.6680   -2.7840   24.0200 C.3   350  NAP350      0.2158
     32  O3D        6.6170   -2.3780   24.9120 O.3   350  NAP350     -0.2175
     33  C2D        7.9400   -1.7380   22.9610 C.3   350  NAP350      0.2309
     34  O2D        7.9760   -0.4240   23.5920 O.3   350  NAP350     -0.2158
     35  C1D        9.3460   -2.1940   22.4870 C.3   350  NAP350      0.2263
     36  N1N        9.3290   -3.2030   21.3910 N.pl3 350  NAP350     -0.2787
     37  C2N        9.6930   -2.8060   20.1620 C.3   350  NAP350      0.1244
     38  C3N        9.6770   -3.6850   19.0650 C.2   350  NAP350      0.0544
     39  C7N       10.1240   -3.2170   17.7110 C.2   350  NAP350      0.2818
     40  O7N        9.8550   -3.8930   16.7070 O.2   350  NAP350     -0.2670
     41  N7N       10.8630   -2.1010   17.7010 N.am  350  NAP350     -0.0839
     42  C4N        9.3110   -5.0280   19.2620 C.2   350  NAP350      0.0033
     43  C5N        8.9460   -5.4450   20.5540 C.2   350  NAP350      0.0157
     44  C6N        8.9730   -4.5060   21.6050 C.2   350  NAP350      0.0633
     45  P2B        3.2100   -6.7330   33.1460 P.3   350  NAP350      0.5328
     46  O1X        2.8310   -5.5710   32.2430 O.2   350  NAP350     -0.2224
     47  O2X        1.9920   -7.5460   33.5780 O.3   350  NAP350     -0.1145
     48  O3X        4.1470   -6.2920   34.2680 O.3   350  NAP350     -0.1145
@<TRIPOS>BOND
     1    40    39    2
     2    41    39   am
     3    39    38    1
     4    38    42    2
     5    38    37    1
     6    42    43    1
     7    37    36    1
     8    43    44    2
     9    36    44    1
    10    36    35    1
    11    35    33    1
    12    35    30    1
    13    33    34    1
    14    33    31    1
    15    30    29    1
    16    31    29    1
    17    31    32    1
    18    25    24    2
    19    29    28    1
    20    27    24    1
    21    27    28    1
    22    26    24    1
    23    24    23    1
    24    23     1    1
    25     2     1    2
    26     1     3    1
    27     1     4    1
    28     5     4    1
    29     5     6    1
    30     9     8    1
    31     6     8    1
    32     6     7    1
    33     8    10    1
    34     7    12    1
    35    10    11    1
    36    10    12    1
    37    11    45    1
    38    46    45    2
    39    12    13    1
    40    45    47    1
    41    45    48    1
    42    13    14    1
    43    13    22    1
    44    14    15    1
    45    22    21    2
    46    22    16    1
    47    15    16    2
    48    21    20    1
    49    16    17    1
    50    20    19    1
    51    17    19    2
    52    17    18    1
