@<TRIPOS>MOLECULE
3c3x_NAP_A_1.pdb
 48 52 0 0 0
SMALL
GASTEIGER

@<TRIPOS>ATOM
      1  PA        46.4090   32.0540   52.9520 P.3   401  NAP401      0.2189
      2  O1A       47.2770   32.8350   52.0400 O.2   401  NAP401     -0.5170
      3  O2A       45.2560   32.6900   53.6230 O.3   401  NAP401     -0.4371
      4  O5B       47.4350   31.3740   53.9710 O.3   401  NAP401     -0.3112
      5  C5B       46.9890   30.3290   54.8460 C.3   401  NAP401      0.1813
      6  C4B       47.8650   30.3940   56.0650 C.3   401  NAP401      0.1820
      7  O4B       49.3280   30.0210   55.9160 O.3   401  NAP401     -0.3136
      8  C3B       48.1340   31.7500   56.7180 C.3   401  NAP401      0.2157
      9  O3B       46.9640   32.2550   57.3360 O.3   401  NAP401     -0.2175
     10  C2B       49.3050   31.5270   57.7050 C.3   401  NAP401      0.2314
     11  O2B       48.8320   31.1680   59.0070 O.3   401  NAP401     -0.2630
     12  C1B       50.0860   30.3850   57.0650 C.3   401  NAP401      0.3158
     13  N9A       51.4060   30.7990   56.5830 N.pl3 401  NAP401     -0.1439
     14  C8A       51.6770   31.9350   55.8200 C.3   401  NAP401      0.3377
     15  N7A       52.9470   32.0740   55.5210 N.2   401  NAP401     -0.2095
     16  C5A       53.5380   31.0000   56.1000 C.2   401  NAP401      0.2526
     17  C6A       54.8910   30.5850   56.1410 C.2   401  NAP401      0.4393
     18  N6A       55.8520   31.2980   55.5350 N.pl3 401  NAP401      0.2180
     19  N1A       55.1770   29.4240   56.8240 N.2   401  NAP401      0.0021
     20  C2A       54.1800   28.7110   57.4340 C.3   401  NAP401      0.5254
     21  N3A       52.8560   29.0240   57.4550 N.2   401  NAP401     -0.0055
     22  C4A       52.6060   30.1890   56.7660 C.2   401  NAP401      0.3518
     23  O3        45.9350   30.7330   52.1190 O.3   401  NAP401     -0.2703
     24  PN        44.6680   30.7630   51.1540 P.3   401  NAP401      0.2189
     25  O1N       44.6660   32.0220   50.3530 O.2   401  NAP401     -0.5170
     26  O2N       43.4900   30.5070   52.0460 O.3   401  NAP401     -0.4371
     27  O5D       44.8050   29.4950   50.2060 O.3   401  NAP401     -0.3112
     28  C5D       44.8620   28.1520   50.7440 C.3   401  NAP401      0.1813
     29  C4D       44.5510   27.1750   49.6440 C.3   401  NAP401      0.1799
     30  O4D       43.3370   27.6290   48.9790 O.3   401  NAP401     -0.3327
     31  C3D       45.6890   27.0390   48.6050 C.3   401  NAP401      0.2158
     32  O3D       45.9020   25.6980   48.2250 O.3   401  NAP401     -0.2175
     33  C2D       45.1790   27.9510   47.5170 C.3   401  NAP401      0.2309
     34  O2D       45.7440   27.5780   46.2660 O.3   401  NAP401     -0.2158
     35  C1D       43.6810   27.8110   47.5900 C.3   401  NAP401      0.2263
     36  N1N       42.9640   28.9630   46.9560 N.pl3 401  NAP401     -0.2787
     37  C2N       41.9440   28.6270   46.0790 C.3   401  NAP401      0.1244
     38  C3N       41.1240   29.6060   45.5220 C.2   401  NAP401      0.0544
     39  C7N       39.9750   29.2300   44.5960 C.2   401  NAP401      0.2818
     40  O7N       39.2900   30.1200   44.0640 O.2   401  NAP401     -0.2670
     41  N7N       39.7340   27.9130   44.4040 N.am  401  NAP401     -0.0839
     42  C4N       41.3780   30.9870   45.8420 C.2   401  NAP401      0.0033
     43  C5N       42.4270   31.3230   46.7380 C.2   401  NAP401      0.0157
     44  C6N       43.2060   30.3060   47.3160 C.2   401  NAP401      0.0633
     45  P2B       49.4730   31.6400   60.4270 P.3   401  NAP401      0.5328
     46  O1X       49.7090   33.1360   60.3870 O.2   401  NAP401     -0.2224
     47  O2X       48.3960   31.1530   61.3720 O.3   401  NAP401     -0.1145
     48  O3X       50.7680   30.8660   60.6000 O.3   401  NAP401     -0.1145
@<TRIPOS>BOND
     1    40    39    2
     2    41    39   am
     3    39    38    1
     4    38    42    2
     5    38    37    1
     6    42    43    1
     7    37    36    1
     8    34    33    1
     9    43    44    2
    10    36    44    1
    11    36    35    1
    12    33    35    1
    13    33    31    1
    14    35    30    1
    15    32    31    1
    16    31    29    1
    17    30    29    1
    18    29    28    1
    19    27    28    1
    20    27    24    1
    21    25    24    2
    22    24    26    1
    23    24    23    1
    24     2     1    2
    25    23     1    1
    26     1     3    1
    27     1     4    1
    28     4     5    1
    29     5     6    1
    30    15    14    1
    31    15    16    2
    32    18    17    1
    33    14    13    1
    34     7     6    1
    35     7    12    1
    36     6     8    1
    37    16    17    1
    38    16    22    1
    39    17    19    2
    40    13    22    1
    41    13    12    1
    42     8     9    1
    43     8    10    1
    44    22    21    2
    45    19    20    1
    46    12    10    1
    47    20    21    1
    48    10    11    1
    49    11    45    1
    50    46    45    2
    51    45    48    1
    52    45    47    1
