@<TRIPOS>MOLECULE
3c3y_SAH_A_1.pdb
 26 28 0 0 0
SMALL
GASTEIGER

@<TRIPOS>ATOM
      1  N         -4.0350    6.9460   24.5520 N.3   464  SAH464     -0.1208
      2  CA        -3.1500    7.8060   25.4190 C.3   464  SAH464      0.1952
      3  CB        -2.0400    6.9760   26.0510 C.3   464  SAH464      0.0422
      4  CG        -2.4930    6.0780   27.2110 C.3   464  SAH464      0.0597
      5  SD        -1.0250    5.5870   28.1610 S.3   464  SAH464     -0.1375
      6  C         -2.5760    8.9920   24.6570 C.2   464  SAH464      0.3819
      7  O         -1.9570    9.8390   25.2970 O.co2 464  SAH464     -0.2441
      8  OXT       -2.7400    9.1610   23.4440 O.co2 464  SAH464     -0.2441
      9  C5'       -1.7410    4.3590   29.2760 C.3   464  SAH464      0.0899
     10  C4'       -2.7570    4.9250   30.2560 C.3   464  SAH464      0.1630
     11  O4'       -3.3670    3.8200   30.9040 O.3   464  SAH464     -0.3153
     12  C3'       -2.1550    5.7790   31.3770 C.3   464  SAH464      0.2168
     13  O3'       -2.6900    7.0820   31.3550 O.3   464  SAH464     -0.2175
     14  C2'       -2.5510    5.0490   32.6560 C.3   464  SAH464      0.2569
     15  O2'       -2.8850    5.8900   33.7380 O.3   464  SAH464     -0.2130
     16  C1'       -3.7480    4.2240   32.2040 C.3   464  SAH464      0.3185
     17  N9        -3.9390    3.0110   32.9890 N.pl3 464  SAH464     -0.1439
     18  C8        -3.0120    2.0360   33.2190 C.3   464  SAH464      0.3377
     19  N7        -3.5840    1.0520   33.9490 N.2   464  SAH464     -0.2095
     20  C5        -4.8880    1.3910   34.1610 C.2   464  SAH464      0.2526
     21  C6        -5.9290    0.7680   34.8340 C.2   464  SAH464      0.4393
     22  N6        -5.7460   -0.4130   35.4370 N.pl3 464  SAH464      0.2180
     23  N1        -7.1570    1.3900   34.8710 N.2   464  SAH464      0.0021
     24  C2        -7.3530    2.6160   34.2550 C.3   464  SAH464      0.5254
     25  N3        -6.3190    3.2350   33.5900 N.2   464  SAH464     -0.0055
     26  C4        -5.1200    2.6170   33.5550 C.2   464  SAH464      0.3518
@<TRIPOS>BOND
     1     8     6   ar
     2     1     2    1
     3     6     7   ar
     4     6     2    1
     5     2     3    1
     6     3     4    1
     7     4     5    1
     8     5     9    1
     9     9    10    1
    10    10    11    1
    11    10    12    1
    12    11    16    1
    13    13    12    1
    14    12    14    1
    15    16    14    1
    16    16    17    1
    17    14    15    1
    18    17    18    1
    19    17    26    1
    20    18    19    1
    21    26    25    2
    22    26    20    1
    23    25    24    1
    24    19    20    2
    25    20    21    1
    26    24    23    1
    27    21    23    2
    28    21    22    1
