@<TRIPOS>MOLECULE
3c41_ANP_J_1.pdb
 31 33 0 0 0
SMALL
GASTEIGER

@<TRIPOS>ATOM
      1  PG        14.9920    8.9960    3.7970 P.3   601  ANP601      0.4884
      2  O1G       15.5320    9.9980    2.8520 O.2   601  ANP601     -0.2331
      3  O2G       14.6230    9.3810    5.3150 O.3   601  ANP601     -0.1240
      4  O3G       14.2030    7.6970    3.2690 O.3   601  ANP601     -0.1240
      5  PB        16.2330    7.0230    5.2780 P.3   601  ANP601      0.4669
      6  O1B       15.9240    7.5350    6.6330 O.3   601  ANP601     -0.1253
      7  O2B       15.1230    5.9700    4.7780 O.2   601  ANP601     -0.2351
      8  N3B       16.3640    8.2060    4.1700 N.3   601  ANP601     -0.0163
      9  PA        17.8290    4.7900    4.5640 P.3   601  ANP601      0.2220
     10  O1A       17.4060    3.6950    5.4650 O.3   601  ANP601     -0.4370
     11  O2A       17.0260    4.7940    3.1710 O.2   601  ANP601     -0.5170
     12  O3A       17.6420    6.2440    5.2330 O.3   601  ANP601     -0.2360
     13  O5'       19.3850    4.7150    4.1640 O.3   601  ANP601     -0.3111
     14  C5'       20.3780    4.9790    5.1570 C.3   601  ANP601      0.1813
     15  C4'       21.7720    5.0440    4.5300 C.3   601  ANP601      0.1821
     16  O4'       22.0510    3.8050    3.8550 O.3   601  ANP601     -0.3135
     17  C3'       21.8180    6.1380    3.4580 C.3   601  ANP601      0.2184
     18  O3'       23.0170    6.9030    3.6050 O.3   601  ANP601     -0.2174
     19  C2'       21.8880    5.3250    2.1660 C.3   601  ANP601      0.2570
     20  O2'       22.6030    6.0760    1.1820 O.3   601  ANP601     -0.2130
     21  C1'       22.7760    4.1950    2.6800 C.3   601  ANP601      0.3186
     22  N9        22.8640    3.0750    1.7090 N.pl3 601  ANP601     -0.1439
     23  C8        23.8910    2.8150    0.9030 C.3   601  ANP601      0.3377
     24  N7        23.6430    1.7050    0.2070 N.2   601  ANP601     -0.2095
     25  C5        22.4470    1.2570    0.5700 C.2   601  ANP601      0.2526
     26  C6        21.6590    0.1750    0.1940 C.2   601  ANP601      0.4393
     27  N6        22.0860   -0.6910   -0.7220 N.pl3 601  ANP601      0.2180
     28  N1        20.4560    0.0190    0.7650 N.2   601  ANP601      0.0021
     29  C2        20.0150    0.8740    1.6710 C.3   601  ANP601      0.5254
     30  N3        20.7330    1.9140    2.0570 N.2   601  ANP601     -0.0055
     31  C4        21.9480    2.1330    1.5280 C.2   601  ANP601      0.3518
@<TRIPOS>BOND
     1    27    26    1
     2    26    25    1
     3    26    28    2
     4    24    25    2
     5    24    23    1
     6    25    31    1
     7    28    29    1
     8    23    22    1
     9    20    19    1
    10    31    22    1
    11    31    30    2
    12    29    30    1
    13    22    21    1
    14    19    21    1
    15    19    17    1
    16    21    16    1
    17     2     1    2
    18    11     9    2
    19     4     1    1
    20    17    18    1
    21    17    15    1
    22     1     8    1
    23     1     3    1
    24    16    15    1
    25    13     9    1
    26    13    14    1
    27     8     5    1
    28    15    14    1
    29     9    12    1
    30     9    10    1
    31     7     5    2
    32    12     5    1
    33     5     6    1
