@<TRIPOS>MOLECULE
3c43_315_A_1.pdb
 31 34 0 0 0
SMALL
GASTEIGER

@<TRIPOS>ATOM
      1  C1        39.5940   51.5000   35.8880 C.3     1  3151        0.1190
      2  C2        38.3650   51.0410   34.9970 C.3     1  3151        0.1777
      3  C3        36.9970   51.0210   35.7940 C.2     1  3151        0.2437
      4  N4        36.1850   49.9410   35.6160 N.am    1  3151       -0.2755
      5  O5        36.6830   51.9930   36.4990 O.2     1  3151       -0.2733
      6  N6        38.3070   51.7390   34.0810 N.3     1  3151       -0.1226
      7  C8        40.8450   51.9300   35.0600 C.3     1  3151        0.0125
      8  C11       36.5860   48.6000   35.1760 C.3     1  3151        0.1286
      9  C12       35.3990   47.7120   35.4320 C.3     1  3151        0.1824
     10  C13       34.2160   48.6430   35.5180 C.3     1  3151        0.0585
     11  C14       34.7530   50.0410   35.8490 C.3     1  3151        0.0964
     12  F21       35.5550   47.0850   36.6580 F       1  3151       -0.2354
     13  C23       41.6050   53.1910   35.6210 C.3     1  3151        0.0006
     14  C26       42.8510   52.6950   36.3010 C.3     1  3151        0.0000
     15  C27       41.7850   53.4760   37.0370 C.3     1  3151        0.0000
     16  C33       40.0740   50.3240   36.8860 C.2     1  3151        0.2952
     17  N35       40.1590   50.3780   38.1880 N.2     1  3151       -0.3125
     18  C36       40.6140   49.1300   38.4610 C.1     1  3151        0.1290
     19  N37       40.7710   48.4090   37.3260 N.2     1  3151       -0.0072
     20  O38       40.4250   49.1760   36.2880 O.2     1  3151       -0.3155
     21  C39       40.8770   48.5420   39.8140 C.ar    1  3151        0.1045
     22  C40       40.0550   48.9900   40.8900 C.ar    1  3151        0.0147
     23  C41       40.2000   48.4600   42.1800 C.ar    1  3151        0.0192
     24  C42       41.1770   47.4730   42.4450 C.ar    1  3151        0.1080
     25  C43       42.0260   47.0100   41.4130 C.ar    1  3151        0.0487
     26  C44       41.8810   47.5430   40.1160 C.ar    1  3151        0.1518
     27  F48       42.7160   47.0350   39.1920 F       1  3151       -0.2034
     28  S49       41.3250   46.7720   44.0740 S.O2    1  3151        0.0105
     29  O50       41.5880   45.3700   43.9110 O.2     1  3151       -0.1686
     30  O51       40.1130   47.1130   44.7970 O.2     1  3151       -0.1686
     31  C52       42.7440   47.6070   44.7840 C.3     1  3151        0.1816
@<TRIPOS>BOND
     1     6     2    1
     2     2     3    1
     3     2     1    1
     4     7    13    1
     5     7     1    1
     6     8     9    1
     7     8     4    1
     8     9    10    1
     9     9    12    1
    10    10    11    1
    11     4     3   am
    12     4    11    1
    13    13    14    1
    14    13    15    1
    15     3     5    2
    16     1    16    1
    17    20    16    1
    18    20    19    1
    19    14    15    1
    20    16    17    2
    21    19    18    2
    22    17    18    2
    23    18    21    1
    24    27    26    1
    25    21    26   ar
    26    21    22   ar
    27    26    25   ar
    28    22    23   ar
    29    25    24   ar
    30    23    24   ar
    31    24    28    1
    32    29    28    2
    33    28    31    1
    34    28    30    2
