@<TRIPOS>MOLECULE
3c45_317_A_1.pdb
 30 33 0 0 0
SMALL
GASTEIGER

@<TRIPOS>ATOM
      1  C1        39.6540   51.2680   36.0040 C.3   1521  3171521     0.1166
      2  C2        38.4420   50.8230   35.0800 C.3   1521  3171521     0.1508
      3  C3        37.0940   50.7420   35.7860 C.2   1521  3171521     0.1276
      4  C4        36.2720   49.6640   35.7610 C.2   1521  3171521    -0.0195
      5  F5        36.6950   51.8180   36.4720 F     1521  3171521    -0.2080
      6  N6        38.3140   51.7750   33.9880 N.3   1521  3171521    -0.1251
      7  C7        40.8580   51.6900   35.1270 C.3   1521  3171521     0.0124
      8  C8        34.9170   49.6040   36.4530 C.3   1521  3171521     0.0240
      9  C9        34.1830   48.3590   35.9340 C.3   1521  3171521     0.0047
     10  C10       35.1090   47.6800   34.9220 C.3   1521  3171521     0.0047
     11  C11       36.4850   48.3290   35.0790 C.3   1521  3171521     0.0240
     12  C18       41.6690   52.8460   35.7480 C.3   1521  3171521     0.0006
     13  C19       43.0320   53.0740   35.2570 C.3   1521  3171521     0.0000
     14  C20       42.8150   52.4820   36.5780 C.3   1521  3171521     0.0000
     15  C26       40.1700   50.1180   36.8330 C.2   1521  3171521     0.2951
     16  N27       40.1850   50.1460   38.1510 N.2   1521  3171521    -0.3126
     17  C28       40.6960   48.9650   38.5090 C.1   1521  3171521     0.1276
     18  N29       40.9950   48.2090   37.4210 N.2   1521  3171521    -0.0072
     19  O30       40.6380   48.9900   36.2970 O.2   1521  3171521    -0.3155
     20  C31       40.8940   48.4060   39.8810 C.ar  1521  3171521     0.0876
     21  C32       40.0860   49.0480   40.8710 C.ar  1521  3171521     0.0133
     22  C33       40.1010   48.6070   42.2140 C.ar  1521  3171521     0.0191
     23  C34       40.9260   47.5210   42.5900 C.ar  1521  3171521     0.1066
     24  C35       41.7510   46.8750   41.6370 C.ar  1521  3171521     0.0304
     25  C36       41.7410   47.3070   40.2950 C.ar  1521  3171521     0.0693
     26  S40       40.8990   46.9380   44.2620 S.O2  1521  3171521     0.0105
     27  O41       39.6080   47.2290   44.8130 O.2   1521  3171521    -0.1686
     28  O42       42.0260   47.5780   44.9560 O.2   1521  3171521    -0.1686
     29  C43       41.1860   45.1970   44.0670 C.3   1521  3171521     0.1816
     30 CL47       42.7690   46.3980   39.2290 Cl    1521  3171521    -0.0815
@<TRIPOS>BOND
     1     6     2    1
     2    10    11    1
     3    10     9    1
     4    11     4    1
     5     2     3    1
     6     2     1    1
     7     7    12    1
     8     7     1    1
     9    13    12    1
    10    13    14    1
    11    12    14    1
    12     4     3    2
    13     4     8    1
    14     3     5    1
    15     9     8    1
    16     1    15    1
    17    19    15    1
    18    19    18    1
    19    15    16    2
    20    18    17    2
    21    16    17    2
    22    17    20    1
    23    30    25    1
    24    20    25   ar
    25    20    21   ar
    26    25    24   ar
    27    21    22   ar
    28    24    23   ar
    29    22    23   ar
    30    23    26    1
    31    29    26    1
    32    26    27    2
    33    26    28    2
