@<TRIPOS>MOLECULE
3c49_KU8_A_1.pdb
 28 31 0 0 0
SMALL
GASTEIGER

@<TRIPOS>ATOM
      1  C1N       23.8820   -4.0580    9.6090 C.3   601  KU8601      0.0952
      2  C1K       24.1480   -2.9670   10.6680 C.3   601  KU8601      0.0403
      3  C1L       24.1360   -1.5330   10.1480 C.3   601  KU8601      0.0905
      4  N1R       23.0770   -0.7550    9.4790 N.3   601  KU8601     -0.2162
      5  C1M       22.6230   -1.3810    8.2200 C.3   601  KU8601      0.1101
      6  C1O       21.9520   -2.7220    8.4070 C.3   601  KU8601      0.1125
      7  N2B       22.5630   -3.8850    9.0150 N.am  601  KU8601     -0.2745
      8  C1T       21.6680   -4.8580    9.2120 C.2   601  KU8601      0.2512
      9  O1A       20.5070   -4.7510    8.8080 O.2   601  KU8601     -0.2698
     10  C1W       22.0380   -6.1120   10.0290 C.ar  601  KU8601      0.0807
     11  C1J       20.9950   -6.4750   10.8740 C.ar  601  KU8601      0.0029
     12  C1V       23.2850   -6.6960   10.2880 C.ar  601  KU8601      0.1444
     13  F1C       24.3570   -6.4070    9.5260 F     601  KU8601     -0.2040
     14  C1G       23.3890   -7.7910   11.1450 C.ar  601  KU8601      0.0295
     15  C1F       22.3070   -8.1890   11.9100 C.ar  601  KU8601     -0.0016
     16  C1U       21.1030   -7.5260   11.7730 C.ar  601  KU8601     -0.0159
     17  C1P       19.9190   -7.9680   12.6340 C.3   601  KU8601      0.0739
     18  C1X       18.6070   -7.2990   12.2330 C.2   601  KU8601      0.0863
     19  C1Z       17.6740   -7.9730   11.4690 C.ar  601  KU8601      0.0266
     20  C1H       17.9390   -9.2680   11.0440 C.ar  601  KU8601      0.0020
     21  C1D       17.0030   -9.9400   10.2700 C.ar  601  KU8601      0.0001
     22  C1E       15.8080   -9.3160    9.9290 C.ar  601  KU8601      0.0007
     23  C1I       15.5490   -8.0180   10.3590 C.ar  601  KU8601      0.0117
     24  C2A       16.4890   -7.3500   11.1310 C.ar  601  KU8601      0.0858
     25  C1Y       16.2820   -6.0580   11.5870 C.1   601  KU8601      0.1726
     26  O1B       15.2440   -5.4520   11.3190 O.2   601  KU8601     -0.2205
     27  N1S       17.2880   -5.4570   12.3630 N.2   601  KU8601     -0.0729
     28  N1Q       18.3380   -6.0460   12.6460 N.2   601  KU8601     -0.1418
@<TRIPOS>BOND
     1     5     6    1
     2     5     4    1
     3     6     7    1
     4     9     8    2
     5     7     8   am
     6     7     1    1
     7     8    10    1
     8     4     3    1
     9    13    12    1
    10     1     2    1
    11    22    21   ar
    12    22    23   ar
    13    10    12   ar
    14    10    11   ar
    15     3     2    1
    16    21    20   ar
    17    12    14   ar
    18    23    24   ar
    19    11    16   ar
    20    20    19   ar
    21    24    19   ar
    22    24    25    1
    23    14    15   ar
    24    26    25    2
    25    19    18    1
    26    25    27    2
    27    16    15   ar
    28    16    17    1
    29    18    17    1
    30    18    28    2
    31    27    28    1
