@<TRIPOS>MOLECULE
3c4c_324_A_1.pdb
 27 29 0 0 0
SMALL
GASTEIGER

@<TRIPOS>ATOM
      1  O24       -4.9300   -2.6560  -21.3920 O.2     2  3242       -0.1529
      2  S22       -4.4630   -3.4370  -20.2600 S.O2    2  3242        0.0732
      3  O23       -5.2050   -4.6600  -20.3320 O.2     2  3242       -0.1529
      4  C25       -4.7770   -2.7140  -18.7850 C.3     2  3242        0.1744
      5  C26       -5.1750   -3.6900  -17.6690 C.3     2  3242        0.0274
      6  C27       -5.0620   -3.0160  -16.3040 C.3     2  3242        0.0019
      7  N21       -2.8560   -3.5970  -20.2590 N.pl3   2  3242       -0.0984
      8  C17       -2.0110   -2.5600  -20.4210 C.ar    2  3242        0.1182
      9  C18       -0.5660   -2.8310  -20.5270 C.ar    2  3242        0.1619
     10  F20        0.0170   -4.0260  -20.4260 F       2  3242       -0.2026
     11  C16       -2.4240   -1.2300  -20.5410 C.ar    2  3242        0.0226
     12  C15       -1.5490   -0.1610  -20.7450 C.ar    2  3242        0.0313
     13  C14       -0.1950   -0.3640  -20.8320 C.ar    2  3242        0.1454
     14  F19        0.6350    0.6460  -21.0170 F       2  3242       -0.2040
     15  C13        0.3280   -1.7210  -20.7330 C.ar    2  3242        0.0952
     16  C11        1.7420   -2.0930  -20.7980 C.2     2  3242        0.2021
     17  O12        2.0980   -2.7490  -21.7650 O.2     2  3242       -0.2863
     18  C9         2.5320   -1.7250  -19.6050 C.2     2  3242        0.0684
     19  C8         2.0430   -1.3310  -18.3430 C.2     2  3242        0.1134
     20  C2         4.0200   -1.7500  -19.5440 C.2     2  3242        0.0679
     21  C1         5.0870   -2.0390  -20.3770 C.2     2  3242        0.0231
     22  C3         4.2550   -1.3470  -18.1930 C.1     2  3242        0.0355
     23  N7         3.0940   -1.0930  -17.5030 N.2     2  3242       -0.1921
     24  N4         5.5020   -1.2280  -17.7240 N.2     2  3242       -0.1914
     25  C5         6.5440   -1.5020  -18.5040 C.2     2  3242        0.1209
     26  C6         6.3880   -1.9110  -19.8260 C.2     2  3242        0.0782
     27 CL10        7.8480   -2.2160  -20.7020 Cl      2  3242       -0.0806
@<TRIPOS>BOND
     1    17    16    2
     2     1     2    2
     3    14    13    1
     4    13    12   ar
     5    13    15   ar
     6    16    15    1
     7    16    18    1
     8    12    11   ar
     9    15     9   ar
    10    27    26    1
    11    11     8   ar
    12     9    10    1
    13     9     8   ar
    14     8     7    1
    15    21    26    1
    16    21    20    2
    17     3     2    2
    18     2     7    1
    19     2     4    1
    20    26    25    2
    21    18    20    1
    22    18    19    2
    23    20    22    1
    24     4     5    1
    25    25    24    1
    26    19    23    1
    27    22    24    2
    28    22    23    2
    29     5     6    1
