@<TRIPOS>MOLECULE
3c4e_C4E_A_1.pdb
 16 18 0 0 0
SMALL
GASTEIGER

@<TRIPOS>ATOM
      1  N10        9.0550   88.0510   25.4520 N.pl3 306  C4E306     -0.2102
      2  C11       10.3250   88.4900   25.8520 C.ar  306  C4E306      0.0706
      3  C12       10.7490   88.5510   27.1850 C.ar  306  C4E306      0.0165
      4  C13       12.0430   88.9900   27.4910 C.ar  306  C4E306      0.0013
      5  C14       12.9050   89.3740   26.4640 C.ar  306  C4E306      0.0001
      6  C15       12.4930   89.3250   25.1320 C.ar  306  C4E306      0.0013
      7  C16       11.2060   88.8800   24.8280 C.ar  306  C4E306      0.0165
      8  C7         7.8490   87.9070   26.0520 C.2   306  C4E306      0.0996
      9  C6         7.4710   87.9900   27.3800 C.2   306  C4E306      0.1267
     10  C8         6.7010   87.6190   25.2720 C.2   306  C4E306      0.0792
     11  C9         6.4510   87.4270   23.8940 C.2   306  C4E306      0.0130
     12  C4         5.6340   87.5300   26.1610 C.1   306  C4E306      0.0366
     13  N5         6.1080   87.7650   27.4260 N.2   306  C4E306     -0.1908
     14  N3         4.3490   87.2780   25.8380 N.2   306  C4E306     -0.1922
     15  C2         4.1560   87.1040   24.5010 C.2   306  C4E306      0.1096
     16  C1         5.1360   87.1550   23.5070 C.2   306  C4E306      0.0222
@<TRIPOS>BOND
     1    16    11    1
     2    16    15    2
     3    11    10    2
     4    15    14    1
     5     7     6   ar
     6     7     2   ar
     7     6     5   ar
     8    10     8    1
     9    10    12    1
    10     1     2    1
    11     1     8    1
    12    14    12    2
    13     2     3   ar
    14     8     9    2
    15    12    13    2
    16     5     4   ar
    17     3     4   ar
    18     9    13    1
