@<TRIPOS>MOLECULE
3c4f_C4F_A_1.pdb
 18 20 0 0 0
SMALL
GASTEIGER

@<TRIPOS>ATOM
      1  C15        5.4000    2.0210   12.8800 C.3     1  C4F1        0.2525
      2  O14        6.2850    2.5130   13.8960 O.3     1  C4F1       -0.4714
      3  C13        5.8310    3.4370   14.8170 C.ar    1  C4F1        0.1384
      4  C16        4.6520    4.1380   14.6250 C.ar    1  C4F1        0.0369
      5  C17        4.2060    5.0210   15.5990 C.ar    1  C4F1        0.0028
      6  C18        4.9500    5.2000   16.7580 C.ar    1  C4F1       -0.0037
      7  C12        6.5540    3.6050   15.9860 C.ar    1  C4F1        0.0330
      8  C11        6.1250    4.4960   16.9510 C.ar    1  C4F1       -0.0147
      9  C10        6.9400    4.6490   18.2150 C.3     1  C4F1        0.0550
     10  C9         6.5410    3.5140   19.1600 C.2     1  C4F1        0.0115
     11  C1         7.0870    3.2210   20.5030 C.2     1  C4F1        0.0603
     12  C8         5.6180    2.5630   18.9920 C.2     1  C4F1        0.1063
     13  N7         5.5370    1.7580   19.9970 N.2     1  C4F1       -0.1925
     14  C6         6.4020    2.1390   20.9460 C.1     1  C4F1        0.0350
     15  N5         6.6240    1.5970   22.1430 N.2     1  C4F1       -0.1922
     16  C4         7.5770    2.1380   22.9120 C.2     1  C4F1        0.1096
     17  C3         8.3000    3.2620   22.4950 C.2     1  C4F1        0.0221
     18  C2         8.0430    3.8480   21.2630 C.2     1  C4F1        0.0114
@<TRIPOS>BOND
     1     1     2    1
     2     2     3    1
     3     4     3   ar
     4     4     5   ar
     5     3     7   ar
     6     5     6   ar
     7     7     8   ar
     8     6     8   ar
     9     8     9    1
    10     9    10    1
    11    12    10    2
    12    12    13    1
    13    10    11    1
    14    13    14    2
    15    11    14    1
    16    11    18    2
    17    14    15    2
    18    18    17    1
    19    15    16    1
    20    17    16    2
