@<TRIPOS>MOLECULE
3c4h_DRL_A_1.pdb
 12 13 0 0 0
SMALL
GASTEIGER

@<TRIPOS>ATOM
      1  C1A       18.8570   -4.5790   12.9770 C.3   601  DRL601      0.1438
      2  C1I       17.9110   -5.5950   12.3240 C.1   601  DRL601      0.1259
      3  N1G       18.3250   -6.8280   12.0190 N.2   601  DRL601     -0.3503
      4  C1J       17.5340   -7.7520   11.4420 C.2   601  DRL601      0.1168
      5  C1D       18.2410   -9.1000   11.2240 C.3   601  DRL601      0.0682
      6  C1C       17.2680  -10.2610   10.9910 C.3   601  DRL601      0.0647
      7  S1H       16.1370   -9.8170    9.6400 S.3   601  DRL601     -0.1382
      8  C1E       15.2410   -8.4560   10.4850 C.3   601  DRL601      0.0821
      9  C1K       16.1980   -7.4470   11.1360 C.3   601  DRL601      0.1783
     10  C1L       15.7590   -6.1580   11.4460 C.1   601  DRL601      0.1963
     11  O1B       14.6070   -5.7980   11.2110 O.2   601  DRL601     -0.2130
     12  N1F       16.6040   -5.2450   12.0510 N.2   601  DRL601     -0.2745
@<TRIPOS>BOND
     1     7     8    1
     2     7     6    1
     3     8     9    1
     4     6     5    1
     5     9     4    1
     6     9    10    1
     7    11    10    2
     8     5     4    1
     9     4     3    2
    10    10    12    2
    11     3     2    2
    12    12     2    2
    13     2     1    1
