@<TRIPOS>MOLECULE
3c4j_AGS_A_1.pdb
 31 33 0 0 0
SMALL
GASTEIGER

@<TRIPOS>ATOM
      1  PG        15.7090   25.1470    3.2310 P.3   602  AGS602      0.4340
      2  S1G       14.0700   23.9160    2.9840 S.3   602  AGS602      0.0416
      3  O2G       15.2260   26.3360    4.0310 O.3   602  AGS602     -0.1305
      4  O3G       16.2870   25.4260    1.8580 O.2   602  AGS602     -0.2423
      5  PB        16.5780   23.2200    5.1900 P.3   602  AGS602      0.2262
      6  O1B       15.4470   22.3290    4.7330 O.2   602  AGS602     -0.5168
      7  O2B       16.4490   23.8620    6.5430 O.3   602  AGS602     -0.4369
      8  O3B       16.8520   24.4000    4.1120 O.3   602  AGS602     -0.2405
      9  PA        18.1550   20.9590    4.3740 P.3   602  AGS602      0.2189
     10  O1A       17.5780   21.0470    2.9810 O.2   602  AGS602     -0.5170
     11  O2A       17.6730   19.8450    5.2650 O.3   602  AGS602     -0.4371
     12  O3A       17.9790   22.3930    5.1160 O.3   602  AGS602     -0.2701
     13  O5'       19.7330   20.7460    4.1720 O.3   602  AGS602     -0.3112
     14  C5'       20.7140   21.4310    4.9450 C.3   602  AGS602      0.1813
     15  C4'       22.0590   21.4480    4.2150 C.3   602  AGS602      0.1821
     16  O4'       22.4040   20.1440    3.7360 O.3   602  AGS602     -0.3135
     17  C3'       22.0570   22.3800    3.0110 C.3   602  AGS602      0.2184
     18  O3'       23.2190   23.2060    3.0920 O.3   602  AGS602     -0.2174
     19  C2'       22.1370   21.4700    1.7990 C.3   602  AGS602      0.2570
     20  O2'       22.9220   22.0530    0.7450 O.3   602  AGS602     -0.2130
     21  C1'       22.7530   20.1880    2.3480 C.3   602  AGS602      0.3186
     22  N9        22.2300   18.9660    1.6870 N.pl3 602  AGS602     -0.1439
     23  C8        20.9770   18.4800    1.8140 C.3   602  AGS602      0.3377
     24  N7        20.8110   17.3420    1.0940 N.2   602  AGS602     -0.2095
     25  C5        21.9830   17.0810    0.4900 C.2   602  AGS602      0.2526
     26  C6        22.4940   16.0250   -0.4170 C.2   602  AGS602      0.4393
     27  N6        21.6840   15.0090   -0.8210 N.pl3 602  AGS602      0.2180
     28  N1        23.7920   16.1170   -0.8170 N.2   602  AGS602      0.0021
     29  C2        24.5980   17.1290   -0.4230 C.3   602  AGS602      0.5254
     30  N3        24.1940   18.1220    0.3990 N.2   602  AGS602     -0.0055
     31  C4        22.9210   18.1510    0.8830 C.2   602  AGS602      0.3518
@<TRIPOS>BOND
     1    27    26    1
     2    28    29    1
     3    28    26    2
     4    29    30    1
     5    26    25    1
     6    30    31    2
     7    25    31    1
     8    25    24    2
     9    20    19    1
    10    31    22    1
    11    24    23    1
    12    22    23    1
    13    22    21    1
    14    19    21    1
    15    19    17    1
    16     4     1    2
    17    21    16    1
    18    10     9    2
    19     2     1    1
    20    17    18    1
    21    17    15    1
    22     1     3    1
    23     1     8    1
    24    16    15    1
    25     8     5    1
    26    13     9    1
    27    13    14    1
    28    15    14    1
    29     9    12    1
    30     9    11    1
    31     6     5    2
    32    12     5    1
    33     5     7    1
