@<TRIPOS>MOLECULE
3c4m_MAL_A_1.pdb
 23 24 0 0 0
SMALL
GASTEIGER

@<TRIPOS>ATOM
      1  C1         6.4120   36.8700   35.6370 C.3   194  MAL194      0.2695
      2  C2         5.3140   37.9140   35.8500 C.3   194  MAL194      0.2406
      3  C3         5.3790   38.9630   34.7530 C.3   194  MAL194      0.2198
      4  C4         6.7430   39.6170   34.7960 C.3   194  MAL194      0.2144
      5  C5         7.8400   38.5500   34.6360 C.3   194  MAL194      0.1835
      6  C6         9.2290   39.1570   34.8370 C.3   194  MAL194      0.2142
      7  O1         6.1950   36.2350   34.4000 O.3   194  MAL194     -0.3257
      8  O2         4.0580   37.2770   35.8580 O.3   194  MAL194     -0.2149
      9  O3         4.3860   39.9260   34.9840 O.3   194  MAL194     -0.2174
     10  O4         6.7990   40.5820   33.7830 O.3   194  MAL194     -0.2176
     11  O5         7.6580   37.5500   35.6190 O.3   194  MAL194     -0.3256
     12  O6        10.2440   38.3000   34.3170 O.3   194  MAL194     -0.2176
     13  C1'        6.0740   32.3490   32.9460 C.3   194  MAL194      0.3023
     14  C2'        5.2480   32.6600   34.1990 C.3   194  MAL194      0.2433
     15  C3'        5.0940   34.1670   34.4290 C.3   194  MAL194      0.2168
     16  C4'        6.4550   34.8570   34.3220 C.3   194  MAL194      0.1804
     17  C5'        7.1430   34.5020   32.9970 C.3   194  MAL194      0.1804
     18  C6'        8.5410   35.1160   32.9160 C.3   194  MAL194      0.2141
     19  O1'        5.3220   32.6110   31.7920 O.3   194  MAL194     -0.1869
     20  O2'        3.9430   32.1380   34.0260 O.3   194  MAL194     -0.2148
     21  O3'        4.4740   34.4190   35.6830 O.3   194  MAL194     -0.2175
     22  O5'        7.2850   33.0860   32.9140 O.3   194  MAL194     -0.3237
     23  O6'        8.9310   35.1890   31.5670 O.3   194  MAL194     -0.2176
@<TRIPOS>BOND
     1    23    18    1
     2    19    13    1
     3    22    13    1
     4    22    17    1
     5    18    17    1
     6    13    14    1
     7    17    16    1
     8    10     4    1
     9    20    14    1
    10    14    15    1
    11    12     6    1
    12    16     7    1
    13    16    15    1
    14     7     1    1
    15    15    21    1
    16     5     4    1
    17     5     6    1
    18     5    11    1
    19     3     4    1
    20     3     9    1
    21     3     2    1
    22    11     1    1
    23     1     2    1
    24     2     8    1
