@<TRIPOS>MOLECULE
3c4n_ADP_A_1.pdb
 27 29 0 0 0
SMALL
GASTEIGER

@<TRIPOS>ATOM
      1  PB        64.6420   28.1040   88.4700 P.3   411  ADP411      0.5373
      2  O1B       64.6840   26.6510   88.3070 O.3   411  ADP411     -0.1143
      3  O2B       63.2330   28.6920   87.9910 O.3   411  ADP411     -0.1143
      4  O3B       65.8270   28.8000   87.6210 O.2   411  ADP411     -0.2221
      5  PA        65.6010   29.7580   90.3040 P.3   411  ADP411      0.2231
      6  O1A       66.9720   29.3870   90.7030 O.3   411  ADP411     -0.4370
      7  O2A       65.6770   30.7470   89.0240 O.2   411  ADP411     -0.5169
      8  O3A       64.7250   28.4500   89.9930 O.3   411  ADP411     -0.2261
      9  O5'       64.7260   30.3700   91.4950 O.3   411  ADP411     -0.3111
     10  C5'       64.0940   29.3120   92.1470 C.3   411  ADP411      0.1813
     11  C4'       63.6710   29.7210   93.5330 C.3   411  ADP411      0.1821
     12  O4'       63.6300   28.8850   94.7190 O.3   411  ADP411     -0.3135
     13  C3'       64.7510   30.7390   93.7300 C.3   411  ADP411      0.2184
     14  O3'       64.3750   31.9730   93.1170 O.3   411  ADP411     -0.2174
     15  C2'       64.9300   30.8350   95.2470 C.3   411  ADP411      0.2570
     16  O2'       64.7200   32.1870   95.6880 O.3   411  ADP411     -0.2130
     17  C1'       63.8890   29.8210   95.7980 C.3   411  ADP411      0.3186
     18  N9        64.3700   28.9540   96.8250 N.pl3 411  ADP411     -0.1439
     19  C8        65.5850   28.2530   96.7720 C.3   411  ADP411      0.3377
     20  N7        65.7420   27.5740   97.8950 N.2   411  ADP411     -0.2095
     21  C5        64.6520   27.7590   98.6860 C.2   411  ADP411      0.2526
     22  C6        64.1860   27.2230   99.9150 C.2   411  ADP411      0.4393
     23  N6        64.7610   26.0530  100.4560 N.pl3 411  ADP411      0.2180
     24  N1        63.0210   27.6770  100.4290 N.2   411  ADP411      0.0021
     25  C2        62.2860   28.5880   99.7930 C.3   411  ADP411      0.5254
     26  N3        62.6210   29.0660   98.6510 N.2   411  ADP411     -0.0055
     27  C4        63.7710   28.6350   97.9890 C.2   411  ADP411      0.3518
@<TRIPOS>BOND
     1     4     1    2
     2     3     1    1
     3     2     1    1
     4     1     8    1
     5     7     5    2
     6     8     5    1
     7     5     6    1
     8     5     9    1
     9     9    10    1
    10    10    11    1
    11    14    13    1
    12    11    13    1
    13    11    12    1
    14    13    15    1
    15    12    17    1
    16    15    16    1
    17    15    17    1
    18    17    18    1
    19    19    18    1
    20    19    20    1
    21    18    27    1
    22    20    21    2
    23    27    26    2
    24    27    21    1
    25    26    25    1
    26    21    22    1
    27    25    24    1
    28    22    24    2
    29    22    23    1
