@<TRIPOS>MOLECULE
3c4q_UDP_A_1.pdb
 25 26 0 0 0
SMALL
GASTEIGER

@<TRIPOS>ATOM
      1  N1        81.5990   45.6080   12.4360 N.am  600  UDP600     -0.1996
      2  C2        81.8590   44.5220   11.6350 C.1   600  UDP600      0.2802
      3  N3        83.0340   44.4360   10.9370 N.2   600  UDP600     -0.2497
      4  C4        83.9360   45.4650   11.0450 C.1   600  UDP600      0.1941
      5  C5        83.6660   46.5740   11.8480 C.3   600  UDP600      0.1579
      6  C6        82.3830   46.7200   12.3630 C.3   600  UDP600      0.1249
      7  O2        81.0140   43.6210   11.5370 O.2   600  UDP600     -0.1922
      8  O4        84.9930   45.3890   10.4190 O.2   600  UDP600     -0.2133
      9  C1'       80.3110   45.6070   13.1420 C.3   600  UDP600      0.2361
     10  C2'       80.3740   45.3560   14.6490 C.3   600  UDP600      0.2316
     11  O2'       80.4070   43.9720   15.0190 O.3   600  UDP600     -0.2157
     12  C3'       79.1360   46.1060   15.1350 C.3   600  UDP600      0.2158
     13  C4'       78.7670   47.0560   13.9960 C.3   600  UDP600      0.1799
     14  O4'       79.7740   46.8840   13.0390 O.3   600  UDP600     -0.3322
     15  O3'       78.1020   45.1810   15.3710 O.3   600  UDP600     -0.2175
     16  C5'       78.8400   48.5540   14.2570 C.3   600  UDP600      0.1813
     17  O5'       78.2560   48.8280   15.5030 O.3   600  UDP600     -0.3111
     18  PA        78.1400   50.3660   16.0300 P.3   600  UDP600      0.2231
     19  O1A       77.1030   50.3600   17.1050 O.3   600  UDP600     -0.4370
     20  O2A       79.4100   50.9650   16.6000 O.2   600  UDP600     -0.5169
     21  O3A       77.6830   51.1360   14.6680 O.3   600  UDP600     -0.2261
     22  PB        76.2550   51.8240   14.8650 P.3   600  UDP600      0.5373
     23  O1B       76.4720   53.0810   15.5970 O.3   600  UDP600     -0.1143
     24  O2B       75.2870   50.9320   15.4970 O.3   600  UDP600     -0.1143
     25  O3B       75.6850   52.0390   13.5400 O.2   600  UDP600     -0.2221
@<TRIPOS>BOND
     1     8     4    2
     2     3     4    2
     3     3     2    2
     4     4     5    1
     5     7     2    2
     6     2     1   am
     7     5     6    1
     8     6     1    1
     9     1     9    1
    10    14     9    1
    11    14    13    1
    12     9    10    1
    13    25    22    2
    14    13    16    1
    15    13    12    1
    16    16    17    1
    17    10    11    1
    18    10    12    1
    19    21    22    1
    20    21    18    1
    21    22    24    1
    22    22    23    1
    23    12    15    1
    24    17    18    1
    25    18    20    2
    26    18    19    1
