@<TRIPOS>MOLECULE
3c4v_UDP_A_1.pdb
 25 26 0 0 0
SMALL
GASTEIGER

@<TRIPOS>ATOM
      1  N1        81.4960   45.6580   12.3420 N.am  600  UDP600     -0.1996
      2  C2        81.8310   44.5440   11.6250 C.1   600  UDP600      0.2802
      3  N3        83.0360   44.4940   10.9950 N.2   600  UDP600     -0.2497
      4  C4        83.9060   45.5520   11.0840 C.1   600  UDP600      0.1941
      5  C5        83.5480   46.6800   11.8130 C.3   600  UDP600      0.1579
      6  C6        82.2410   46.7960   12.2570 C.3   600  UDP600      0.1249
      7  O2        81.0410   43.6040   11.5290 O.2   600  UDP600     -0.1922
      8  O4        85.0010   45.4880   10.4980 O.2   600  UDP600     -0.2133
      9  C1'       80.2010   45.6330   13.0220 C.3   600  UDP600      0.2361
     10  C2'       80.4040   45.4030   14.5210 C.3   600  UDP600      0.2316
     11  O2'       80.4420   44.0080   14.7920 O.3   600  UDP600     -0.2157
     12  C3'       79.1840   46.0870   15.1230 C.3   600  UDP600      0.2158
     13  C4'       78.6970   47.0380   14.0200 C.3   600  UDP600      0.1799
     14  O4'       79.5480   46.8570   12.9170 O.3   600  UDP600     -0.3322
     15  O3'       78.1530   45.1560   15.3990 O.3   600  UDP600     -0.2175
     16  C5'       78.7680   48.5130   14.3710 C.3   600  UDP600      0.1813
     17  O5'       78.0710   48.6430   15.5950 O.3   600  UDP600     -0.3111
     18  PA        77.8520   50.1310   16.2390 P.3   600  UDP600      0.2231
     19  O1A       76.8360   50.0420   17.3380 O.3   600  UDP600     -0.4370
     20  O2A       79.1180   50.8000   16.7300 O.2   600  UDP600     -0.5169
     21  O3A       77.3880   50.8610   14.8670 O.3   600  UDP600     -0.2261
     22  PB        76.1030   51.7680   14.9550 P.3   600  UDP600      0.5373
     23  O1B       76.5710   53.1570   15.0020 O.3   600  UDP600     -0.1143
     24  O2B       75.2430   51.4610   16.0920 O.3   600  UDP600     -0.1143
     25  O3B       75.2840   51.3950   13.7930 O.2   600  UDP600     -0.2221
@<TRIPOS>BOND
     1     8     4    2
     2     3     4    2
     3     3     2    2
     4     4     5    1
     5     7     2    2
     6     2     1   am
     7     5     6    1
     8     6     1    1
     9     1     9    1
    10    14     9    1
    11    14    13    1
    12     9    10    1
    13    25    22    2
    14    13    16    1
    15    13    12    1
    16    16    17    1
    17    10    11    1
    18    10    12    1
    19    21    22    1
    20    21    18    1
    21    22    23    1
    22    22    24    1
    23    12    15    1
    24    17    18    1
    25    18    20    2
    26    18    19    1
