@<TRIPOS>MOLECULE
3c4v_LIP_B_1.pdb
 16 16 0 0 0
SMALL
GASTEIGER

@<TRIPOS>ATOM
      1  C1        99.5410   43.2520  -11.2770 C.3   601  LIP601      0.1919
      2  C2        98.8110   42.5440  -12.4590 C.3   601  LIP601      0.2148
      3  C3        97.3540   42.1470  -12.0790 C.3   601  LIP601      0.2174
      4  C4        97.3790   41.1790  -10.8710 C.3   601  LIP601      0.2175
      5  C5        98.0710   41.8480   -9.6650 C.3   601  LIP601      0.2174
      6  C6        99.4760   42.4080   -9.9760 C.3   601  LIP601      0.2148
      7  P1       101.9500   44.5660  -10.9780 P.3   601  LIP601      0.5327
      8  O1       100.9190   43.4880  -11.6540 O.3   601  LIP601     -0.2673
      9  O2        99.5660   41.3800  -12.8820 O.3   601  LIP601     -0.2176
     10  O3        96.6090   41.5990  -13.1950 O.3   601  LIP601     -0.2175
     11  O4        96.0600   40.7550  -10.4970 O.3   601  LIP601     -0.2175
     12  O5        98.1690   40.9050   -8.5970 O.3   601  LIP601     -0.2175
     13  O6        99.8740   43.1910   -8.8550 O.3   601  LIP601     -0.2176
     14  O7       103.2200   44.7990  -11.9840 O.2   601  LIP601     -0.2224
     15  O8       102.4510   44.0670   -9.6730 O.3   601  LIP601     -0.1145
     16  O9       101.1410   45.9930  -10.9060 O.3   601  LIP601     -0.1145
@<TRIPOS>BOND
     1    10     3    1
     2     9     2    1
     3     2     3    1
     4     2     1    1
     5     3     4    1
     6    14     7    2
     7     8     1    1
     8     8     7    1
     9     1     6    1
    10     7    16    1
    11     7    15    1
    12     4    11    1
    13     4     5    1
    14     6     5    1
    15     6    13    1
    16     5    12    1
