@<TRIPOS>MOLECULE
3c4w_ATP_A_1.pdb
 31 33 0 0 0
SMALL
GASTEIGER

@<TRIPOS>ATOM
      1  PG       -45.3120    4.2630   -6.5060 P.3   562  ATP562      0.5373
      2  O1G      -45.1430    5.7180   -6.8760 O.3   562  ATP562     -0.1143
      3  O2G      -44.6290    3.3870   -7.5020 O.2   562  ATP562     -0.2221
      4  O3G      -45.0710    3.8880   -5.0790 O.3   562  ATP562     -0.1143
      5  PB       -48.0950    4.9820   -6.4750 P.3   562  ATP562      0.2277
      6  O1B      -48.6110    4.8260   -5.0990 O.3   562  ATP562     -0.4368
      7  O2B      -47.7810    6.3710   -6.9350 O.2   562  ATP562     -0.5168
      8  O3B      -46.8800    3.9460   -6.6810 O.3   562  ATP562     -0.2258
      9  PA       -49.4310    4.5590   -8.9970 P.3   562  ATP562      0.2189
     10  O1A      -50.2590    5.8050   -9.0920 O.3   562  ATP562     -0.4371
     11  O2A      -48.1790    4.4300   -9.7740 O.2   562  ATP562     -0.5170
     12  O3A      -49.1570    4.2710   -7.4310 O.3   562  ATP562     -0.2700
     13  O5'      -50.3790    3.3000   -9.3100 O.3   562  ATP562     -0.3112
     14  C5'      -51.3040    2.8500   -8.3200 C.3   562  ATP562      0.1813
     15  C4'      -52.1820    1.6840   -8.7750 C.3   562  ATP562      0.1821
     16  O4'      -53.2590    2.1240   -9.6130 O.3   562  ATP562     -0.3135
     17  C3'      -51.4610    0.6610   -9.6290 C.3   562  ATP562      0.2184
     18  O3'      -52.1940   -0.5620   -9.5080 O.3   562  ATP562     -0.2174
     19  C2'      -51.5990    1.2140  -11.0400 C.3   562  ATP562      0.2570
     20  O2'      -51.3700    0.2150  -12.0280 O.3   562  ATP562     -0.2130
     21  C1'      -53.0100    1.7560  -10.9670 C.3   562  ATP562      0.3186
     22  N9       -53.2250    2.9920  -11.7190 N.pl3 562  ATP562     -0.1439
     23  C8       -52.5770    4.1740  -11.6330 C.3   562  ATP562      0.3377
     24  N7       -53.1260    5.1010  -12.4870 N.2   562  ATP562     -0.2095
     25  C5       -54.1500    4.4770  -13.1100 C.2   562  ATP562      0.2526
     26  C6       -55.1610    4.8040  -14.1110 C.2   562  ATP562      0.4393
     27  N6       -55.2100    6.0140  -14.6550 N.pl3 562  ATP562      0.2180
     28  N1       -56.0610    3.8860  -14.4690 N.2   562  ATP562      0.0021
     29  C2       -56.0630    2.6570  -13.9460 C.3   562  ATP562      0.5254
     30  N3       -55.1790    2.2740  -13.0230 N.2   562  ATP562     -0.0055
     31  C4       -54.2200    3.1130  -12.5860 C.2   562  ATP562      0.3518
@<TRIPOS>BOND
     1    27    26    1
     2    28    26    2
     3    28    29    1
     4    26    25    1
     5    29    30    1
     6    25    31    1
     7    25    24    2
     8    30    31    2
     9    31    22    1
    10    24    23    1
    11    20    19    1
    12    22    23    1
    13    22    21    1
    14    19    21    1
    15    19    17    1
    16    21    16    1
    17    11     9    2
    18    17    18    1
    19    17    15    1
    20    16    15    1
    21    13     9    1
    22    13    14    1
    23    10     9    1
    24     9    12    1
    25    15    14    1
    26     3     1    2
    27    12     5    1
    28     7     5    2
    29     2     1    1
    30     8     1    1
    31     8     5    1
    32     1     4    1
    33     5     6    1
