@<TRIPOS>MOLECULE
3c4x_ATP_A_1.pdb
 31 33 0 0 0
SMALL
GASTEIGER

@<TRIPOS>ATOM
      1  PG       -51.0180  -16.0860   -3.4150 P.3   562  ATP562      0.5373
      2  O1G      -49.6830  -15.4650   -3.6070 O.3   562  ATP562     -0.1143
      3  O2G      -52.1550  -15.2780   -3.9860 O.2   562  ATP562     -0.2221
      4  O3G      -51.0930  -17.5650   -3.6680 O.3   562  ATP562     -0.1143
      5  PB       -50.3130  -16.7400   -0.7650 P.3   562  ATP562      0.2277
      6  O1B      -50.6340  -18.1900   -0.7340 O.3   562  ATP562     -0.4368
      7  O2B      -48.9230  -16.2820   -1.0870 O.2   562  ATP562     -0.5168
      8  O3B      -51.2770  -16.0110   -1.8270 O.3   562  ATP562     -0.2258
      9  PA       -50.6810  -14.6470    1.2800 P.3   562  ATP562      0.2189
     10  O1A      -49.4710  -14.5480    2.1840 O.3   562  ATP562     -0.4371
     11  O2A      -50.9450  -13.5520    0.3030 O.2   562  ATP562     -0.5170
     12  O3A      -50.8030  -16.1500    0.6610 O.3   562  ATP562     -0.2700
     13  O5'      -51.9770  -14.6770    2.2120 O.3   562  ATP562     -0.3112
     14  C5'      -52.4210  -15.9170    2.7430 C.3   562  ATP562      0.1813
     15  C4'      -53.5370  -15.7160    3.7520 C.3   562  ATP562      0.1821
     16  O4'      -53.0170  -15.2080    4.9710 O.3   562  ATP562     -0.3135
     17  C3'      -54.5660  -14.7110    3.3040 C.3   562  ATP562      0.2184
     18  O3'      -55.8070  -15.0680    3.9120 O.3   562  ATP562     -0.2174
     19  C2'      -54.0330  -13.4150    3.8680 C.3   562  ATP562      0.2570
     20  O2'      -55.0200  -12.3960    4.0170 O.3   562  ATP562     -0.2130
     21  C1'      -53.5000  -13.8940    5.1980 C.3   562  ATP562      0.3186
     22  N9       -52.3050  -13.2230    5.7050 N.pl3 562  ATP562     -0.1439
     23  C8       -51.1100  -13.2220    5.0950 C.3   562  ATP562      0.3377
     24  N7       -50.2050  -12.5540    5.8420 N.2   562  ATP562     -0.2095
     25  C5       -50.8420  -12.1410    6.9480 C.2   562  ATP562      0.2526
     26  C6       -50.4650  -11.3850    8.1430 C.2   562  ATP562      0.4393
     27  N6       -49.2010  -10.9700    8.2390 N.pl3 562  ATP562      0.2180
     28  N1       -51.4060  -11.1340    9.0810 N.2   562  ATP562      0.0021
     29  C2       -52.6720  -11.5780    8.9360 C.3   562  ATP562      0.5254
     30  N3       -53.0840  -12.2860    7.8620 N.2   562  ATP562     -0.0055
     31  C4       -52.2290  -12.5880    6.8600 C.2   562  ATP562      0.3518
@<TRIPOS>BOND
     1     3     1    2
     2     4     1    1
     3     2     1    1
     4     1     8    1
     5     8     5    1
     6     7     5    2
     7     5     6    1
     8     5    12    1
     9    11     9    2
    10    12     9    1
    11     9    10    1
    12     9    13    1
    13    13    14    1
    14    14    15    1
    15    17    15    1
    16    17    19    1
    17    17    18    1
    18    15    16    1
    19    19    20    1
    20    19    21    1
    21    16    21    1
    22    23    22    1
    23    23    24    1
    24    21    22    1
    25    22    31    1
    26    24    25    2
    27    31    25    1
    28    31    30    2
    29    25    26    1
    30    30    29    1
    31    26    27    1
    32    26    28    2
    33    29    28    1
