@<TRIPOS>MOLECULE
3c4z_ADP_A_1.pdb
 27 29 0 0 0
SMALL
GASTEIGER

@<TRIPOS>ATOM
      1  PB       -30.1670  -23.8500   17.1670 P.3   562  ADP562      0.5373
      2  O1B      -31.5170  -24.3360   17.5900 O.3   562  ADP562     -0.1143
      3  O2B      -29.1190  -24.8940   17.3990 O.3   562  ADP562     -0.1143
      4  O3B      -30.1680  -23.1580   15.8500 O.2   562  ADP562     -0.2221
      5  PA       -28.7450  -21.5520   18.2610 P.3   562  ADP562      0.2231
      6  O1A      -27.5190  -21.9990   19.0410 O.3   562  ADP562     -0.4370
      7  O2A      -28.4570  -21.0200   16.9060 O.2   562  ADP562     -0.5169
      8  O3A      -29.8820  -22.6720   18.2360 O.3   562  ADP562     -0.2261
      9  O5'      -29.4490  -20.4060   19.1070 O.3   562  ADP562     -0.3111
     10  C5'      -30.6720  -19.7580   18.7100 C.3   562  ADP562      0.1813
     11  C4'      -30.5210  -18.2410   18.7630 C.3   562  ADP562      0.1821
     12  O4'      -30.3270  -17.7780   20.0990 O.3   562  ADP562     -0.3135
     13  C3'      -29.3490  -17.6750   17.9850 C.3   562  ADP562      0.2184
     14  O3'      -29.6770  -17.5040   16.6120 O.3   562  ADP562     -0.2174
     15  C2'      -29.0590  -16.3720   18.6880 C.3   562  ADP562      0.2570
     16  O2'      -29.9630  -15.3700   18.2460 O.3   562  ADP562     -0.2130
     17  C1'      -29.3830  -16.7070   20.1250 C.3   562  ADP562      0.3186
     18  N9       -28.1540  -17.1670   20.8010 N.pl3 562  ADP562     -0.1439
     19  C8       -27.6010  -18.3820   20.7450 C.3   562  ADP562      0.3377
     20  N7       -26.4870  -18.4670   21.4930 N.2   562  ADP562     -0.2095
     21  C5       -26.3300  -17.2260   22.0180 C.2   562  ADP562      0.2526
     22  C6       -25.3680  -16.6140   22.9260 C.2   562  ADP562      0.4393
     23  N6       -24.3330  -17.3590   23.3490 N.pl3 562  ADP562      0.2180
     24  N1       -25.5400  -15.3200   23.2430 N.2   562  ADP562      0.0021
     25  C2       -26.5790  -14.6010   22.8140 C.3   562  ADP562      0.5254
     26  N3       -27.5130  -15.0850   21.9800 N.2   562  ADP562     -0.0055
     27  C4       -27.4300  -16.3870   21.5950 C.2   562  ADP562      0.3518
@<TRIPOS>BOND
     1     4     1    2
     2    14    13    1
     3     7     5    2
     4     1     3    1
     5     1     2    1
     6     1     8    1
     7    13    15    1
     8    13    11    1
     9     8     5    1
    10    16    15    1
    11     5     6    1
    12     5     9    1
    13    15    17    1
    14    10    11    1
    15    10     9    1
    16    11    12    1
    17    12    17    1
    18    17    18    1
    19    19    18    1
    20    19    20    1
    21    18    27    1
    22    20    21    2
    23    27    26    2
    24    27    21    1
    25    26    25    1
    26    21    22    1
    27    25    24    1
    28    22    24    2
    29    22    23    1
