@<TRIPOS>MOLECULE
3c50_ADP_A_1.pdb
 27 29 0 0 0
SMALL
GASTEIGER

@<TRIPOS>ATOM
      1  PB         7.8990   46.6020  -18.4170 P.3   562  ADP562      0.5373
      2  O1B        9.3200   47.0690  -18.5250 O.3   562  ADP562     -0.1143
      3  O2B        7.6280   45.8680  -17.1320 O.3   562  ADP562     -0.1143
      4  O3B        6.8790   47.6670  -18.7100 O.2   562  ADP562     -0.2221
      5  PA         6.4070   44.8340  -20.1750 P.3   562  ADP562      0.2231
      6  O1A        6.1780   43.5020  -19.4810 O.3   562  ADP562     -0.4370
      7  O2A        5.2600   45.8010  -20.2550 O.2   562  ADP562     -0.5169
      8  O3A        7.7840   45.5210  -19.6220 O.3   562  ADP562     -0.2261
      9  O5'        6.8960   44.5250  -21.6620 O.3   562  ADP562     -0.3111
     10  C5'        7.4130   45.5660  -22.4860 C.3   562  ADP562      0.1813
     11  C4'        6.7220   45.5400  -23.8380 C.3   562  ADP562      0.1821
     12  O4'        6.9770   44.2980  -24.5060 O.3   562  ADP562     -0.3135
     13  C3'        5.2180   45.6310  -23.7290 C.3   562  ADP562      0.2184
     14  O3'        4.8030   46.9910  -23.7110 O.3   562  ADP562     -0.2174
     15  C2'        4.7720   44.8590  -24.9480 C.3   562  ADP562      0.2570
     16  O2'        4.8940   45.6370  -26.1320 O.3   562  ADP562     -0.2130
     17  C1'        5.7870   43.7540  -25.0770 C.3   562  ADP562      0.3186
     18  N9         5.2820   42.5360  -24.3790 N.pl3 562  ADP562     -0.1439
     19  C8         5.2940   42.2810  -23.0500 C.3   562  ADP562      0.3377
     20  N7         4.7340   41.0830  -22.7750 N.2   562  ADP562     -0.2095
     21  C5         4.3500   40.5640  -23.9440 C.2   562  ADP562      0.2526
     22  C6         3.6900   39.3400  -24.3740 C.2   562  ADP562      0.4393
     23  N6         3.3460   38.4240  -23.4680 N.pl3 562  ADP562      0.2180
     24  N1         3.4630   39.1520  -25.6840 N.2   562  ADP562      0.0021
     25  C2         3.8150   40.0580  -26.6040 C.3   562  ADP562      0.5254
     26  N3         4.4020   41.2070  -26.2670 N.2   562  ADP562     -0.0055
     27  C4         4.7000   41.5080  -24.9880 C.2   562  ADP562      0.3518
@<TRIPOS>BOND
     1    25    26    1
     2    25    24    1
     3    26    27    2
     4    16    15    1
     5    24    22    2
     6    17    15    1
     7    17    12    1
     8    17    18    1
     9    27    18    1
    10    27    21    1
    11    15    13    1
    12    12    11    1
    13    18    19    1
    14    22    21    1
    15    22    23    1
    16    21    20    2
    17    11    13    1
    18    11    10    1
    19    13    14    1
    20    19    20    1
    21    10     9    1
    22     9     5    1
    23     7     5    2
    24     5     8    1
    25     5     6    1
    26     8     1    1
    27     4     1    2
    28     2     1    1
    29     1     3    1
