@<TRIPOS>MOLECULE
3c51_ADP_A_1.pdb
 27 29 0 0 0
SMALL
GASTEIGER

@<TRIPOS>ATOM
      1  PB         9.0900    8.7280  -11.4870 P.3   562  ADP562      0.5373
      2  O1B       10.4600    8.6040  -10.8600 O.3   562  ADP562     -0.1143
      3  O2B        8.7720    7.6410  -12.4820 O.2   562  ADP562     -0.2221
      4  O3B        7.9800    8.9920  -10.4970 O.3   562  ADP562     -0.1143
      5  PA         7.9750   10.6200  -13.2660 P.3   562  ADP562      0.2231
      6  O1A        7.7850    9.6930  -14.4360 O.2   562  ADP562     -0.5169
      7  O2A        6.8050   10.9610  -12.3710 O.3   562  ADP562     -0.4370
      8  O3A        9.2030   10.0690  -12.3800 O.3   562  ADP562     -0.2261
      9  O5'        8.5160   12.0100  -13.8510 O.3   562  ADP562     -0.3111
     10  C5'        9.0760   12.9780  -12.9710 C.3   562  ADP562      0.1813
     11  C4'        8.5460   14.3740  -13.2690 C.3   562  ADP562      0.1821
     12  O4'        8.8860   14.7510  -14.6040 O.3   562  ADP562     -0.3135
     13  C3'        7.0360   14.4660  -13.1460 C.3   562  ADP562      0.2184
     14  O3'        6.6570   14.9370  -11.8540 O.3   562  ADP562     -0.2174
     15  C2'        6.6470   15.4450  -14.2260 C.3   562  ADP562      0.2570
     16  O2'        6.5520   16.7720  -13.6980 O.3   562  ADP562     -0.2130
     17  C1'        7.7660   15.3530  -15.2520 C.3   562  ADP562      0.3186
     18  N9         7.3040   14.5380  -16.4110 N.pl3 562  ADP562     -0.1439
     19  C8         7.2710   13.1960  -16.4930 C.3   562  ADP562      0.3377
     20  N7         6.7770   12.8070  -17.6910 N.2   562  ADP562     -0.2095
     21  C5         6.4850   13.9060  -18.3920 C.2   562  ADP562      0.2526
     22  C6         5.9360   14.2040  -19.7260 C.2   562  ADP562      0.4393
     23  N6         5.5980   13.2010  -20.5570 N.pl3 562  ADP562      0.2180
     24  N1         5.7860   15.4950  -20.0900 N.2   562  ADP562      0.0021
     25  C2         6.1270   16.5000  -19.2650 C.3   562  ADP562      0.5254
     26  N3         6.6270   16.2970  -18.0330 N.2   562  ADP562     -0.0055
     27  C4         6.8270   15.0470  -17.5490 C.2   562  ADP562      0.3518
@<TRIPOS>BOND
     1    23    22    1
     2    24    22    2
     3    24    25    1
     4    22    21    1
     5    25    26    1
     6    21    20    2
     7    21    27    1
     8    26    27    2
     9    20    19    1
    10    27    18    1
    11    19    18    1
    12    18    17    1
    13    17    12    1
    14    17    15    1
    15    12    11    1
    16     6     5    2
    17    15    16    1
    18    15    13    1
    19     9     5    1
    20     9    10    1
    21    11    13    1
    22    11    10    1
    23     5     8    1
    24     5     7    1
    25    13    14    1
    26     3     1    2
    27     8     1    1
    28     1     2    1
    29     1     4    1
