@<TRIPOS>MOLECULE
3c52_PGH_A_1.pdb
 10 9 0 0 0
SMALL
GASTEIGER

@<TRIPOS>ATOM
      1  C1         2.5700    1.6100    5.0970 C.2   404  PGH404      0.1177
      2  C2         1.9770    2.7250    5.9670 C.3   404  PGH404      0.2044
      3  N2         2.9480    0.3380    5.7000 N.am  404  PGH404     -0.2004
      4  O2         4.1540   -0.2820    5.3340 O.3   404  PGH404     -0.4026
      5  O1         2.7210    1.7830    3.9320 O.2   404  PGH404     -0.5374
      6  O1P        1.7490    3.8650    5.1780 O.3   404  PGH404     -0.2633
      7  O2P        0.2310    6.0680    4.8180 O.2   404  PGH404     -0.2224
      8  O3P        0.3060    4.8640    7.2280 O.3   404  PGH404     -0.1145
      9  O4P        2.3180    6.0950    6.2730 O.3   404  PGH404     -0.1145
     10  P          1.1870    5.2510    5.8870 P.3   404  PGH404      0.5330
@<TRIPOS>BOND
     1     5     1    2
     2     7    10    2
     3     1     3   am
     4     1     2    1
     5     6    10    1
     6     6     2    1
     7     4     3    1
     8    10     9    1
     9    10     8    1
