@<TRIPOS>MOLECULE
3c56_PH4_A_1.pdb
 18 17 0 0 0
SMALL
GASTEIGER

@<TRIPOS>ATOM
      1  N3        -3.4260   -4.5140   -5.5940 N.am  309  PH4309     -0.2824
      2  C4        -3.9850   -5.2340   -6.7380 C.3   309  PH4309      0.1003
      3  C5        -5.5230   -5.2930   -6.6130 C.3   309  PH4309      0.0547
      4  C6        -6.1020   -6.1650   -7.7430 C.3   309  PH4309      0.1555
      5  O62       -7.4110   -7.7140   -9.8340 O.3   309  PH4309     -0.1145
      6  P6        -8.0550   -6.2300   -9.5150 P.3   309  PH4309      0.5326
      7  O63       -8.0840   -5.3350  -10.8970 O.2   309  PH4309     -0.2224
      8  O61       -9.4150   -6.3880   -9.0100 O.3   309  PH4309     -0.1145
      9  O6        -7.1340   -5.4650   -8.3850 O.3   309  PH4309     -0.2702
     10  O3        -3.6690   -4.9730   -4.2880 O.3   309  PH4309     -0.4197
     11  C2        -2.6120   -3.3170   -5.8070 C.2   309  PH4309      0.0984
     12  O2        -2.1580   -2.7330   -4.8760 O.2   309  PH4309     -0.5387
     13  C1        -2.3440   -2.8130   -7.2350 C.3   309  PH4309      0.2026
     14  O1        -1.3840   -1.7920   -7.1970 O.3   309  PH4309     -0.2633
     15  P1        -0.8590   -1.1120   -8.6110 P.3   309  PH4309      0.5330
     16  O12       -2.1540   -0.7840   -9.5770 O.2   309  PH4309     -0.2224
     17  O13        0.1530   -2.1610   -9.3830 O.3   309  PH4309     -0.1145
     18  O11       -0.1450    0.1260   -8.3220 O.3   309  PH4309     -0.1145
@<TRIPOS>BOND
     1     7     6    2
     2     5     6    1
     3    16    15    2
     4     6     8    1
     5     6     9    1
     6    17    15    1
     7    15    18    1
     8    15    14    1
     9     9     4    1
    10     4     3    1
    11    13    14    1
    12    13    11    1
    13     2     3    1
    14     2     1    1
    15    11     1   am
    16    11    12    2
    17     1    10    1
