@<TRIPOS>MOLECULE
3c59_10M_A_1.pdb
 33 34 0 0 0
SMALL
GASTEIGER

@<TRIPOS>ATOM
      1  O10        5.7450   56.3850   -2.7250 O.3     1  10M1       -0.2167
      2  C22        5.4470   54.9870   -2.7510 C.3     1  10M1        0.2218
      3  C21        6.6520   54.1740   -3.2150 C.3     1  10M1        0.2149
      4  O9         7.6940   54.2890   -2.2540 O.3     1  10M1       -0.2176
      5  C14        6.3250   52.6930   -3.3480 C.3     1  10M1        0.1803
      6  O3         7.4650   52.0940   -3.9690 O.3     1  10M1       -0.3257
      7  C15        7.8040   50.7520   -3.5940 C.3     1  10M1        0.2695
      8  C20        9.3360   50.5960   -3.6800 C.3     1  10M1        0.2406
      9  O8         9.9640   51.7990   -3.2060 O.3     1  10M1       -0.2149
     10  C19        9.8830   50.3160   -5.0930 C.3     1  10M1        0.2198
     11  O7        11.1780   49.7180   -4.9770 O.3     1  10M1       -0.2174
     12  C18        8.9570   49.4280   -5.9430 C.3     1  10M1        0.2144
     13  O6         9.3650   49.3290   -7.3160 O.3     1  10M1       -0.2176
     14  C16        7.5410   50.0030   -5.8530 C.3     1  10M1        0.1835
     15  C17        6.5700   49.4230   -6.8900 C.3     1  10M1        0.2142
     16  O5         6.6790   50.1110   -8.1550 O.3     1  10M1       -0.2176
     17  O4         7.1260   49.8290   -4.4790 O.3     1  10M1       -0.3256
     18  C12        5.0480   52.4650   -4.1770 C.3     1  10M1        0.1788
     19  C13        4.5000   51.0610   -3.9440 C.3     1  10M1        0.2140
     20  O2         3.5120   50.7920   -4.9280 O.3     1  10M1       -0.2176
     21  O1         3.9720   53.3570   -3.8400 O.3     1  10M1       -0.3399
     22  C11        4.2530   54.7540   -3.6750 C.3     1  10M1        0.1955
     23  S          2.8440   55.5110   -2.9590 S.3     1  10M1       -0.1094
     24  C10        1.4770   55.5100   -4.0900 C.3     1  10M1        0.0599
     25  C9         1.8520   56.0730   -5.4590 C.3     1  10M1        0.0117
     26  C8         1.0020   57.2960   -5.7850 C.3     1  10M1        0.0009
     27  C7         1.5670   58.0630   -6.9820 C.3     1  10M1        0.0000
     28  C6         0.5650   58.1630   -8.1300 C.3     1  10M1        0.0000
     29  C5        -0.5680   59.1550   -7.8510 C.3     1  10M1        0.0000
     30  C4        -1.9380   58.6040   -8.2560 C.3     1  10M1        0.0000
     31  C3        -2.8900   59.7380   -8.6370 C.3     1  10M1        0.0000
     32  C2        -4.2480   59.2060   -9.0870 C.3     1  10M1        0.0000
     33  C1        -5.3560   60.1100   -8.5750 C.3     1  10M1        0.0000
@<TRIPOS>BOND
     1    32    31    1
     2    32    33    1
     3    31    30    1
     4    30    29    1
     5    16    15    1
     6    28    29    1
     7    28    27    1
     8    13    12    1
     9    27    26    1
    10    15    14    1
    11    12    14    1
    12    12    10    1
    13    14    17    1
    14    26    25    1
    15    25    24    1
    16    10    11    1
    17    10     8    1
    18    20    19    1
    19    17     7    1
    20    18    19    1
    21    18    21    1
    22    18     5    1
    23    24    23    1
    24     6     7    1
    25     6     5    1
    26    21    22    1
    27     8     7    1
    28     8     9    1
    29    22    23    1
    30    22     2    1
    31     5     3    1
    32     3     2    1
    33     3     4    1
    34     2     1    1
