@<TRIPOS>MOLECULE
3c5c_GDP_A_1.pdb
 28 30 0 0 0
SMALL
GASTEIGER

@<TRIPOS>ATOM
      1  PB        13.7530    3.9900   13.8190 P.3   201  GDP201      0.5373
      2  O1B       13.8030    5.3930   14.2700 O.3   201  GDP201     -0.1143
      3  O2B       12.4060    3.6550   13.0060 O.3   201  GDP201     -0.1143
      4  O3B       14.9460    3.6060   12.8350 O.2   201  GDP201     -0.2221
      5  O3A       13.7550    2.9290   15.0480 O.3   201  GDP201     -0.2261
      6  PA        15.0740    2.3920   15.8140 P.3   201  GDP201      0.2231
      7  O1A       15.5550    1.1310   15.1880 O.2   201  GDP201     -0.5169
      8  O2A       16.0300    3.5080   16.0110 O.3   201  GDP201     -0.4370
      9  O5'       14.3900    2.0170   17.2200 O.3   201  GDP201     -0.3111
     10  C5'       13.7640    3.0310   18.0080 C.3   201  GDP201      0.1813
     11  C4'       13.5700    2.5920   19.4700 C.3   201  GDP201      0.1799
     12  O4'       12.7290    1.4110   19.5560 O.3   201  GDP201     -0.3326
     13  C3'       14.8990    2.2060   20.0950 C.3   201  GDP201      0.2158
     14  O3'       14.8070    2.4190   21.5160 O.3   201  GDP201     -0.2175
     15  C2'       14.9730    0.7160   19.8080 C.3   201  GDP201      0.2310
     16  O2'       15.7920    0.0840   20.7960 O.3   201  GDP201     -0.2158
     17  C1'       13.5290    0.3010   20.0280 C.3   201  GDP201      0.2293
     18  N9        13.1310   -0.9090   19.2580 N.pl3 201  GDP201     -0.2354
     19  C8        13.2190   -1.1050   17.9180 C.3   201  GDP201      0.2246
     20  N7        12.6750   -2.2940   17.6090 N.2   201  GDP201     -0.2322
     21  C5        12.1950   -2.8400   18.7360 C.2   201  GDP201      0.2182
     22  C6        11.5030   -4.0250   19.0210 C.1   201  GDP201      0.2372
     23  O6        11.1960   -4.8490   18.1410 O.2   201  GDP201     -0.2069
     24  N1        11.1280   -4.2730   20.3320 N.2   201  GDP201     -0.2485
     25  C2        11.4450   -3.3540   21.3390 C.1   201  GDP201      0.2531
     26  N2        11.0940   -3.6060   22.5980 N.pl3 201  GDP201     -0.0226
     27  N3        12.0950   -2.2180   21.0380 N.2   201  GDP201     -0.3074
     28  C4        12.4760   -1.9490   19.7740 C.2   201  GDP201      0.2300
@<TRIPOS>BOND
     1     4     1    2
     2     3     1    1
     3     1     2    1
     4     1     5    1
     5     5     6    1
     6     7     6    2
     7     6     8    1
     8     6     9    1
     9     9    10    1
    10    20    19    1
    11    20    21    2
    12    19    18    1
    13    10    11    1
    14    23    22    2
    15    21    22    1
    16    21    28    1
    17    22    24    2
    18    18    28    1
    19    18    17    1
    20    11    12    1
    21    11    13    1
    22    12    17    1
    23    28    27    2
    24    15    17    1
    25    15    13    1
    26    15    16    1
    27    13    14    1
    28    24    25    2
    29    27    25    2
    30    25    26    1
