@<TRIPOS>MOLECULE
3c5e_ATP_A_1.pdb
 31 33 0 0 0
SMALL
GASTEIGER

@<TRIPOS>ATOM
      1  PG        23.2440   -2.9880   -9.1620 P.3   801  ATP801      0.5373
      2  O1G       22.5840   -2.1730  -10.2460 O.2   801  ATP801     -0.2221
      3  O2G       24.1330   -2.1620   -8.2420 O.3   801  ATP801     -0.1143
      4  O3G       22.2530   -3.7300   -8.2890 O.3   801  ATP801     -0.1143
      5  PB        24.9010   -3.8760  -11.3280 P.3   801  ATP801      0.2277
      6  O1B       24.9360   -2.4010  -11.6000 O.2   801  ATP801     -0.5168
      7  O2B       26.2580   -4.5470  -11.1790 O.3   801  ATP801     -0.4368
      8  O3B       24.1200   -4.1160   -9.9300 O.3   801  ATP801     -0.2258
      9  PA        24.1950   -4.8560  -14.0220 P.3   801  ATP801      0.2189
     10  O1A       23.0340   -4.0280  -14.6240 O.2   801  ATP801     -0.5170
     11  O2A       24.1980   -6.3540  -13.9310 O.3   801  ATP801     -0.4371
     12  O3A       23.8930   -4.6100  -12.4210 O.3   801  ATP801     -0.2700
     13  O5'       25.7090   -4.3500  -14.4100 O.3   801  ATP801     -0.3112
     14  C5'       25.8830   -3.1380  -15.1570 C.3   801  ATP801      0.1813
     15  C4'       27.2440   -2.5140  -14.8510 C.3   801  ATP801      0.1821
     16  O4'       28.3550   -3.3510  -15.1780 O.3   801  ATP801     -0.3135
     17  C3'       27.4920   -1.1790  -15.6040 C.3   801  ATP801      0.2184
     18  O3'       26.7270   -0.0630  -15.1190 O.3   801  ATP801     -0.2174
     19  C2'       29.0040   -1.0780  -15.4130 C.3   801  ATP801      0.2570
     20  O2'       29.3740   -0.6070  -14.0840 O.3   801  ATP801     -0.2130
     21  C1'       29.4860   -2.5530  -15.5390 C.3   801  ATP801      0.3186
     22  N9        29.8540   -2.9220  -16.9150 N.pl3 801  ATP801     -0.1439
     23  C8        29.0900   -3.4650  -17.8890 C.3   801  ATP801      0.3377
     24  N7        29.7830   -3.6230  -19.0500 N.2   801  ATP801     -0.2095
     25  C5        31.0170   -3.0620  -18.8130 C.2   801  ATP801      0.2526
     26  C6        32.2740   -2.8900  -19.5400 C.2   801  ATP801      0.4393
     27  N6        32.3510   -3.2690  -20.8170 N.pl3 801  ATP801      0.2180
     28  N1        33.3070   -2.3040  -18.8860 N.2   801  ATP801      0.0021
     29  C2        33.2560   -1.9130  -17.6060 C.3   801  ATP801      0.5254
     30  N3        32.1600   -2.0850  -16.8270 N.2   801  ATP801     -0.0055
     31  C4        31.0590   -2.6220  -17.3860 C.2   801  ATP801      0.3518
@<TRIPOS>BOND
     1    27    26    1
     2    26    28    2
     3    26    25    1
     4    24    25    2
     5    24    23    1
     6    28    29    1
     7    25    31    1
     8    23    22    1
     9    29    30    1
    10    31    22    1
    11    31    30    2
    12    22    21    1
    13    17    19    1
    14    17    18    1
    15    17    15    1
    16    21    19    1
    17    21    16    1
    18    19    20    1
    19    16    15    1
    20    14    15    1
    21    14    13    1
    22    10     9    2
    23    13     9    1
    24     9    11    1
    25     9    12    1
    26    12     5    1
    27     6     5    2
    28     5     7    1
    29     5     8    1
    30     2     1    2
    31     8     1    1
    32     1     4    1
    33     1     3    1
