@<TRIPOS>MOLECULE
3c5g_D3T_A_1.pdb
 28 29 0 0 0
SMALL
GASTEIGER

@<TRIPOS>ATOM
      1  PA        26.3250   42.8880   15.3140 P.3   576  D3T576      0.2189
      2  O1A       26.2420   41.4210   15.1190 O.3   576  D3T576     -0.4371
      3  O2A       26.6330   43.7390   14.1470 O.2   576  D3T576     -0.5170
      4  O5'       27.4780   43.1870   16.3760 O.3   576  D3T576     -0.3113
      5  C5'       27.7050   42.3210   17.4870 C.3   576  D3T576      0.1785
      6  C4'       27.9260   43.1330   18.7430 C.3   576  D3T576      0.1472
      7  O4'       29.1580   43.8990   18.6290 O.3   576  D3T576     -0.3366
      8  C1'       28.9940   45.1580   19.2550 C.3   576  D3T576      0.2063
      9  N1        29.1780   46.2300   18.2520 N.am  576  D3T576     -0.1795
     10  C6        28.8990   46.0370   16.9110 C.2   576  D3T576      0.0877
     11  C2        29.6390   47.4370   18.7150 C.1   576  D3T576      0.2844
     12  O2        29.8720   47.6440   19.8920 O.2   576  D3T576     -0.1918
     13  N3        29.8050   48.4030   17.7540 N.2   576  D3T576     -0.2455
     14  C4        29.5430   48.2920   16.4020 C.1   576  D3T576      0.2134
     15  O4        29.7330   49.2620   15.6560 O.2   576  D3T576     -0.2088
     16  C5        29.0470   46.9940   15.9770 C.2   576  D3T576      0.0891
     17  C5M       28.7170   46.7850   14.5280 C.3   576  D3T576      0.0462
     18  C2'       27.6050   45.1790   19.8960 C.3   576  D3T576      0.0545
     19  C3'       26.8500   44.1680   19.0400 C.3   576  D3T576      0.0366
     20  O3A       25.0470   43.4070   15.9370 O.3   576  D3T576     -0.2700
     21  PB        23.8900   42.6720   16.5890 P.3   576  D3T576      0.2277
     22  O1B       24.2270   41.2380   16.7620 O.2   576  D3T576     -0.5168
     23  O2B       23.5160   43.4840   17.7770 O.3   576  D3T576     -0.4368
     24  O3B       22.7090   42.7400   15.6420 O.3   576  D3T576     -0.2258
     25  PG        22.5190   41.9300   14.3720 P.3   576  D3T576      0.5373
     26  O1G       21.3670   41.0200   14.5780 O.3   576  D3T576     -0.1143
     27  O2G       22.4970   42.8720   13.2260 O.2   576  D3T576     -0.2221
     28  O3G       23.6970   41.0500   14.1700 O.3   576  D3T576     -0.1143
@<TRIPOS>BOND
     1    27    25    2
     2     3     1    2
     3    28    25    1
     4    25    26    1
     5    25    24    1
     6    17    16    1
     7     2     1    1
     8     1    20    1
     9     1     4    1
    10    24    21    1
    11    15    14    2
    12    20    21    1
    13    16    14    1
    14    16    10    2
    15     4     5    1
    16    14    13    2
    17    21    22    2
    18    21    23    1
    19    10     9    1
    20     5     6    1
    21    13    11    2
    22     9    11   am
    23     9     8    1
    24     7     6    1
    25     7     8    1
    26    11    12    2
    27     6    19    1
    28    19    18    1
    29     8    18    1
