@<TRIPOS>MOLECULE
3c5h_GNP_A_1.pdb
 32 34 0 0 0
SMALL
GASTEIGER

@<TRIPOS>ATOM
      1  PG        12.1160   46.1160   11.8920 P.3   301  GNP301      0.4884
      2  O1G       11.0220   45.4530   11.1070 O.2   301  GNP301     -0.2331
      3  O2G       13.4130   46.5120   11.2260 O.3   301  GNP301     -0.1240
      4  O3G       11.4930   47.2670   12.7280 O.3   301  GNP301     -0.1240
      5  N3B       12.4570   45.0490   13.0450 N.3   301  GNP301     -0.0163
      6  PB        13.5960   43.8840   12.9490 P.3   301  GNP301      0.4669
      7  O1B       13.0950   42.7610   12.2070 O.2   301  GNP301     -0.2351
      8  O2B       14.8230   44.5660   12.5610 O.3   301  GNP301     -0.1253
      9  O3A       13.7310   43.3930   14.4570 O.3   301  GNP301     -0.2360
     10  PA        14.8330   43.7280   15.5310 P.3   301  GNP301      0.2220
     11  O1A       16.1100   43.0310   15.1720 O.2   301  GNP301     -0.5170
     12  O2A       15.0130   45.1700   15.7740 O.3   301  GNP301     -0.4370
     13  O5'       14.2850   43.0190   16.8070 O.3   301  GNP301     -0.3111
     14  C5'       13.0570   43.4650   17.4140 C.3   301  GNP301      0.1813
     15  C4'       13.1740   43.1360   18.8870 C.3   301  GNP301      0.1799
     16  O4'       13.1270   41.6870   19.0230 O.3   301  GNP301     -0.3326
     17  C3'       14.5070   43.5430   19.5040 C.3   301  GNP301      0.2158
     18  O3'       14.5020   44.8970   19.9910 O.3   301  GNP301     -0.2175
     19  C2'       14.6600   42.5810   20.6490 C.3   301  GNP301      0.2310
     20  O2'       13.8660   43.0110   21.7560 O.3   301  GNP301     -0.2158
     21  C1'       14.0800   41.3150   20.0330 C.3   301  GNP301      0.2293
     22  N9        15.0770   40.3510   19.5260 N.pl3 301  GNP301     -0.2354
     23  C8        15.8940   40.4070   18.4030 C.3   301  GNP301      0.2246
     24  N7        16.6490   39.3280   18.2600 N.2   301  GNP301     -0.2322
     25  C5        16.3130   38.5330   19.3490 C.2   301  GNP301      0.2182
     26  C6        16.7740   37.2460   19.7450 C.1   301  GNP301      0.2372
     27  O6        17.6250   36.5210   19.1820 O.2   301  GNP301     -0.2069
     28  N1        16.1360   36.7790   20.9040 N.2   301  GNP301     -0.2485
     29  C2        15.1860   37.4770   21.6320 C.1   301  GNP301      0.2531
     30  N2        14.6710   36.9040   22.7420 N.pl3 301  GNP301     -0.0226
     31  N3        14.7630   38.6800   21.2580 N.2   301  GNP301     -0.3074
     32  C4        15.3640   39.1600   20.1330 C.2   301  GNP301      0.2300
@<TRIPOS>BOND
     1     2     1    2
     2     3     1    1
     3     1     4    1
     4     1     5    1
     5     7     6    2
     6     8     6    1
     7     6     5    1
     8     6     9    1
     9     9    10    1
    10    11    10    2
    11    10    12    1
    12    10    13    1
    13    13    14    1
    14    14    15    1
    15    24    23    1
    16    24    25    2
    17    23    22    1
    18    15    16    1
    19    15    17    1
    20    16    21    1
    21    27    26    2
    22    25    26    1
    23    25    32    1
    24    17    18    1
    25    17    19    1
    26    22    21    1
    27    22    32    1
    28    26    28    2
    29    21    19    1
    30    32    31    2
    31    19    20    1
    32    28    29    2
    33    31    29    2
    34    29    30    1
