@<TRIPOS>MOLECULE
3c5l_III_B_1.pdb
 42 44 0 0 0
SMALL
GASTEIGER

@<TRIPOS>ATOM
      1  N          6.4950   33.1340   51.0760 N.3     1  PRO1       -0.2103
      2  CA         6.9000   31.8070   51.6060 C.3     1  PRO1        0.1489
      3  C          6.5590   31.7610   53.0910 C.2     1  PRO1        0.2418
      4  O          6.1180   32.7640   53.6530 O.2     1  PRO1       -0.2734
      5  CB         8.3980   31.7110   51.4030 C.3     1  PRO1        0.0282
      6  CG         8.7940   33.1600   51.5770 C.3     1  PRO1        0.0208
      7  CD         7.6850   33.9800   50.8770 C.3     1  PRO1        0.0893
      8  N          6.7290   30.5960   53.7390 N.am    2  PRO2       -0.2718
      9  CA         6.4290   30.4990   55.1740 C.3     2  PRO2        0.1535
     10  C          7.2250   31.5840   55.8840 C.2     2  PRO2        0.2599
     11  O          8.3450   31.9010   55.4800 O.2     2  PRO2       -0.2715
     12  CB         6.9220   29.0990   55.5430 C.3     2  PRO2        0.0310
     13  CG         6.6360   28.3100   54.2750 C.3     2  PRO2        0.0237
     14  CD         7.0850   29.2750   53.1780 C.3     2  PRO2        0.0939
     15  N          6.6480   32.1450   56.9360 N.am    3  HIS3       -0.1960
     16  CA         7.2960   33.2120   57.6880 C.3     3  HIS3        0.1784
     17  C          6.6940   33.2930   59.0950 C.2     3  HIS3        0.2621
     18  O          5.7100   32.6220   59.4070 O.2     3  HIS3       -0.2715
     19  CB         7.0670   34.5410   56.9680 C.3     3  HIS3        0.0745
     20  CG         5.6190   34.8390   56.7290 C.2     3  HIS3        0.0653
     21  ND1        4.8700   34.1750   55.7800 N.2     3  HIS3       -0.2310
     22  CD2        4.7650   35.6810   57.3580 C.3     3  HIS3        0.1683
     23  CE1        3.6190   34.5960   55.8340 C.2     3  HIS3        0.1939
     24  NE2        3.5280   35.5100   56.7840 N.2     3  HIS3       -0.2440
     25  N          7.2830   34.1280   59.9420 N.am    4  SER4       -0.1936
     26  CA         6.7650   34.2820   61.2870 C.3     4  SER4        0.2055
     27  C          5.5320   35.1910   61.2700 C.2     4  SER4        0.2644
     28  O          5.1670   35.7420   60.2350 O.2     4  SER4       -0.2714
     29  CB         7.8410   34.8480   62.2130 C.3     4  SER4        0.2130
     30  OG         8.3510   36.0590   61.7080 O.3     4  SER4       -0.2179
     31  N          4.9030   35.3380   62.4280 N.am    5  THR5       -0.1915
     32  CA         3.6980   36.1450   62.5730 C.3     5  THR5        0.2251
     33  CB         3.3110   36.2560   64.0540 C.3     5  THR5        0.1572
     34  CG2        2.0140   37.0570   64.2160 C.3     5  THR5        0.0351
     35  OG1        3.1480   34.9350   64.5920 O.3     5  THR5       -0.2704
     36  P          4.2150   34.3760   65.6580 P.3     5  THR5        0.5326
     37  O1P        3.9440   32.8180   65.8930 O.3     5  THR5       -0.1145
     38  O2P        4.0730   35.1530   67.0230 O.3     5  THR5       -0.1145
     39  O3P        5.6920   34.5910   65.0950 O.2     5  THR5       -0.2224
     40  C          3.8130   37.5450   61.9770 C.2     5  THR5        0.3867
     41  O          4.8790   38.1650   62.1740 O.co2   5  THR5       -0.2437
     42  OXT        2.8250   38.0010   61.3460 O.co2   5  THR5       -0.2437
@<TRIPOS>BOND
     1     7     1    1
     2     7     6    1
     3     1     2    1
     4     5     6    1
     5     5     2    1
     6     2     3    1
     7     3     4    2
     8     3     8   am
     9    14     8    1
    10    14    13    1
    11     8     9    1
    12    13    12    1
    13     9    12    1
    14     9    10    1
    15    11    10    2
    16    21    23    1
    17    21    20    2
    18    23    24    2
    19    10    15   am
    20    20    19    1
    21    20    22    1
    22    24    22    1
    23    15    16    1
    24    19    16    1
    25    16    17    1
    26    17    18    2
    27    17    25   am
    28    25    26    1
    29    28    27    2
    30    27    26    1
    31    27    31   am
    32    26    29    1
    33    42    40   ar
    34    30    29    1
    35    40    41   ar
    36    40    32    1
    37    31    32    1
    38    32    33    1
    39    33    34    1
    40    33    35    1
    41    35    36    1
    42    39    36    2
    43    36    37    1
    44    36    38    1
