@<TRIPOS>MOLECULE
3c5n_I3P_A_1.pdb
 24 24 0 0 0
SMALL
GASTEIGER

@<TRIPOS>ATOM
      1  C1       106.8400    0.5790   23.8270 C.3     2  I3P2        0.1918
      2  C2       106.8530   -0.6390   24.7810 C.3     2  I3P2        0.2147
      3  C3       106.5450   -0.1420   26.1800 C.3     2  I3P2        0.2146
      4  C4       105.1800    0.5220   26.2210 C.3     2  I3P2        0.1892
      5  C5       105.1530    1.6820   25.2870 C.3     2  I3P2        0.1891
      6  C6       105.4480    1.2200   23.8610 C.3     2  I3P2        0.2120
      7  O1       107.2620    0.2330   22.5200 O.3     2  I3P2       -0.2673
      8  O2       105.8400   -1.5530   24.3680 O.3     2  I3P2       -0.2176
      9  O3       106.4080   -1.3390   26.9530 O.3     2  I3P2       -0.2176
     10  O4       104.9230    0.9980   27.5170 O.3     2  I3P2       -0.2674
     11  O5       103.8650    2.2720   25.3650 O.3     2  I3P2       -0.2674
     12  O6       105.4150    2.3210   22.9530 O.3     2  I3P2       -0.2177
     13  P1       108.8110   -0.2060   22.3630 P.3     2  I3P2        0.5327
     14  O11      109.0640   -1.5970   22.8220 O.3     2  I3P2       -0.1145
     15  O12      109.6530    0.8830   23.2210 O.3     2  I3P2       -0.1145
     16  O13      109.1750    0.0960   20.8120 O.2     2  I3P2       -0.2224
     17  P4       104.1080    0.3500   28.7360 P.3     2  I3P2        0.5327
     18  O41      103.9600    1.4180   29.7510 O.3     2  I3P2       -0.1145
     19  O42      104.9130   -0.9760   29.2230 O.3     2  I3P2       -0.1145
     20  O43      102.7020   -0.1680   28.1250 O.2     2  I3P2       -0.2224
     21  P5       103.6630    3.8220   25.4470 P.3     2  I3P2        0.5327
     22  O51      102.3190    4.1170   26.0920 O.3     2  I3P2       -0.1145
     23  O52      103.7510    4.4270   23.9610 O.2     2  I3P2       -0.2224
     24  O53      104.8590    4.4750   26.2730 O.3     2  I3P2       -0.1145
@<TRIPOS>BOND
     1    16    13    2
     2    13     7    1
     3    13    14    1
     4    13    15    1
     5     7     1    1
     6    12     6    1
     7     1     6    1
     8     1     2    1
     9     6     5    1
    10    23    21    2
    11     8     2    1
    12     2     3    1
    13     5    11    1
    14     5     4    1
    15    11    21    1
    16    21    22    1
    17    21    24    1
    18     3     4    1
    19     3     9    1
    20     4    10    1
    21    10    17    1
    22    20    17    2
    23    17    19    1
    24    17    18    1
