@<TRIPOS>MOLECULE
3c5q_PLP_A_1.pdb
 15 15 0 0 0
SMALL
GASTEIGER

@<TRIPOS>ATOM
      1  N1       -21.1680   15.5990   10.1340 N.2   406  PLP406     -0.2505
      2  C2       -20.7210   14.3500    9.6820 C.2   406  PLP406      0.0675
      3  C2A      -20.6170   14.0780    8.2120 C.3   406  PLP406      0.0499
      4  C3       -20.2560   13.3930   10.6690 C.3   406  PLP406      0.1913
      5  O3       -19.9570   12.1090   10.2410 O.3   406  PLP406     -0.2167
      6  C4       -20.1920   13.7380   12.0190 C.3   406  PLP406      0.0581
      7  C4A      -19.4680   12.8070   12.9600 C.3   406  PLP406      0.0075
      8  C5       -20.6470   14.9870   12.4440 C.2   406  PLP406      0.0073
      9  C6       -21.1450   15.9390   11.4710 C.2   406  PLP406      0.0921
     10  C5A      -20.8490   15.4220   13.8550 C.3   406  PLP406      0.1776
     11  O4P      -19.6780   16.0620   14.3220 O.3   406  PLP406     -0.2656
     12  P        -19.4980   16.4710   15.7280 P.3   406  PLP406      0.5329
     13  O1P      -19.6220   18.0460   15.6530 O.2   406  PLP406     -0.2224
     14  O2P      -18.0800   15.9030   16.0270 O.3   406  PLP406     -0.1145
     15  O3P      -20.5690   15.9210   16.7580 O.3   406  PLP406     -0.1145
@<TRIPOS>BOND
     1     3     2    1
     2     2     1    2
     3     2     4    1
     4     1     9    1
     5     5     4    1
     6     4     6    1
     7     9     8    2
     8     6     8    1
     9     6     7    1
    10     8    10    1
    11    10    11    1
    12    11    12    1
    13    13    12    2
    14    12    14    1
    15    12    15    1
