@<TRIPOS>MOLECULE
3c5q_LYS_A_1.pdb
 10 9 0 0 0
SMALL
GASTEIGER

@<TRIPOS>ATOM
      1  N        -19.7800    8.3970   18.8240 N.3   407  LYS407     -0.1208
      2  CA       -18.5950    9.2490   18.8370 C.3   407  LYS407      0.1943
      3  C        -18.3280    9.7770   20.2420 C.2   407  LYS407      0.3819
      4  O        -19.0120    9.2850   21.1650 O.co2 407  LYS407     -0.2441
      5  CB       -18.7700   10.4160   17.8500 C.3   407  LYS407      0.0307
      6  CG       -18.7540    9.9710   16.3980 C.3   407  LYS407      0.0036
      7  CD       -19.0820   11.0970   15.4260 C.3   407  LYS407      0.0206
      8  CE       -19.0750   10.5660   13.9830 C.3   407  LYS407      0.1093
      9  NZ       -19.6040   11.5300   12.9770 N.3   407  LYS407     -0.1314
     10  OXT      -17.4440   10.6540   20.4040 O.co2 407  LYS407     -0.2441
@<TRIPOS>BOND
     1     9     8    1
     2     8     7    1
     3     7     6    1
     4     6     5    1
     5     5     2    1
     6     1     2    1
     7     2     3    1
     8     3    10   ar
     9     3     4   ar
