@<TRIPOS>MOLECULE
3c5t_10M_A_1.pdb
 33 34 0 0 0
SMALL
GASTEIGER

@<TRIPOS>ATOM
      1  O10      -29.7740   32.9620    2.7870 O.3     1  10M1       -0.2167
      2  C22      -30.8830   32.0870    2.6720 C.3     1  10M1        0.2218
      3  C21      -32.1580   32.7710    3.1430 C.3     1  10M1        0.2149
      4  O9       -32.4810   33.7620    2.1720 O.3     1  10M1       -0.2176
      5  C14      -33.3180   31.7910    3.2650 C.3     1  10M1        0.1803
      6  O3       -34.3660   32.4330    3.9800 O.3     1  10M1       -0.3257
      7  C15      -35.6790   32.4500    3.3870 C.3     1  10M1        0.2695
      8  C20      -36.5200   33.5890    3.9670 C.3     1  10M1        0.2406
      9  O8       -35.9870   34.8650    3.5870 O.3     1  10M1       -0.2149
     10  C19      -36.5840   33.4730    5.4970 C.3     1  10M1        0.2198
     11  O7       -37.4940   34.4740    5.9740 O.3     1  10M1       -0.2174
     12  C18      -36.9800   32.0690    6.0160 C.3     1  10M1        0.2144
     13  O6       -36.4140   31.8000    7.3230 O.3     1  10M1       -0.2176
     14  C16      -36.5810   30.9020    5.0870 C.3     1  10M1        0.1835
     15  C17      -37.6380   29.7930    5.1550 C.3     1  10M1        0.2142
     16  O5       -37.4290   29.0130    6.3490 O.3     1  10M1       -0.2176
     17  O4       -36.4130   31.2580    3.6950 O.3     1  10M1       -0.3256
     18  C12      -32.8810   30.5440    4.0440 C.3     1  10M1        0.1788
     19  C13      -33.9480   29.4680    3.9920 C.3     1  10M1        0.2140
     20  O2       -33.5940   28.4200    4.8800 O.3     1  10M1       -0.2176
     21  O1       -31.6850   29.9880    3.4820 O.3     1  10M1       -0.3399
     22  C11      -30.5680   30.8740    3.5180 C.3     1  10M1        0.1955
     23  S        -29.1220   30.0980    2.8740 S.3     1  10M1       -0.1094
     24  C10      -28.4460   29.0150    4.1100 C.3     1  10M1        0.0599
     25  C9       -28.1620   29.7600    5.4160 C.3     1  10M1        0.0117
     26  C8       -26.6860   30.0700    5.6330 C.3     1  10M1        0.0009
     27  C7       -26.0810   29.3390    6.8360 C.3     1  10M1        0.0000
     28  C6       -25.1770   30.2220    7.7050 C.3     1  10M1        0.0000
     29  C5       -23.8090   29.5930    8.0430 C.3     1  10M1        0.0000
     30  C4       -23.8310   28.0800    8.3080 C.3     1  10M1        0.0000
     31  C3       -22.4190   27.4820    8.4090 C.3     1  10M1        0.0000
     32  C2       -22.4900   25.9700    8.6750 C.3     1  10M1        0.0000
     33  C1       -21.2760   25.1810    8.2080 C.3     1  10M1        0.0000
@<TRIPOS>BOND
     1     4     3    1
     2     2     1    1
     3     2     3    1
     4     2    22    1
     5    23    22    1
     6    23    24    1
     7     3     5    1
     8     5     6    1
     9     5    18    1
    10     7    17    1
    11     7     8    1
    12     7     6    1
    13    21    22    1
    14    21    18    1
    15     9     8    1
    16    17    14    1
    17     8    10    1
    18    19    18    1
    19    19    20    1
    20    24    25    1
    21    14    15    1
    22    14    12    1
    23    15    16    1
    24    25    26    1
    25    10    11    1
    26    10    12    1
    27    26    27    1
    28    12    13    1
    29    27    28    1
    30    28    29    1
    31    29    30    1
    32    33    32    1
    33    30    31    1
    34    31    32    1
