@<TRIPOS>MOLECULE
3c5u_P41_A_1.pdb
 25 28 0 0 0
SMALL
GASTEIGER

@<TRIPOS>ATOM
      1  C13       -7.5490   36.2130   41.5110 C.2   361  P41361      0.0586
      2  C18       -8.0580   30.8800   39.4460 C.3   361  P41361      0.0234
      3  C17       -5.7630   31.9330   38.6910 C.3   361  P41361      0.0234
      4  C16       -7.1170   33.8460   40.9230 C.2   361  P41361      0.2301
      5  C15       -8.3420   39.8800   41.5020 C.3   361  P41361      0.1788
      6  C19       -6.7710   31.5920   39.8050 C.3   361  P41361      0.0956
      7  C11       -7.7210   35.8460   40.1600 C.2   361  P41361      0.1216
      8  C12      -11.3310   40.8130   40.3850 C.ar  361  P41361      0.1413
      9  C1       -10.6740   42.4640   38.2920 C.ar  361  P41361      0.0002
     10  C2       -11.9630   41.9510   38.4260 C.ar  361  P41361      0.0023
     11  C3        -9.6920   42.1490   39.2040 C.ar  361  P41361      0.0035
     12  C4        -8.3250   38.1710   39.7300 C.2   361  P41361     -0.0202
     13  C5        -8.0990   36.8530   39.2400 C.3   361  P41361      0.0853
     14  C6       -12.2990   41.1270   39.4620 C.ar  361  P41361      0.0297
     15  C7        -7.7380   37.5170   41.9880 C.2   361  P41361      0.0070
     16  C8        -7.7640   41.5640   42.8160 C.3   361  P41361      0.2721
     17  C9        -8.1740   38.5020   41.0800 C.2   361  P41361      0.0070
     18  C10      -10.0270   41.2980   40.2410 C.ar  361  P41361      0.0434
     19  C14       -9.0230   41.0370   41.2050 C.2   361  P41361      0.0898
     20  N20       -8.6610   42.0900   42.0510 N.2   361  P41361     -0.2408
     21  N21       -7.4690   34.5040   39.8470 N.2   361  P41361     -0.3826
     22  N22       -6.8400   32.5290   40.9320 N.pl3 361  P41361     -0.2059
     23  O23       -7.5150   40.2530   42.5440 O.3   361  P41361     -0.3230
     24  F24      -11.6780   39.9970   41.4060 F     361  P41361     -0.2041
     25  S25       -7.0740   34.8040   42.3810 S.3   361  P41361     -0.0364
@<TRIPOS>BOND
     1     9    10   ar
     2     9    11   ar
     3    10    14   ar
     4     3     6    1
     5    11    18   ar
     6    13    12    1
     7    13     7    1
     8     2     6    1
     9    14     8   ar
    10    12    17    2
    11     6    22    1
    12    21     7    2
    13    21     4    2
    14     7     1    1
    15    18     8   ar
    16    18    19    1
    17     8    24    1
    18     4    22    1
    19     4    25    1
    20    17     5    1
    21    17    15    1
    22    19     5    1
    23    19    20    2
    24     5    23    1
    25     1    15    2
    26     1    25    1
    27    20    16    1
    28    23    16    1
