@<TRIPOS>MOLECULE
3c61_FMN_A_1.pdb
 31 33 0 0 0
SMALL
GASTEIGER

@<TRIPOS>ATOM
      1  N1       -35.0960   16.6440   -1.5630 N.2   401  FMN401     -0.2890
      2  C2       -36.2410   16.4160   -2.2750 C.1   401  FMN401      0.3669
      3  O2       -37.1480   15.8050   -1.7300 O.2   401  FMN401     -0.1744
      4  N3       -36.3630   16.8840   -3.5710 N.2   401  FMN401     -0.2300
      5  C4       -35.3200   17.5630   -4.1690 C.1   401  FMN401      0.2513
      6  O4       -35.2990   17.6530   -5.4060 O.2   401  FMN401     -0.2057
      7  C4A      -34.1530   17.8080   -3.4370 C.2   401  FMN401      0.2700
      8  N5       -33.0890   18.4960   -3.9890 N.2   401  FMN401     -0.3878
      9  C5A      -31.8410   18.3530   -3.3780 C.2   401  FMN401      0.1320
     10  C6       -30.6840   18.6840   -4.0840 C.2   401  FMN401      0.0250
     11  C7       -29.4260   18.5280   -3.4720 C.2   401  FMN401     -0.0238
     12  C7M      -28.1590   18.8730   -4.1940 C.3   401  FMN401      0.0308
     13  C8       -29.3420   18.0570   -2.1620 C.2   401  FMN401     -0.0280
     14  C8M      -28.0010   17.8760   -1.4970 C.3   401  FMN401      0.0304
     15  C9       -30.4920   17.7210   -1.4710 C.2   401  FMN401     -0.0041
     16  C9A      -31.7530   17.8780   -2.0640 C.3   401  FMN401      0.1497
     17  N10      -32.9150   17.5240   -1.3880 N.pl3 401  FMN401     -0.2691
     18  C10      -34.0220   17.2480   -2.1600 C.2   401  FMN401      0.2416
     19  C1'      -32.8870   16.9220   -0.0070 C.3   401  FMN401      0.1294
     20  C2'      -32.3610   15.4780   -0.0190 C.3   401  FMN401      0.2044
     21  O2'      -33.3050   14.6150   -0.6100 O.3   401  FMN401     -0.2185
     22  C3'      -32.0970   14.9390    1.3740 C.3   401  FMN401      0.2164
     23  O3'      -33.3520   14.9640    2.0290 O.3   401  FMN401     -0.2175
     24  C4'      -31.0670   15.7340    2.1960 C.3   401  FMN401      0.2147
     25  O4'      -29.9700   16.2080    1.4270 O.3   401  FMN401     -0.2176
     26  C5'      -30.5640   14.9610    3.4160 C.3   401  FMN401      0.1892
     27  O5'      -29.8330   13.7900    3.1020 O.3   401  FMN401     -0.2674
     28  P        -28.2180   13.7440    3.2530 P.3   401  FMN401      0.5327
     29  O1P      -27.8940   14.1260    4.6660 O.3   401  FMN401     -0.1145
     30  O2P      -27.7660   14.8130    2.2760 O.2   401  FMN401     -0.2224
     31  O3P      -27.8510   12.3350    2.9040 O.3   401  FMN401     -0.1145
@<TRIPOS>BOND
     1     6     5    2
     2    12    11    1
     3     5     4    2
     4     5     7    1
     5    10    11    2
     6    10     9    1
     7     8     7    2
     8     8     9    2
     9     4     2    2
    10    11    13    1
    11     7    18    1
    12     9    16    1
    13     2     3    2
    14     2     1    2
    15    13    14    1
    16    13    15    2
    17    18     1    2
    18    18    17    1
    19    16    15    1
    20    16    17    1
    21    17    19    1
    22    21    20    1
    23    20    19    1
    24    20    22    1
    25    22    23    1
    26    22    24    1
    27    25    24    1
    28    24    26    1
    29    30    28    2
    30    31    28    1
    31    27    28    1
    32    27    26    1
    33    28    29    1
