@<TRIPOS>MOLECULE
3c62_HEM_A_1.pdb
 43 50 0 0 0
SMALL
GASTEIGER

@<TRIPOS>ATOM
      1  CHA        1.0500    6.6380    7.8700 C.2   150  HEM150      0.0000
      2  CHB        2.1060    5.6830    3.2200 C.2   150  HEM150      0.0000
      3  CHC        3.8200    1.3800    4.6150 C.2   150  HEM150      0.0000
      4  CHD        2.8480    2.3610    9.2570 C.2   150  HEM150      0.0000
      5  C1A        1.1480    6.7210    6.4820 C.ar  150  HEM150      0.0000
      6  C2A        0.7870    7.8870    5.7170 C.ar  150  HEM150      0.0000
      7  C3A        1.0870    7.6320    4.4260 C.ar  150  HEM150      0.0000
      8  C4A        1.6450    6.2960    4.3820 C.ar  150  HEM150      0.0000
      9  CMA        0.8820    8.5490    3.2410 C.3   150  HEM150      0.0000
     10  CAA        0.2270    9.1680    6.2870 C.3   150  HEM150      0.0000
     11  CBA        1.3630   10.0950    6.6880 C.3   150  HEM150      0.0000
     12  CGA        0.8780   11.2780    7.4950 C.2   150  HEM150      0.0000
     13  O1A        1.6520   12.2500    7.6630 O.co2 150  HEM150      0.0000
     14  O2A       -0.2750   11.2330    7.9680 O.co2 150  HEM150      0.0000
     15  C1B        2.6900    4.4230    3.2110 C.2   150  HEM150      0.0000
     16  C2B        3.1280    3.7400    2.0070 C.2   150  HEM150      0.0000
     17  C3B        3.6100    2.5240    2.3890 C.2   150  HEM150      0.0000
     18  C4B        3.4640    2.4780    3.8560 C.2   150  HEM150      0.0000
     19  CMB        2.9940    4.2970    0.5740 C.3   150  HEM150      0.0000
     20  CAB        4.0230    1.4490    1.5840 C.3   150  HEM150      0.0000
     21  CBB        4.7850    1.5360    0.4310 C.3   150  HEM150      0.0000
     22  C1C        3.6700    1.2530    6.0020 C.ar  150  HEM150      0.0000
     23  C2C        4.0730    0.0770    6.7750 C.ar  150  HEM150      0.0000
     24  C3C        3.7880    0.3280    8.0890 C.ar  150  HEM150      0.0000
     25  C4C        3.2240    1.6840    8.1090 C.ar  150  HEM150      0.0000
     26  CMC        4.7020   -1.1780    6.1820 C.3   150  HEM150      0.0000
     27  CAC        3.8840   -0.5310    9.2100 C.3   150  HEM150      0.0000
     28  CBC        4.6510   -1.7020    9.3240 C.3   150  HEM150      0.0000
     29  C1D        2.3240    3.6400    9.2870 C.2   150  HEM150      0.0000
     30  C2D        1.8640    4.3030   10.4800 C.2   150  HEM150      0.0000
     31  C3D        1.3580    5.5090   10.1060 C.2   150  HEM150      0.0000
     32  C4D        1.4920    5.5770    8.6640 C.2   150  HEM150      0.0000
     33  CMD        1.9080    3.7330   11.8990 C.3   150  HEM150      0.0000
     34  CAD        0.8320    6.5980   11.0430 C.3   150  HEM150      0.0000
     35  CBD        1.7600    7.8140   11.1030 C.3   150  HEM150      0.0000
     36  CGD        1.2910    8.8670   12.0920 C.2   150  HEM150      0.0000
     37  O1D        0.1000    9.2320   12.0580 O.co2 150  HEM150      0.0000
     38  O2D        2.1210    9.3390   12.8990 O.co2 150  HEM150      0.0000
     39  NA         1.6870    5.7340    5.6490 N.ar  150  HEM150      0.0000
     40  NB         2.8950    3.6590    4.3200 N.2   150  HEM150      0.0000
     41  NC         3.1450    2.2270    6.8100 N.ar  150  HEM150      0.0000
     42  ND         2.0940    4.4380    8.1780 N.2   150  HEM150      0.0000
     43 FE          2.4710    4.0380    6.2110 Fe    150  HEM150      0.0000
@<TRIPOS>BOND
     1    21    20    1
     2    19    16    1
     3    20    17    1
     4    16    17    2
     5    16    15    1
     6    17    18    1
     7    15     2    1
     8    15    40    2
     9     2     8    2
    10     9     7    1
    11    18    40    1
    12    18     3    2
    13    40    43    1
    14     8     7   ar
    15     8    39   ar
    16     7     6   ar
    17     3    22    1
    18    39    43    1
    19    39     5   ar
    20     6    10    1
    21     6     5   ar
    22    22    23   ar
    23    22    41   ar
    24    26    23    1
    25    43    41    1
    26    43    42    1
    27    10    11    1
    28     5     1    2
    29    11    12    1
    30    23    24   ar
    31    41    25   ar
    32    12    13   ar
    33    12    14   ar
    34     1    32    1
    35    24    25   ar
    36    24    27    1
    37    25     4    1
    38    42    32    2
    39    42    29    1
    40    32    31    1
    41    27    28    1
    42     4    29    2
    43    29    30    1
    44    31    30    2
    45    31    34    1
    46    30    33    1
    47    34    35    1
    48    35    36    1
    49    37    36   ar
    50    36    38   ar
