@<TRIPOS>MOLECULE
3c63_HEM_A_1.pdb
 43 50 0 0 0
SMALL
GASTEIGER

@<TRIPOS>ATOM
      1  CHA        0.4880   18.7670    7.7420 C.2   150  HEM150      0.0000
      2  CHB        1.6590   17.7360    3.1450 C.2   150  HEM150      0.0000
      3  CHC        3.3670   13.4170    4.7160 C.2   150  HEM150      0.0000
      4  CHD        2.1850   14.4780    9.3080 C.2   150  HEM150      0.0000
      5  C1A        0.6690   18.8840    6.3600 C.ar  150  HEM150      0.0000
      6  C2A        0.2690   20.0130    5.5290 C.ar  150  HEM150      0.0000
      7  C3A        0.5850   19.7390    4.2390 C.ar  150  HEM150      0.0000
      8  C4A        1.2100   18.3960    4.2670 C.ar  150  HEM150      0.0000
      9  CMA        0.2730   20.5450    2.9710 C.3   150  HEM150      0.0000
     10  CAA       -0.3300   21.2820    6.1220 C.3   150  HEM150      0.0000
     11  CBA        0.7520   22.3270    6.2560 C.3   150  HEM150      0.0000
     12  CGA        0.4540   23.3200    7.3630 C.2   150  HEM150      0.0000
     13  O1A        1.0780   24.4050    7.3950 O.co2 150  HEM150      0.0000
     14  O2A       -0.4020   22.9990    8.2180 O.co2 150  HEM150      0.0000
     15  C1B        2.2350   16.4510    3.1830 C.2   150  HEM150      0.0000
     16  C2B        2.7060   15.7550    2.0200 C.2   150  HEM150      0.0000
     17  C3B        3.1920   14.5570    2.4340 C.2   150  HEM150      0.0000
     18  C4B        3.0030   14.5140    3.9030 C.2   150  HEM150      0.0000
     19  CMB        2.7090   16.2390    0.5640 C.3   150  HEM150      0.0000
     20  CAB        3.7300   13.5320    1.6320 C.3   150  HEM150      0.0000
     21  CBB        4.7850   13.7350    0.7040 C.3   150  HEM150      0.0000
     22  C1C        3.1800   13.3480    6.1210 C.ar  150  HEM150      0.0000
     23  C2C        3.5430   12.2180    6.9250 C.ar  150  HEM150      0.0000
     24  C3C        3.2080   12.4370    8.2140 C.ar  150  HEM150      0.0000
     25  C4C        2.6330   13.7850    8.1880 C.ar  150  HEM150      0.0000
     26  CMC        4.1860   10.9520    6.3720 C.3   150  HEM150      0.0000
     27  CAC        3.3240   11.5540    9.3100 C.3   150  HEM150      0.0000
     28  CBC        4.2820   10.5010    9.4220 C.3   150  HEM150      0.0000
     29  C1D        1.6730   15.7710    9.2640 C.2   150  HEM150      0.0000
     30  C2D        1.1160   16.4240   10.4220 C.2   150  HEM150      0.0000
     31  C3D        0.6080   17.6140    9.9850 C.2   150  HEM150      0.0000
     32  C4D        0.8700   17.6920    8.5550 C.2   150  HEM150      0.0000
     33  CMD        1.1290   15.8570   11.8450 C.3   150  HEM150      0.0000
     34  CAD       -0.0690   18.6880   10.8220 C.3   150  HEM150      0.0000
     35  CBD        0.9160   19.7820   11.1860 C.3   150  HEM150      0.0000
     36  CGD        0.2980   20.8800   12.0390 C.2   150  HEM150      0.0000
     37  O1D       -0.8640   21.2410   11.7820 O.co2 150  HEM150      0.0000
     38  O2D        0.9860   21.3870   12.9520 O.co2 150  HEM150      0.0000
     39  NA         1.2490   17.9130    5.5700 N.ar  150  HEM150      0.0000
     40  NB         2.4110   15.6970    4.3660 N.2   150  HEM150      0.0000
     41  NC         2.6150   14.3200    6.9140 N.ar  150  HEM150      0.0000
     42  ND         1.5340   16.5500    8.1110 N.2   150  HEM150      0.0000
     43 FE          1.9210   16.0790    6.1780 Fe    150  HEM150      0.0000
@<TRIPOS>BOND
     1    19    16    1
     2    21    20    1
     3    20    17    1
     4    16    17    2
     5    16    15    1
     6    17    18    1
     7     9     7    1
     8     2    15    1
     9     2     8    2
    10    15    40    2
    11    18    40    1
    12    18     3    2
    13     7     8   ar
    14     7     6   ar
    15     8    39   ar
    16    40    43    1
    17     3    22    1
    18     6    10    1
    19     6     5   ar
    20    39    43    1
    21    39     5   ar
    22    22    41   ar
    23    22    23   ar
    24    10    11    1
    25    43    41    1
    26    43    42    1
    27    11    12    1
    28     5     1    2
    29    26    23    1
    30    41    25   ar
    31    23    24   ar
    32    12    13   ar
    33    12    14   ar
    34     1    32    1
    35    42    32    2
    36    42    29    1
    37    25    24   ar
    38    25     4    1
    39    24    27    1
    40    32    31    1
    41    29     4    2
    42    29    30    1
    43    27    28    1
    44    31    30    2
    45    31    34    1
    46    30    33    1
    47    34    35    1
    48    35    36    1
    49    37    36   ar
    50    36    38   ar
