@<TRIPOS>MOLECULE
3c67_GLC_A_1.pdb
 12 12 0 0 0
SMALL
GASTEIGER

@<TRIPOS>ATOM
      1  C1         0.9610   -8.5580   29.1320 C.3   2001  GLC2001     0.3024
      2  C2        -0.1190   -9.1010   30.0730 C.3   2001  GLC2001     0.2434
      3  C3         0.5200   -9.7080   31.3240 C.3   2001  GLC2001     0.2199
      4  C4         1.6050  -10.7230   30.9440 C.3   2001  GLC2001     0.2144
      5  C5         2.6020  -10.1040   29.9600 C.3   2001  GLC2001     0.1836
      6  C6         3.6070  -11.1320   29.4670 C.3   2001  GLC2001     0.2142
      7  O1         1.6410   -7.5200   29.7500 O.3   2001  GLC2001    -0.1869
      8  O2        -0.9970   -8.0480   30.4490 O.3   2001  GLC2001    -0.2148
      9  O3        -0.4790  -10.3560   32.1010 O.3   2001  GLC2001    -0.2174
     10  O4         2.2950  -11.1380   32.1140 O.3   2001  GLC2001    -0.2176
     11  O5         1.9070   -9.5900   28.8030 O.3   2001  GLC2001    -0.3236
     12  O6         4.4370  -10.6010   28.4440 O.3   2001  GLC2001    -0.2176
@<TRIPOS>BOND
     1    12     6    1
     2    11     1    1
     3    11     5    1
     4     1     7    1
     5     1     2    1
     6     6     5    1
     7     5     4    1
     8     2     8    1
     9     2     3    1
    10     4     3    1
    11     4    10    1
    12     3     9    1
