@<TRIPOS>MOLECULE
3c68_BMA_A_1.pdb
 12 12 0 0 0
SMALL
GASTEIGER

@<TRIPOS>ATOM
      1  C1         5.6990    8.2740   36.3780 C.3   2001  BMA2001     0.3024
      2  C2         4.7610    8.9610   37.3800 C.3   2001  BMA2001     0.2434
      3  C3         5.1970    8.6230   38.8100 C.3   2001  BMA2001     0.2199
      4  C4         5.3420    7.1090   39.0000 C.3   2001  BMA2001     0.2144
      5  C5         6.2290    6.5060   37.9050 C.3   2001  BMA2001     0.1836
      6  C6         6.2780    4.9900   37.9670 C.3   2001  BMA2001     0.2142
      7  O1         5.2580    8.4940   35.0840 O.3   2001  BMA2001    -0.1869
      8  O2         3.4180    8.5420   37.1670 O.3   2001  BMA2001    -0.2148
      9  O3         4.2450    9.1230   39.7370 O.3   2001  BMA2001    -0.2174
     10  O4         5.9220    6.8530   40.2710 O.3   2001  BMA2001    -0.2176
     11  O5         5.7210    6.8580   36.6020 O.3   2001  BMA2001    -0.3236
     12  O6         4.9720    4.4310   37.8680 O.3   2001  BMA2001    -0.2176
@<TRIPOS>BOND
     1     7     1    1
     2     1    11    1
     3     1     2    1
     4    11     5    1
     5     8     2    1
     6     2     3    1
     7    12     6    1
     8     5     6    1
     9     5     4    1
    10     3     4    1
    11     3     9    1
    12     4    10    1
