@<TRIPOS>MOLECULE
3c69_GAL_A_1.pdb
 12 12 0 0 0
SMALL
GASTEIGER

@<TRIPOS>ATOM
      1  C1         9.2290    8.4960   34.7760 C.3   2001  GAL2001     0.3024
      2  C2         8.4240    9.0790   35.9450 C.3   2001  GAL2001     0.2434
      3  C3         9.0860   10.3640   36.4550 C.3   2001  GAL2001     0.2199
      4  C4        10.5640   10.1070   36.7700 C.3   2001  GAL2001     0.2144
      5  C5        11.2550    9.4930   35.5540 C.3   2001  GAL2001     0.1836
      6  C6        12.7080    9.1490   35.8110 C.3   2001  GAL2001     0.2142
      7  O1         8.6890    7.2780   34.3990 O.3   2001  GAL2001    -0.1869
      8  O2         7.0950    9.3510   35.5230 O.3   2001  GAL2001    -0.2148
      9  O3         8.4280   10.8020   37.6310 O.3   2001  GAL2001    -0.2174
     10  O4        10.6600    9.2180   37.8710 O.3   2001  GAL2001    -0.2176
     11  O5        10.5880    8.2710   35.1740 O.3   2001  GAL2001    -0.3236
     12  O6        13.3090    8.6030   34.6480 O.3   2001  GAL2001    -0.2176
@<TRIPOS>BOND
     1     7     1    1
     2    12     6    1
     3     1    11    1
     4     1     2    1
     5    11     5    1
     6     8     2    1
     7     5     6    1
     8     5     4    1
     9     2     3    1
    10     3     4    1
    11     3     9    1
    12     4    10    1
