@<TRIPOS>MOLECULE
3c6e_MAN_C_1.pdb
 11 11 0 0 0
SMALL
GASTEIGER

@<TRIPOS>ATOM
      1  C1         7.9120   28.2240  -35.7120 C.3   1402  MAN1402     0.1777
      2  C2         8.1310   26.8370  -36.3490 C.3   1402  MAN1402     0.2141
      3  C3         8.3140   26.9360  -37.8690 C.3   1402  MAN1402     0.2173
      4  C4         7.5460   28.1380  -38.4130 C.3   1402  MAN1402     0.2142
      5  C5         8.1310   29.4330  -37.8330 C.3   1402  MAN1402     0.1810
      6  C6         8.3240   30.7420  -38.3770 C.3   1402  MAN1402     0.2141
      7  O2         7.0310   25.9870  -36.0590 O.3   1402  MAN1402    -0.2176
      8  O3         7.8490   25.7470  -38.4910 O.3   1402  MAN1402    -0.2175
      9  O4         7.6320   28.1610  -39.8300 O.3   1402  MAN1402    -0.2176
     10  O5         8.5770   29.2480  -36.4600 O.3   1402  MAN1402    -0.3481
     11  O6         8.5520   31.8430  -37.6350 O.3   1402  MAN1402    -0.2176
@<TRIPOS>BOND
     1     9     4    1
     2     8     3    1
     3     4     3    1
     4     4     5    1
     5     6     5    1
     6     6    11    1
     7     3     2    1
     8     5    10    1
     9    10     1    1
    10     2     7    1
    11     2     1    1
