@<TRIPOS>MOLECULE
3c6g_VD3_A_1.pdb
 28 30 0 0 0
SMALL
GASTEIGER

@<TRIPOS>ATOM
      1  O        -42.8600    7.8850  -22.5850 O.3   701  VD3701     -0.2228
      2  C1       -46.4820    8.4300  -23.1020 C.3   701  VD3701      0.0243
      3  C2       -45.0020    8.6760  -23.2670 C.3   701  VD3701      0.0376
      4  C3       -44.2190    7.9280  -22.1800 C.3   701  VD3701      0.1566
      5  C4       -44.7600    6.4840  -21.9350 C.3   701  VD3701      0.0586
      6  C5       -45.8190    6.0530  -22.9830 C.2   701  VD3701     -0.0278
      7  C7       -45.9780    4.7110  -23.4160 C.2   701  VD3701     -0.0094
      8  C8       -45.1980    3.6830  -22.9470 C.2   701  VD3701     -0.0268
      9  C9       -45.2470    2.3310  -23.2830 C.3   701  VD3701      0.0220
     10  C10      -44.2150    1.4730  -22.5780 C.3   701  VD3701      0.0043
     11  C6       -46.6580    7.0200  -23.5180 C.2   701  VD3701     -0.0477
     12  C11      -44.8580    0.2080  -22.0770 C.3   701  VD3701      0.0003
     13  C12      -45.5450   -0.5360  -23.2170 C.3   701  VD3701      0.0000
     14  C13      -46.6980    0.2850  -23.7040 C.3   701  VD3701      0.0003
     15  C14      -46.1230    1.5580  -24.3040 C.3   701  VD3701      0.0040
     16  C15      -47.3380    2.2230  -24.9430 C.3   701  VD3701      0.0003
     17  C16      -47.9880    0.9700  -25.6490 C.3   701  VD3701      0.0000
     18  C17      -47.3200   -0.2950  -24.9850 C.3   701  VD3701      0.0000
     19  C18      -47.7290    0.5590  -22.5860 C.3   701  VD3701      0.0000
     20  C19      -47.6370    6.7420  -24.4570 C.3   701  VD3701      0.0260
     21  C20      -48.3120   -1.4880  -24.7510 C.3   701  VD3701      0.0000
     22  C21      -47.6420   -2.6960  -24.0770 C.3   701  VD3701      0.0000
     23  C22      -49.0040   -1.9220  -26.0540 C.3   701  VD3701      0.0000
     24  C23      -47.9720   -2.2320  -27.1420 C.3   701  VD3701      0.0000
     25  C24      -48.5440   -3.1450  -28.2350 C.3   701  VD3701      0.0000
     26  C25      -49.1530   -2.3220  -29.3840 C.3   701  VD3701      0.0000
     27  C26      -50.1040   -3.1690  -30.2630 C.3   701  VD3701      0.0000
     28  C27      -48.0530   -1.6330  -30.2100 C.3   701  VD3701      0.0000
@<TRIPOS>BOND
     1    27    26    1
     2    28    26    1
     3    26    25    1
     4    25    24    1
     5    24    23    1
     6    23    21    1
     7    17    18    1
     8    17    16    1
     9    18    21    1
    10    18    14    1
    11    16    15    1
    12    21    22    1
    13    20    11    1
    14    15    14    1
    15    15     9    1
    16    14    13    1
    17    14    19    1
    18    11     2    1
    19    11     6    2
    20     7     6    1
    21     7     8    2
    22     9     8    1
    23     9    10    1
    24     3     2    1
    25     3     4    1
    26    13    12    1
    27     6     5    1
    28     1     4    1
    29    10    12    1
    30     4     5    1
