@<TRIPOS>MOLECULE
3c6g_HEM_A_1.pdb
 43 50 0 0 0
SMALL
GASTEIGER

@<TRIPOS>ATOM
      1 FE        -54.2580   -1.1410  -33.1530 Fe    601  HEM601      0.0000
      2  CHA      -55.6010   -1.7440  -30.0710 C.2   601  HEM601      0.0000
      3  CHB      -53.6840   -4.4500  -33.5760 C.2   601  HEM601      0.0000
      4  CHC      -52.9040   -0.5220  -36.1830 C.2   601  HEM601      0.0000
      5  CHD      -54.3740    2.1940  -32.5520 C.2   601  HEM601      0.0000
      6  NA       -54.5870   -2.7440  -32.0390 N.ar  601  HEM601      0.0000
      7  C1A      -55.1490   -2.8070  -30.7920 C.ar  601  HEM601      0.0000
      8  C2A      -55.1960   -4.1890  -30.3740 C.ar  601  HEM601      0.0000
      9  C3A      -54.6670   -4.9110  -31.3370 C.ar  601  HEM601      0.0000
     10  C4A      -54.2790   -4.0290  -32.4030 C.ar  601  HEM601      0.0000
     11  CMA      -54.5000   -6.4510  -31.3130 C.3   601  HEM601      0.0000
     12  CAA      -55.7010   -4.8030  -29.0490 C.3   601  HEM601      0.0000
     13  CBA      -57.0730   -4.3510  -28.6310 C.3   601  HEM601      0.0000
     14  CGA      -57.3630   -4.9740  -27.2910 C.2   601  HEM601      0.0000
     15  O1A      -57.0290   -4.4030  -26.2410 O.co2 601  HEM601      0.0000
     16  O2A      -57.9430   -6.0650  -27.2700 O.co2 601  HEM601      0.0000
     17  NB       -53.4150   -2.2650  -34.5800 N.2   601  HEM601      0.0000
     18  C1B      -53.3130   -3.6450  -34.6060 C.2   601  HEM601      0.0000
     19  C2B      -52.7590   -4.0680  -35.8680 C.2   601  HEM601      0.0000
     20  C3B      -52.5520   -2.9530  -36.5620 C.2   601  HEM601      0.0000
     21  C4B      -52.9660   -1.8190  -35.7760 C.2   601  HEM601      0.0000
     22  CMB      -52.4650   -5.5130  -36.3400 C.3   601  HEM601      0.0000
     23  CAB      -51.9920   -2.8280  -37.9910 C.2   601  HEM601      0.0000
     24  CBB      -51.6540   -3.9230  -38.6490 C.2   601  HEM601      0.0000
     25  NC       -53.6720    0.4820  -34.1280 N.ar  601  HEM601      0.0000
     26  C1C      -53.2690    0.5460  -35.4390 C.ar  601  HEM601      0.0000
     27  C2C      -53.2950    1.9200  -35.9000 C.ar  601  HEM601      0.0000
     28  C3C      -53.7060    2.6280  -34.8630 C.ar  601  HEM601      0.0000
     29  C4C      -53.9490    1.7610  -33.7610 C.ar  601  HEM601      0.0000
     30  CMC      -52.9240    2.4380  -37.3310 C.3   601  HEM601      0.0000
     31  CAC      -53.9320    4.1400  -34.7690 C.2   601  HEM601      0.0000
     32  CBC      -53.7080    4.9230  -35.8030 C.2   601  HEM601      0.0000
     33  ND       -54.9000    0.0290  -31.5920 N.2   601  HEM601      0.0000
     34  C1D      -54.8290    1.4070  -31.5620 C.2   601  HEM601      0.0000
     35  C2D      -55.2980    1.9030  -30.3040 C.2   601  HEM601      0.0000
     36  C3D      -55.6830    0.6760  -29.5370 C.2   601  HEM601      0.0000
     37  C4D      -55.3960   -0.4350  -30.3900 C.2   601  HEM601      0.0000
     38  CMD      -55.3910    3.3710  -29.8300 C.3   601  HEM601      0.0000
     39  CAD      -56.2570    0.6610  -28.1330 C.3   601  HEM601      0.0000
     40  CBD      -57.7510    0.8390  -28.2770 C.3   601  HEM601      0.0000
     41  CGD      -58.3870    0.8310  -26.9270 C.2   601  HEM601      0.0000
     42  O1D      -59.5790    1.1560  -26.8420 O.co2 601  HEM601      0.0000
     43  O2D      -57.7210    0.5060  -25.9330 O.co2 601  HEM601      0.0000
@<TRIPOS>BOND
     1    24    23    2
     2    23    20    1
     3    30    27    1
     4    20    19    2
     5    20    21    1
     6    22    19    1
     7     4    21    2
     8     4    26    1
     9    27    26   ar
    10    27    28   ar
    11    19    18    1
    12    32    31    2
    13    21    17    1
    14    26    25   ar
    15    28    31    1
    16    28    29   ar
    17    18    17    2
    18    18     3    1
    19    17     1    1
    20    25    29   ar
    21    25     1    1
    22    29     5    1
    23     3    10    2
    24     1     6    1
    25     1    33    1
    26     5    34    2
    27    10     6   ar
    28    10     9   ar
    29     6     7   ar
    30    33    34    1
    31    33    37    2
    32    34    35    1
    33     9    11    1
    34     9     8   ar
    35     7     8   ar
    36     7     2    2
    37    37     2    1
    38    37    36    1
    39     8    12    1
    40    35    38    1
    41    35    36    2
    42    36    39    1
    43    12    13    1
    44    13    14    1
    45    40    39    1
    46    40    41    1
    47    14    16   ar
    48    14    15   ar
    49    41    42   ar
    50    41    43   ar
