@<TRIPOS>MOLECULE
3c6k_SPD_A_1.pdb
 10 9 0 0 0
SMALL
GASTEIGER

@<TRIPOS>ATOM
      1  N1         7.0870   62.7080   -0.7750 N.3   501  SPD501     -0.1314
      2  C2         7.6380   63.6050    0.2150 C.3   501  SPD501      0.1094
      3  C3         7.4030   65.0540   -0.2070 C.3   501  SPD501      0.0220
      4  C4         7.5520   66.0690    0.9130 C.3   501  SPD501      0.0203
      5  C5         6.8880   67.3090    0.3890 C.3   501  SPD501      0.0887
      6  N6         6.8180   68.4100    1.3400 N.3   501  SPD501     -0.2180
      7  C7         6.2520   69.5980    0.7270 C.3   501  SPD501      0.0902
      8  C8         6.0160   70.8380    1.6080 C.3   501  SPD501      0.0393
      9  C9         4.8180   71.6260    1.0550 C.3   501  SPD501      0.1108
     10  N10        4.8880   72.9540    1.6620 N.3   501  SPD501     -0.1313
@<TRIPOS>BOND
     1     1     2    1
     2     3     2    1
     3     3     4    1
     4     5     4    1
     5     5     6    1
     6     7     6    1
     7     7     8    1
     8     9     8    1
     9     9    10    1
