@<TRIPOS>MOLECULE
3c6k_MTA_A_1.pdb
 20 22 0 0 0
SMALL
GASTEIGER

@<TRIPOS>ATOM
      1  CS         3.4420   59.5240    1.0760 C.3   401  MTA401      0.0693
      2  S5'        4.9420   59.4340    0.1620 S.3   401  MTA401     -0.1367
      3  C5'        6.0290   59.2410    1.5380 C.3   401  MTA401      0.0899
      4  C4'        6.0910   57.7460    1.9250 C.3   401  MTA401      0.1630
      5  O4'        7.4200   57.2710    2.0720 O.3   401  MTA401     -0.3153
      6  C2'        6.5040   56.9480    4.1740 C.3   401  MTA401      0.2569
      7  O2'        5.9760   56.0280    5.1500 O.3   401  MTA401     -0.2130
      8  C3'        5.4290   57.5610    3.2890 C.3   401  MTA401      0.2168
      9  O3'        4.2970   56.6920    3.1200 O.3   401  MTA401     -0.2175
     10  C1'        7.3870   56.3070    3.1100 C.3   401  MTA401      0.3185
     11  N9         8.7480   55.9980    3.6340 N.pl3 401  MTA401     -0.1439
     12  C8         9.5820   56.7620    4.3480 C.3   401  MTA401      0.3377
     13  N7        10.7530   56.1150    4.6200 N.2   401  MTA401     -0.2095
     14  C5        10.6600   54.8970    4.0840 C.2   401  MTA401      0.2526
     15  C6        11.5140   53.6820    3.9910 C.2   401  MTA401      0.4393
     16  N6        12.7150   53.6280    4.5650 N.pl3 401  MTA401      0.2180
     17  N1        11.0520   52.6320    3.2770 N.2   401  MTA401      0.0021
     18  C2         9.8430   52.6540    2.6960 C.3   401  MTA401      0.5254
     19  N3         9.0010   53.7030    2.7490 N.2   401  MTA401     -0.0055
     20  C4         9.3420   54.8250    3.4340 C.2   401  MTA401      0.3518
@<TRIPOS>BOND
     1     2     1    1
     2     2     3    1
     3     3     4    1
     4     4     5    1
     5     4     8    1
     6     5    10    1
     7    18    19    1
     8    18    17    1
     9    19    20    2
    10    10    11    1
    11    10     6    1
    12     9     8    1
    13    17    15    2
    14     8     6    1
    15    20    11    1
    16    20    14    1
    17    11    12    1
    18    15    14    1
    19    15    16    1
    20    14    13    2
    21     6     7    1
    22    12    13    1
