@<TRIPOS>MOLECULE
3c6m_SPM_A_1.pdb
 14 13 0 0 0
SMALL
GASTEIGER

@<TRIPOS>ATOM
      1  N1        47.3190  -12.5200    3.4480 N.3   501  SPM501     -0.1313
      2  C2        45.9300  -13.0420    3.4620 C.3   501  SPM501      0.1108
      3  C3        44.7300  -12.0610    3.3450 C.3   501  SPM501      0.0393
      4  C4        43.4970  -12.7160    2.7150 C.3   501  SPM501      0.0902
      5  N5        42.8020  -11.8540    1.7300 N.3   501  SPM501     -0.2180
      6  C6        41.6640  -12.3100    0.9140 C.3   501  SPM501      0.0888
      7  C7        41.2950  -11.5730   -0.3910 C.3   501  SPM501      0.0209
      8  C8        40.0260  -12.2220   -0.9830 C.3   501  SPM501      0.0278
      9  C9        39.3760  -11.5920   -2.2440 C.3   501  SPM501      0.1252
     10  N10       39.1340  -12.5700   -3.3270 N.2   501  SPM501     -0.2735
     11  C11       37.8110  -13.0610   -3.7400 C.2   501  SPM501      0.0683
     12  C12       37.7530  -14.0200   -4.9500 C.3   501  SPM501      0.0670
     13  C13       38.5920  -15.3270   -4.8960 C.3   501  SPM501      0.1156
     14  N14       37.8320  -16.5840   -4.7250 N.3   501  SPM501     -0.1310
@<TRIPOS>BOND
     1    12    13    1
     2    12    11    1
     3    13    14    1
     4    11    10    2
     5    10     9    1
     6     9     8    1
     7     8     7    1
     8     7     6    1
     9     6     5    1
    10     5     4    1
    11     4     3    1
    12     3     2    1
    13     1     2    1
