@<TRIPOS>MOLECULE
3c6m_MTA_A_1.pdb
 20 22 0 0 0
SMALL
GASTEIGER

@<TRIPOS>ATOM
      1  CS        40.0990  -16.1980   -8.3240 C.3   401  MTA401      0.0693
      2  S5'       38.3340  -16.1690   -8.5540 S.3   401  MTA401     -0.1367
      3  C5'       38.5590  -14.4140   -8.7810 C.3   401  MTA401      0.0899
      4  C4'       38.4170  -14.1230  -10.2850 C.3   401  MTA401      0.1630
      5  O4'       37.7180  -12.9210  -10.6630 O.3   401  MTA401     -0.3153
      6  C2'       39.6720  -12.8690  -11.8990 C.3   401  MTA401      0.2569
      7  O2'       40.2170  -13.0850  -13.2070 O.3   401  MTA401     -0.2130
      8  C3'       39.7610  -14.0950  -10.9950 C.3   401  MTA401      0.2168
      9  O3'       39.8680  -15.3460  -11.7000 O.3   401  MTA401     -0.2175
     10  C1'       38.1720  -12.6520  -11.9850 C.3   401  MTA401      0.3185
     11  N9        37.7920  -11.3200  -12.4970 N.pl3 401  MTA401     -0.1439
     12  C8        38.2880  -10.1360  -12.0870 C.3   401  MTA401      0.3377
     13  N7        37.7220   -9.1110  -12.7610 N.2   401  MTA401     -0.2095
     14  C5        36.8470   -9.6300  -13.6360 C.2   401  MTA401      0.2526
     15  C6        35.9150   -9.0820  -14.6550 C.2   401  MTA401      0.4393
     16  N6        35.8370   -7.7540  -14.8650 N.pl3 401  MTA401      0.2180
     17  N1        35.1510   -9.9560  -15.3460 N.2   401  MTA401      0.0021
     18  C2        35.2320  -11.2980  -15.1350 C.3   401  MTA401      0.5254
     19  N3        36.0650  -11.8730  -14.2320 N.2   401  MTA401     -0.0055
     20  C4        36.8850  -11.0960  -13.4590 C.2   401  MTA401      0.3518
@<TRIPOS>BOND
     1    17    18    1
     2    17    15    2
     3    18    19    1
     4    16    15    1
     5    15    14    1
     6    19    20    2
     7    14    20    1
     8    14    13    2
     9    20    11    1
    10     7     6    1
    11    13    12    1
    12    11    12    1
    13    11    10    1
    14    10     6    1
    15    10     5    1
    16     6     8    1
    17     9     8    1
    18     8     4    1
    19     5     4    1
    20     4     3    1
    21     3     2    1
    22     2     1    1
