@<TRIPOS>MOLECULE
3c6n_2S8_B_1.pdb
 27 28 0 0 0
SMALL
GASTEIGER

@<TRIPOS>ATOM
      1  OAD       -7.0950    9.1390   34.5320 O.co2 1001  2S81001    -0.2453
      2  CAU       -7.0680    9.6750   33.3920 C.2   1001  2S81001     0.3681
      3  OAF       -7.1910    9.0870   32.2930 O.co2 1001  2S81001    -0.2453
      4  CAZ       -6.8790   11.1570   33.3510 C.3   1001  2S81001     0.1238
      5  CAW       -8.2480   11.8120   33.6390 C.2   1001  2S81001    -0.0055
      6  CAK       -9.2660   11.9970   32.7850 C.2   1001  2S81001     0.0911
      7  NAS      -10.2780   12.5820   33.3820 N.2   1001  2S81001    -0.2481
      8  CAX       -9.9470   12.8050   34.6680 C.2   1001  2S81001     0.0665
      9  CAI      -10.6420   13.3720   35.7120 C.2   1001  2S81001     0.0153
     10  CAG      -10.0260   13.4520   36.9530 C.2   1001  2S81001     0.0009
     11  CAH       -8.7460   12.9700   37.1680 C.2   1001  2S81001    -0.0038
     12  CAJ       -8.0420   12.3950   36.1290 C.2   1001  2S81001    -0.0164
     13  CAY       -8.6500   12.3200   34.8910 C.3   1001  2S81001     0.0824
     14  CAQ       -6.3530   11.5880   31.9900 C.3   1001  2S81001     0.0154
     15  CAO       -4.8300   11.4130   31.9320 C.3   1001  2S81001     0.0009
     16  CAM       -4.1830   12.4050   30.9690 C.3   1001  2S81001     0.0001
     17  CAL       -2.6880   12.6150   31.2640 C.3   1001  2S81001     0.0018
     18  CAN       -2.3000   14.0890   31.0850 C.3   1001  2S81001     0.0235
     19  CAP       -0.7930   14.2760   31.0720 C.3   1001  2S81001     0.1187
     20  NAR       -0.3850   15.0760   32.2140 N.am  1001  2S81001    -0.1687
     21  CAV        0.4770   16.0870   32.2320 C.2   1001  2S81001     0.4209
     22  OAE        1.0520   16.4720   31.2320 O.2   1001  2S81001    -0.2246
     23  OAT        0.6920   16.6980   33.4900 O.3   1001  2S81001    -0.4408
     24  CBA        0.4500   18.1390   33.6620 C.3   1001  2S81001     0.1379
     25  CAC       -0.9650   18.3310   34.2450 C.3   1001  2S81001     0.0437
     26  CAB        0.5440   18.8100   32.2990 C.3   1001  2S81001     0.0437
     27  CAA        1.4890   18.7220   34.6190 C.3   1001  2S81001     0.0437
@<TRIPOS>BOND
     1    16    17    1
     2    16    15    1
     3    19    18    1
     4    19    20    1
     5    18    17    1
     6    22    21    2
     7    15    14    1
     8    14     4    1
     9    20    21   am
    10    21    23    1
    11     3     2   ar
    12    26    24    1
    13     6     7    1
    14     6     5    2
    15     4     2    1
    16     4     5    1
    17     7     8    2
    18     2     1   ar
    19    23    24    1
    20     5    13    1
    21    24    25    1
    22    24    27    1
    23     8    13    1
    24     8     9    1
    25    13    12    1
    26     9    10    2
    27    12    11    2
    28    10    11    1
