@<TRIPOS>MOLECULE
3c6n_IHP_B_1.pdb
 36 36 0 0 0
SMALL
GASTEIGER

@<TRIPOS>ATOM
      1  C1        -2.1220    0.3070   35.7840 C.3   1000  IHP1000     0.1863
      2  C2        -2.3780   -0.4410   34.4960 C.3   1000  IHP1000     0.1863
      3  C3        -3.0470    0.4450   33.4850 C.3   1000  IHP1000     0.1863
      4  C4        -2.1070    1.5560   33.1030 C.3   1000  IHP1000     0.1863
      5  C5        -1.9500    2.4100   34.3320 C.3   1000  IHP1000     0.1863
      6  C6        -1.4310    1.6500   35.5470 C.3   1000  IHP1000     0.1863
      7  O11       -1.3210   -0.5270   36.6150 O.3   1000  IHP1000    -0.2675
      8  P1        -2.0010   -1.5280   37.6530 P.3   1000  IHP1000     0.5327
      9  O21       -1.1730   -1.7150   38.8420 O.3   1000  IHP1000    -0.1145
     10  O31       -3.4330   -0.9300   37.9690 O.3   1000  IHP1000    -0.1145
     11  O41       -2.2720   -2.8830   36.9160 O.2   1000  IHP1000    -0.2224
     12  O12       -1.1480   -0.9010   33.9740 O.3   1000  IHP1000    -0.2675
     13  P2        -0.9710   -2.4570   33.7240 P.3   1000  IHP1000     0.5327
     14  O22       -0.2180   -3.1220   34.8010 O.3   1000  IHP1000    -0.1145
     15  O32       -2.4510   -3.0400   33.5370 O.3   1000  IHP1000    -0.1145
     16  O42       -0.2510   -2.5790   32.3090 O.2   1000  IHP1000    -0.2224
     17  O13       -3.3780   -0.3210   32.3490 O.3   1000  IHP1000    -0.2675
     18  P3        -4.8180   -0.2220   31.6920 P.3   1000  IHP1000     0.5327
     19  O23       -5.2780   -1.5620   31.2890 O.3   1000  IHP1000    -0.1145
     20  O33       -4.6760    0.8100   30.4850 O.2   1000  IHP1000    -0.2224
     21  O43       -5.7800    0.4860   32.7370 O.3   1000  IHP1000    -0.1145
     22  O14       -2.7650    2.3480   32.1250 O.3   1000  IHP1000    -0.2675
     23  P4        -2.0730    2.8700   30.8130 P.3   1000  IHP1000     0.5327
     24  O24       -2.1320    4.3250   30.7000 O.3   1000  IHP1000    -0.1145
     25  O34       -0.6010    2.3090   30.7760 O.3   1000  IHP1000    -0.1145
     26  O44       -2.8650    2.1300   29.6800 O.2   1000  IHP1000    -0.2224
     27  O15       -1.1410    3.5330   34.0500 O.3   1000  IHP1000    -0.2675
     28  P5        -1.5510    4.8750   34.7190 P.3   1000  IHP1000     0.5327
     29  O25       -2.0020    4.6700   36.0960 O.3   1000  IHP1000    -0.1145
     30  O35       -2.6400    5.4950   33.7870 O.2   1000  IHP1000    -0.2224
     31  O45       -0.3190    5.8270   34.6020 O.3   1000  IHP1000    -0.1145
     32  O16       -1.6340    2.4760   36.6790 O.3   1000  IHP1000    -0.2675
     33  P6        -0.4820    2.5290   37.7030 P.3   1000  IHP1000     0.5327
     34  O26        0.5550    1.5680   37.3340 O.2   1000  IHP1000    -0.2224
     35  O36       -1.1660    2.2550   39.0850 O.3   1000  IHP1000    -0.1145
     36  O46        0.0080    4.0210   37.7690 O.3   1000  IHP1000    -0.1145
@<TRIPOS>BOND
     1    26    23    2
     2    20    18    2
     3    24    23    1
     4    25    23    1
     5    23    22    1
     6    19    18    1
     7    18    17    1
     8    18    21    1
     9    22     4    1
    10    16    13    2
    11    17     3    1
    12     4     3    1
    13     4     5    1
    14     3     2    1
    15    15    13    1
    16    13    12    1
    17    13    14    1
    18    30    28    2
    19    12     2    1
    20    27     5    1
    21    27    28    1
    22     5     6    1
    23     2     1    1
    24    31    28    1
    25    28    29    1
    26     6     1    1
    27     6    32    1
    28     1     7    1
    29     7     8    1
    30    32    33    1
    31    11     8    2
    32    34    33    2
    33     8    10    1
    34     8     9    1
    35    33    36    1
    36    33    35    1
