@<TRIPOS>MOLECULE
3c6o_IHP_B_1.pdb
 36 36 0 0 0
SMALL
GASTEIGER

@<TRIPOS>ATOM
      1  C1        23.5400    0.3500   35.7670 C.3   1000  IHP1000     0.1863
      2  C2        23.1170   -0.4840   34.5640 C.3   1000  IHP1000     0.1863
      3  C3        22.4980    0.3640   33.4800 C.3   1000  IHP1000     0.1863
      4  C4        23.4200    1.4780   33.0560 C.3   1000  IHP1000     0.1863
      5  C5        23.5980    2.3800   34.2490 C.3   1000  IHP1000     0.1863
      6  C6        24.2490    1.6580   35.4160 C.3   1000  IHP1000     0.1863
      7  O11       24.3280   -0.4420   36.6440 O.3   1000  IHP1000    -0.2675
      8  P1        23.5950   -1.5080   37.5460 P.3   1000  IHP1000     0.5327
      9  O21       24.3900   -1.8900   38.7100 O.3   1000  IHP1000    -0.1145
     10  O31       22.2100   -0.8470   37.9160 O.3   1000  IHP1000    -0.1145
     11  O41       23.2520   -2.7360   36.6250 O.2   1000  IHP1000    -0.2224
     12  O12       24.1960   -1.2330   34.0440 O.3   1000  IHP1000    -0.2675
     13  P2        23.8640   -2.6720   33.4650 P.3   1000  IHP1000     0.5327
     14  O22       24.1220   -3.7550   34.4260 O.3   1000  IHP1000    -0.1145
     15  O32       22.3380   -2.6190   33.0060 O.3   1000  IHP1000    -0.1145
     16  O42       24.7290   -2.7960   32.1400 O.2   1000  IHP1000    -0.2224
     17  O13       22.1400   -0.4190   32.3650 O.3   1000  IHP1000    -0.2675
     18  P3        20.8220   -0.0270   31.5850 P.3   1000  IHP1000     0.5327
     19  O23       20.2070   -1.1840   30.9230 O.3   1000  IHP1000    -0.1145
     20  O33       21.2270    1.1230   30.5800 O.2   1000  IHP1000    -0.2224
     21  O43       19.8910    0.6690   32.6590 O.3   1000  IHP1000    -0.1145
     22  O14       22.7380    2.2220   32.0540 O.3   1000  IHP1000    -0.2675
     23  P4        23.5290    2.9380   30.8980 P.3   1000  IHP1000     0.5327
     24  O24       23.4840    4.4000   30.9760 O.3   1000  IHP1000    -0.1145
     25  O34       24.9920    2.3220   30.9380 O.3   1000  IHP1000    -0.1145
     26  O44       22.8610    2.3950   29.5820 O.2   1000  IHP1000    -0.2224
     27  O15       24.3460    3.5200   33.8770 O.3   1000  IHP1000    -0.2675
     28  P5        24.0460    4.8790   34.5790 P.3   1000  IHP1000     0.5327
     29  O25       23.7710    4.7270   36.0080 O.3   1000  IHP1000    -0.1145
     30  O35       22.8550    5.5320   33.8090 O.2   1000  IHP1000    -0.2224
     31  O45       25.2920    5.7710   34.2700 O.3   1000  IHP1000    -0.1145
     32  O16       24.1410    2.5200   36.5320 O.3   1000  IHP1000    -0.2675
     33  P6        25.2160    2.4500   37.6360 P.3   1000  IHP1000     0.5327
     34  O26       26.1100    1.3010   37.4630 O.2   1000  IHP1000    -0.2224
     35  O36       24.3930    2.4150   38.9610 O.3   1000  IHP1000    -0.1145
     36  O46       25.9390    3.8450   37.6220 O.3   1000  IHP1000    -0.1145
@<TRIPOS>BOND
     1    26    23    2
     2    20    18    2
     3    23    25    1
     4    23    24    1
     5    23    22    1
     6    19    18    1
     7    18    17    1
     8    18    21    1
     9    22     4    1
    10    16    13    2
    11    17     3    1
    12    15    13    1
    13     4     3    1
    14     4     5    1
    15    13    12    1
    16    13    14    1
    17     3     2    1
    18    30    28    2
    19    27     5    1
    20    27    28    1
    21    12     2    1
    22     5     6    1
    23    31    28    1
    24     2     1    1
    25    28    29    1
    26     6     1    1
    27     6    32    1
    28     1     7    1
    29    32    33    1
    30    11     8    2
    31     7     8    1
    32    34    33    2
    33     8    10    1
    34     8     9    1
    35    36    33    1
    36    33    35    1
