@<TRIPOS>MOLECULE
3c6o_2S2_B_1.pdb
 17 18 0 0 0
SMALL
GASTEIGER

@<TRIPOS>ATOM
      1  OAC       18.9350    9.1730   34.4060 O.co2 1001  2S21001    -0.2453
      2  CAN       18.6050    9.8000   33.3590 C.2   1001  2S21001     0.3681
      3  OAB       17.9740    9.2300   32.4790 O.co2 1001  2S21001    -0.2453
      4  CAR       18.8770   11.2710   33.1200 C.3   1001  2S21001     0.1238
      5  CAL       19.3260   11.5600   31.6790 C.3   1001  2S21001     0.0154
      6  CAK       20.5440   12.5140   31.5820 C.3   1001  2S21001     0.0009
      7  CAJ       21.8200   12.0730   30.8160 C.3   1001  2S21001     0.0000
      8  CAI       22.7130   13.2540   30.4000 C.3   1001  2S21001     0.0000
      9  CAO       17.6400   11.9990   33.5510 C.2   1001  2S21001    -0.0055
     10  CAQ       17.2200   12.4320   34.8200 C.3   1001  2S21001     0.0824
     11  CAG       17.8610   12.3790   36.0670 C.2   1001  2S21001    -0.0164
     12  CAE       17.2190   12.8950   37.1810 C.2   1001  2S21001    -0.0038
     13  CAD       15.9580   13.4560   37.0220 C.2   1001  2S21001     0.0009
     14  CAF       15.2960   13.5160   35.7910 C.2   1001  2S21001     0.0153
     15  CAP       15.8990   13.0060   34.6460 C.2   1001  2S21001     0.0665
     16  NM        15.4590   12.9310   33.3270 N.2   1001  2S21001    -0.2481
     17  CAH       16.5370   12.3680   33.0110 C.2   1001  2S21001     0.0911
@<TRIPOS>BOND
     1     8     7    1
     2     7     6    1
     3     6     5    1
     4     5     4    1
     5     3     2   ar
     6    17    16    1
     7    17     9    2
     8     4     2    1
     9     4     9    1
    10    16    15    2
    11     2     1   ar
    12     9    10    1
    13    15    10    1
    14    15    14    1
    15    10    11    1
    16    14    13    2
    17    11    12    2
    18    13    12    1
