@<TRIPOS>MOLECULE
3c6p_IHP_B_1.pdb
 36 36 0 0 0
SMALL
GASTEIGER

@<TRIPOS>ATOM
      1  C1        24.4150    0.0600   35.6820 C.3   1000  IHP1000     0.1863
      2  C2        24.3950   -0.2900   34.2210 C.3   1000  IHP1000     0.1863
      3  C3        23.3990    0.2770   33.1840 C.3   1000  IHP1000     0.1863
      4  C4        23.9840    1.6760   33.0760 C.3   1000  IHP1000     0.1863
      5  C5        24.7670    2.2320   34.2620 C.3   1000  IHP1000     0.1863
      6  C6        24.6870    1.5600   35.6540 C.3   1000  IHP1000     0.1863
      7  O11       23.3870   -0.4360   36.5020 O.3   1000  IHP1000    -0.2675
      8  P1        23.5910   -1.5990   37.6310 P.3   1000  IHP1000     0.5327
      9  O21       24.9700   -1.6670   38.2510 O.3   1000  IHP1000    -0.1145
     10  O31       22.5800   -0.9480   38.5540 O.3   1000  IHP1000    -0.1145
     11  O41       23.1010   -2.8590   36.9450 O.2   1000  IHP1000    -0.2224
     12  O12       24.9930   -1.5300   34.0990 O.3   1000  IHP1000    -0.2675
     13  P2        24.1730   -2.8170   33.6310 P.3   1000  IHP1000     0.5327
     14  O22       24.7190   -3.9040   34.5860 O.3   1000  IHP1000    -0.1145
     15  O32       22.6520   -2.5990   33.6900 O.3   1000  IHP1000    -0.1145
     16  O42       24.7600   -2.7610   32.2260 O.2   1000  IHP1000    -0.2224
     17  O13       21.9670    0.3500   33.2650 O.3   1000  IHP1000    -0.2675
     18  P3        20.8770    0.1810   32.0040 P.3   1000  IHP1000     0.5327
     19  O23       21.2350   -1.1360   31.3270 O.3   1000  IHP1000    -0.1145
     20  O33       20.8490    1.2730   30.9420 O.2   1000  IHP1000    -0.2224
     21  O43       19.6320    0.2920   32.8890 O.3   1000  IHP1000    -0.1145
     22  O14       23.1970    2.6530   32.4220 O.3   1000  IHP1000    -0.2675
     23  P4        23.7480    3.0060   30.9160 P.3   1000  IHP1000     0.5327
     24  O24       23.6890    4.5240   30.8030 O.3   1000  IHP1000    -0.1145
     25  O34       25.1490    2.3440   30.9010 O.3   1000  IHP1000    -0.1145
     26  O44       22.6890    2.3070   30.0530 O.2   1000  IHP1000    -0.2224
     27  O15       24.9440    3.6630   34.2020 O.3   1000  IHP1000    -0.2675
     28  P5        24.0840    4.9190   34.7280 P.3   1000  IHP1000     0.5327
     29  O25       23.5310    4.5110   36.0480 O.3   1000  IHP1000    -0.1145
     30  O35       23.0010    5.2640   33.7570 O.2   1000  IHP1000    -0.2224
     31  O45       25.1580    5.9520   34.9240 O.3   1000  IHP1000    -0.1145
     32  O16       24.1400    2.3080   36.7170 O.3   1000  IHP1000    -0.2675
     33  P6        25.3280    2.6380   37.7570 P.3   1000  IHP1000     0.5327
     34  O26       26.5800    1.9020   37.2800 O.2   1000  IHP1000    -0.2224
     35  O36       24.6610    1.9740   38.9540 O.3   1000  IHP1000    -0.1145
     36  O46       25.4670    4.1700   37.7980 O.3   1000  IHP1000    -0.1145
@<TRIPOS>BOND
     1    26    23    2
     2    24    23    1
     3    25    23    1
     4    23    22    1
     5    20    18    2
     6    19    18    1
     7    18    21    1
     8    18    17    1
     9    16    13    2
    10    22     4    1
    11     4     3    1
    12     4     5    1
    13     3    17    1
    14     3     2    1
    15    13    15    1
    16    13    12    1
    17    13    14    1
    18    30    28    2
    19    12     2    1
    20    27     5    1
    21    27    28    1
    22     2     1    1
    23     5     6    1
    24    28    31    1
    25    28    29    1
    26     6     1    1
    27     6    32    1
    28     1     7    1
    29     7     8    1
    30    32    33    1
    31    11     8    2
    32    34    33    2
    33     8     9    1
    34     8    10    1
    35    33    36    1
    36    33    35    1
