@<TRIPOS>MOLECULE
3c6p_2S3_B_1.pdb
 16 17 0 0 0
SMALL
GASTEIGER

@<TRIPOS>ATOM
      1  OAC       18.7890    8.6820   34.9250 O.co2 1001  2S31001    -0.2453
      2  CAM       18.4250    9.4120   33.9140 C.2   1001  2S31001     0.3681
      3  OAB       17.6620    9.0100   33.0130 O.co2 1001  2S31001    -0.2453
      4  CAQ       18.8410   10.8510   33.6940 C.3   1001  2S31001     0.1233
      5  CAK       19.3040   11.0220   32.2610 C.3   1001  2S31001     0.0154
      6  CAJ       18.7290   12.2840   31.6060 C.3   1001  2S31001     0.0009
      7  CAI       17.4930   12.0890   30.7580 C.3   1001  2S31001     0.0000
      8  CAN       17.6770   11.7200   34.0790 C.2   1001  2S31001    -0.0123
      9  CAP       17.3410   12.3390   35.2650 C.2   1001  2S31001    -0.0098
     10  CAG       18.0760   12.3660   36.5000 C.3   1001  2S31001     0.0526
     11  CAE       17.5270   13.0710   37.5670 C.2   1001  2S31001    -0.0256
     12  CAD       16.3140   13.7140   37.3880 C.2   1001  2S31001    -0.0240
     13  CAF       15.5680   13.7090   36.1780 C.3   1001  2S31001     0.0706
     14  CAO       16.1090   12.9700   35.0750 C.2   1001  2S31001     0.0542
     15  NL        15.6820   12.7780   33.7560 N.2   1001  2S31001    -0.2702
     16  CAH       16.6110   11.9570   33.1180 C.3   1001  2S31001     0.1475
@<TRIPOS>BOND
     1     7     6    1
     2     6     5    1
     3     5     4    1
     4     3     2   ar
     5    16    15    1
     6    16     8    1
     7     4     2    1
     8     4     8    1
     9    15    14    2
    10     2     1   ar
    11     8     9    2
    12    14     9    1
    13    14    13    1
    14     9    10    1
    15    13    12    1
    16    10    11    1
    17    12    11    2
