@<TRIPOS>MOLECULE
3c6q_XYP_C_1.pdb
 10 10 0 0 0
SMALL
GASTEIGER

@<TRIPOS>ATOM
      1  O4A        9.0070  -37.0110   35.6140 O.3   500  XYP500     -0.1869
      2  C1B        8.6230  -36.1930   36.6970 C.3   500  XYP500      0.3024
      3  C2B        7.3590  -35.4790   36.3290 C.3   500  XYP500      0.2434
      4  C3B        6.9220  -34.5640   37.4710 C.3   500  XYP500      0.2199
      5  C4B        6.9600  -35.2990   38.8130 C.3   500  XYP500      0.2143
      6  C5B        8.1560  -36.2330   38.9690 C.3   500  XYP500      0.1804
      7  O2B        7.6080  -34.7160   35.1750 O.3   500  XYP500     -0.2148
      8  O3B        5.6110  -34.0770   37.2250 O.3   500  XYP500     -0.2174
      9  O4B        6.9860  -34.3630   39.8680 O.3   500  XYP500     -0.2176
     10  O5B        8.4220  -36.9640   37.7910 O.3   500  XYP500     -0.3237
@<TRIPOS>BOND
     1     7     3    1
     2     1     2    1
     3     3     2    1
     4     3     4    1
     5     2    10    1
     6     8     4    1
     7     4     5    1
     8    10     6    1
     9     5     6    1
    10     5     9    1
