@<TRIPOS>MOLECULE
3c6s_GLC_B_1.pdb
 11 11 0 0 0
SMALL
GASTEIGER

@<TRIPOS>ATOM
      1  C1        -4.6540   11.1400   24.8210 C.3   304  GLC304      0.1777
      2  C2        -3.4980   10.4460   24.1520 C.3   304  GLC304      0.2141
      3  C3        -3.4020   10.8890   22.7050 C.3   304  GLC304      0.2173
      4  C4        -4.7260   10.6540   21.9890 C.3   304  GLC304      0.2142
      5  C5        -5.9380   11.1900   22.7710 C.3   304  GLC304      0.1810
      6  C6        -7.2320   10.6100   22.1740 C.3   304  GLC304      0.2141
      7  O2        -2.3110   10.7550   24.8120 O.3   304  GLC304     -0.2176
      8  O3        -2.2540   10.3120   22.0890 O.3   304  GLC304     -0.2175
      9  O4        -4.7350   11.1230   20.6530 O.3   304  GLC304     -0.2176
     10  O5        -5.8790   10.8690   24.1660 O.3   304  GLC304     -0.3481
     11  O6        -7.2460    9.1830   22.2220 O.3   304  GLC304     -0.2176
@<TRIPOS>BOND
     1     9     4    1
     2     4     3    1
     3     4     5    1
     4     8     3    1
     5     6    11    1
     6     6     5    1
     7     3     2    1
     8     5    10    1
     9     2     7    1
    10     2     1    1
    11    10     1    1
