@<TRIPOS>MOLECULE
3c6s_RAM_B_1.pdb
 10 10 0 0 0
SMALL
GASTEIGER

@<TRIPOS>ATOM
      1  C1        -7.2230   22.2460   28.3840 C.3   306  RAM306      0.1776
      2  C2        -6.1260   21.6470   29.2500 C.3   306  RAM306      0.2141
      3  C3        -6.5050   21.8010   30.7180 C.3   306  RAM306      0.2172
      4  C4        -7.8010   21.0760   30.9930 C.3   306  RAM306      0.2116
      5  C5        -8.8450   21.4940   29.9510 C.3   306  RAM306      0.1483
      6  C6       -10.0910   20.6370   30.0560 C.3   306  RAM306      0.0349
      7  O2        -6.0700   20.2490   28.9840 O.3   306  RAM306     -0.2176
      8  O3        -5.5300   21.3560   31.6130 O.3   306  RAM306     -0.2175
      9  O4        -8.1630   21.4210   32.3170 O.3   306  RAM306     -0.2177
     10  O5        -8.3710   21.4610   28.5950 O.3   306  RAM306     -0.3508
@<TRIPOS>BOND
     1     1    10    1
     2     1     2    1
     3    10     5    1
     4     7     2    1
     5     2     3    1
     6     5     6    1
     7     5     4    1
     8     3     4    1
     9     3     8    1
    10     4     9    1
