@<TRIPOS>MOLECULE
3c6t_M14_A_1.pdb
 33 35 0 0 0
SMALL
GASTEIGER

@<TRIPOS>ATOM
      1  C          6.2340    9.4580   14.2650 C.ar  561  M14561      0.0841
      2  C1         6.3280    8.7510   13.0590 C.ar  561  M14561      0.0188
      3  C2         6.4130    7.3610   13.0520 C.ar  561  M14561      0.0214
      4  C3         6.3990    6.6920   14.2760 C.ar  561  M14561      0.1260
      5  C4         6.3170    7.3860   15.4740 C.ar  561  M14561      0.0327
      6  C5         6.2190    8.7650   15.4450 C.ar  561  M14561      0.0743
      7  C6         9.9950   12.2880   16.9740 C.ar  561  M14561      0.1492
      8  C7        10.9710   12.5940   16.0720 C.ar  561  M14561      0.0491
      9  C8        10.5600   13.1130   14.8700 C.ar  561  M14561      0.0637
     10  C9         9.1920   13.3360   14.5580 C.ar  561  M14561      0.0485
     11  C10        8.2000   13.0060   15.4970 C.ar  561  M14561      0.1432
     12  C11        8.6370   12.4690   16.7100 C.ar  561  M14561      0.0744
     13  C12       10.0390   12.2380   21.6910 C.ar  561  M14561      0.0614
     14  C13       10.1410   11.6540   20.4450 C.ar  561  M14561      0.0489
     15  C14       10.3240   12.4390   19.3250 C.ar  561  M14561      0.1468
     16  C15       10.4050   13.8170   19.4310 C.ar  561  M14561      0.0478
     17  C16       10.2850   14.3610   20.7000 C.ar  561  M14561      0.0723
     18  C17       10.1150   13.6020   21.8460 C.ar  561  M14561      0.0219
     19 CL          9.8220   11.2850   23.1110 Cl    561  M14561     -0.0821
     20  O         10.4450   11.7650   18.1410 O.3   561  M14561     -0.4533
     21 CL1        11.8680   13.5280   13.7970 Cl    561  M14561     -0.0820
     22  O19        6.8090   13.1030   15.4510 O.3   561  M14561     -0.4654
     23  C20        6.0950   13.2010   14.2260 C.3   561  M14561      0.2915
     24  C21        6.1700   11.8500   13.5410 C.2   561  M14561      0.2901
     25  N          6.1530   10.8470   14.4690 N.am  561  M14561     -0.1752
     26  O22        6.2930   11.6990   12.3450 O.2   561  M14561     -0.2689
     27  S          6.5530    4.9200   14.3850 S.O2  561  M14561      0.0935
     28  N23        5.5580    4.3390   13.1250 N.3   561  M14561      0.0392
     29  O24        7.9730    4.7950   14.0350 O.2   561  M14561     -0.1503
     30  O25        6.0560    4.5260   15.6950 O.2   561  M14561     -0.1503
     31 CL2         6.0810    9.6770   16.9120 Cl    561  M14561     -0.0808
     32  C27       10.3490   15.7150   20.9000 C.1   561  M14561      0.1005
     33  N28       10.6440   16.7840   21.0680 N.1   561  M14561     -0.1908
@<TRIPOS>BOND
     1    26    24    2
     2     3     2   ar
     3     3     4   ar
     4     2     1   ar
     5    28    27    1
     6    24    23    1
     7    24    25   am
     8    21     9    1
     9    29    27    2
    10    23    22    1
    11     1    25    1
    12     1     6   ar
    13     4    27    1
    14     4     5   ar
    15    27    30    2
    16    10     9   ar
    17    10    11   ar
    18     9     8   ar
    19     6     5   ar
    20     6    31    1
    21    22    11    1
    22    11    12   ar
    23     8     7   ar
    24    12     7   ar
    25     7    20    1
    26    20    15    1
    27    15    16   ar
    28    15    14   ar
    29    16    17   ar
    30    14    13   ar
    31    17    32    1
    32    17    18   ar
    33    32    33    3
    34    13    18   ar
    35    13    19    1
