@<TRIPOS>MOLECULE
3c6u_M22_A_1.pdb
 28 31 0 0 0
SMALL
GASTEIGER

@<TRIPOS>ATOM
      1  C         10.2220   12.1760   16.3280 C.ar  561  M22561      0.1588
      2  C1        11.0370   12.2340   15.2130 C.ar  561  M22561      0.0923
      3  C2        10.5850   12.6410   13.9790 C.ar  561  M22561      0.0176
      4  C3         9.2740   12.9930   13.8310 C.ar  561  M22561      0.0380
      5  C4         8.4010   12.9310   14.9020 C.ar  561  M22561      0.1422
      6  C5         8.8610   12.5280   16.1720 C.ar  561  M22561      0.0752
      7  C6        10.5620   13.6430   18.9790 C.ar  561  M22561      0.0489
      8  C7        10.5360   12.2800   18.7490 C.ar  561  M22561      0.1469
      9  C8        10.2260   11.4130   19.8190 C.ar  561  M22561      0.0478
     10  C9         9.9500   11.9270   21.1190 C.ar  561  M22561      0.0723
     11  C10        9.9840   13.3180   21.3340 C.ar  561  M22561      0.0219
     12  C11       10.2950   14.1400   20.2480 C.ar  561  M22561      0.0614
     13  O         10.8210   11.7310   17.5110 O.3   561  M22561     -0.4525
     14 CL         10.3540   15.8300   20.4450 Cl    561  M22561     -0.0821
     15  O12        7.0990   13.3410   14.8110 O.3   561  M22561     -0.4688
     16  C13        5.9190   12.5830   14.6400 C.3   561  M22561      0.2527
     17  C14        6.1320   11.1960   14.1930 C.2   561  M22561      0.1253
     18  N          6.6050   10.9030   12.9660 N.2   561  M22561     -0.1486
     19  N15        6.6320    9.5570   12.9860 N.2   561  M22561     -0.1482
     20  C16        5.8620   10.0550   14.9800 C.2   561  M22561      0.0344
     21  C17        6.2010    9.0030   14.1670 C.2   561  M22561      0.1035
     22  C18        6.0810    7.7000   14.5970 C.2   561  M22561      0.0167
     23  C19        5.6070    7.4910   15.9080 C.2   561  M22561     -0.0198
     24  C20        5.2490    8.5400   16.7550 C.3   561  M22561      0.0521
     25  C21        5.3750    9.8460   16.2880 C.2   561  M22561     -0.0185
     26 CL2        12.6740   11.7940   15.3270 Cl    561  M22561     -0.0791
     27  C23        9.6540   11.0470   22.2260 C.1   561  M22561      0.1005
     28  N24        9.4090   10.3340   23.1160 N.1   561  M22561     -0.1908
@<TRIPOS>BOND
     1    18    19    1
     2    18    17    2
     3    19    21    2
     4     4     3   ar
     5     4     5   ar
     6     3     2   ar
     7    21    22    1
     8    21    20    1
     9    17    16    1
    10    17    20    1
    11    22    23    2
    12    16    15    1
    13    15     5    1
    14     5     6   ar
    15    20    25    2
    16     2    26    1
    17     2     1   ar
    18    23    24    1
    19     6     1   ar
    20    25    24    1
    21     1    13    1
    22    13     8    1
    23     8     7   ar
    24     8     9   ar
    25     7    12   ar
    26     9    10   ar
    27    12    14    1
    28    12    11   ar
    29    10    11   ar
    30    10    27    1
    31    27    28    3
