@<TRIPOS>MOLECULE
3c72_CX1_B_1.pdb
 45 48 0 0 0
SMALL
GASTEIGER

@<TRIPOS>ATOM
      1  C40        3.1100   17.9730   26.8420 C.ar  334  CX1334     -0.0009
      2  C41        2.8190   19.3390   26.8940 C.ar  334  CX1334      0.0417
      3  C42        3.8100   20.2650   27.2650 C.ar  334  CX1334      0.1957
      4  O47        3.5240   21.6140   27.3110 O.3   334  CX1334     -0.2866
      5  C43        5.0950   19.7970   27.5830 C.ar  334  CX1334      0.0417
      6  C44        5.3970   18.4310   27.5250 C.ar  334  CX1334     -0.0009
      7  C39        4.4060   17.5150   27.1490 C.ar  334  CX1334     -0.0197
      8  C24        4.7200   16.0010   27.0960 C.3   334  CX1334      0.0596
      9  C23        5.4270   15.4910   25.8180 C.3   334  CX1334      0.2021
     10  C25        4.7480   14.2180   25.2680 C.2   334  CX1334      0.3845
     11  O26        5.2080   13.1200   25.6720 O.co2 334  CX1334     -0.2437
     12  O27        3.8130   14.3520   24.4460 O.co2 334  CX1334     -0.2437
     13  N22        5.5310   16.4980   24.7270 N.am  334  CX1334     -0.1938
     14  C20        6.7100   16.8380   24.1980 C.2   334  CX1334      0.2603
     15  O21        7.7750   16.3640   24.5710 O.2   334  CX1334     -0.2715
     16  C18        6.6570   17.8680   23.0630 C.3   334  CX1334      0.1579
     17  C19        7.4500   17.3630   21.8040 C.3   334  CX1334      0.0556
     18  C33        7.6530   18.4600   20.6990 C.ar  334  CX1334     -0.0200
     19  C34        8.7750   18.4430   19.8690 C.ar  334  CX1334     -0.0042
     20  C35        8.9660   19.4240   18.9220 C.ar  334  CX1334     -0.0003
     21  C36        8.0360   20.4230   18.7450 C.ar  334  CX1334     -0.0000
     22  C37        6.9050   20.4480   19.5450 C.ar  334  CX1334     -0.0003
     23  C38        6.7200   19.4800   20.5220 C.ar  334  CX1334     -0.0042
     24  N16        7.1400   19.2050   23.5110 N.am  334  CX1334     -0.2695
     25  C17        8.5700   19.5570   23.6260 C.3   334  CX1334      0.1153
     26  C14        6.2510   20.1760   23.7850 C.2   334  CX1334      0.2464
     27  O15        5.0390   20.0130   23.7410 O.2   334  CX1334     -0.2730
     28  C12        6.8240   21.5370   24.2150 C.3   334  CX1334      0.1802
     29  C13        5.9950   22.1680   25.3860 C.3   334  CX1334      0.0745
     30  C28        6.6080   23.4940   25.9100 C.2   334  CX1334      0.0653
     31  C29        7.1010   23.7060   27.1420 C.3   334  CX1334      0.1683
     32  N30        7.5510   24.9640   27.2300 N.2   334  CX1334     -0.2440
     33  C31        7.3110   25.5280   26.0560 C.2   334  CX1334      0.1939
     34  N32        6.7420   24.6360   25.2430 N.2   334  CX1334     -0.2310
     35  N10        6.8890   22.5230   23.1090 N.am  334  CX1334     -0.1607
     36  C9         8.0570   23.0070   22.6710 C.2   334  CX1334      0.4219
     37  O11        9.1460   22.6510   23.1480 O.2   334  CX1334     -0.2245
     38  O8         8.0540   23.9960   21.7070 O.3   334  CX1334     -0.4285
     39  C7         7.9920   23.7810   20.2980 C.3   334  CX1334      0.2368
     40  C5         7.2730   24.7440   19.6220 C.ar  334  CX1334      0.0213
     41  C6         7.3400   26.0700   20.0690 C.ar  334  CX1334     -0.0007
     42  C1         6.6040   27.0590   19.4350 C.ar  334  CX1334     -0.0002
     43  C2         5.7960   26.7190   18.3500 C.ar  334  CX1334     -0.0000
     44  C3         5.7210   25.3900   17.9250 C.ar  334  CX1334     -0.0002
     45  C4         6.4510   24.3890   18.5660 C.ar  334  CX1334     -0.0007
@<TRIPOS>BOND
     1    44    43   ar
     2    44    45   ar
     3    43    42   ar
     4    45    40   ar
     5    21    20   ar
     6    21    22   ar
     7    20    19   ar
     8    42    41   ar
     9    22    23   ar
    10    40    41   ar
    11    40    39    1
    12    19    18   ar
    13    39    38    1
    14    23    18   ar
    15    18    17    1
    16    38    36    1
    17    17    16    1
    18    36    35   am
    19    36    37    2
    20    16    24    1
    21    16    14    1
    22    35    28    1
    23    24    25    1
    24    24    26   am
    25    27    26    2
    26    26    28    1
    27    14    15    2
    28    14    13   am
    29    28    29    1
    30    12    10   ar
    31    13     9    1
    32    34    30    2
    33    34    33    1
    34    10    11   ar
    35    10     9    1
    36    29    30    1
    37     9     8    1
    38    30    31    1
    39    33    32    2
    40     1     2   ar
    41     1     7   ar
    42     2     3   ar
    43     8     7    1
    44    31    32    1
    45     7     6   ar
    46     3     4    1
    47     3     5   ar
    48     6     5   ar
