@<TRIPOS>MOLECULE
3c74_ANU_A_1.pdb
 16 18 0 0 0
SMALL
GASTEIGER

@<TRIPOS>ATOM
      1  O3'        2.5700  -13.5540  -22.7620 O.3   1516  ANU1516    -0.2164
      2  C3'        3.9990  -13.5050  -22.7530 C.3   1516  ANU1516     0.2255
      3  C2'        4.5590  -14.3630  -21.6340 C.3   1516  ANU1516     0.2492
      4  O2         5.5450  -13.6260  -20.8810 O.2   1516  ANU1516    -0.4366
      5  C2         6.5470  -14.5920  -20.5810 C.2   1516  ANU1516     0.3591
      6  N3         7.8630  -14.2430  -20.0250 N.2   1516  ANU1516    -0.2807
      7  C4         8.9910  -14.7360  -20.5660 C.1   1516  ANU1516     0.2105
      8  O4        10.0930  -14.4650  -20.0330 O.2   1516  ANU1516    -0.2091
      9  C5         8.9580  -15.5190  -21.7240 C.2   1516  ANU1516     0.1230
     10  C6         7.7410  -15.8300  -22.3350 C.2   1516  ANU1516     0.0859
     11  N1         6.6020  -15.3810  -21.7940 N.pl3 1516  ANU1516    -0.2037
     12  C1'        5.2510  -15.5610  -22.2940 C.3   1516  ANU1516     0.2442
     13  O4'        5.2080  -15.3320  -23.7060 O.3   1516  ANU1516    -0.3314
     14  C4'        4.5190  -14.1170  -24.0420 C.3   1516  ANU1516     0.1840
     15  C5'        5.4150  -13.1420  -24.8110 C.3   1516  ANU1516     0.2142
     16  O5'        6.6840  -12.9420  -24.1710 O.3   1516  ANU1516    -0.2176
@<TRIPOS>BOND
     1    15    16    1
     2    15    14    1
     3    14    13    1
     4    14     2    1
     5    13    12    1
     6     1     2    1
     7     2     3    1
     8    10    11    1
     9    10     9    2
    10    12    11    1
    11    12     3    1
    12    11     5    1
    13     9     7    1
    14     3     4    1
    15     4     5    1
    16     5     6    2
    17     7     8    2
    18     7     6    2
