@<TRIPOS>MOLECULE
3c76_HEM_X_1.pdb
 43 50 0 0 0
SMALL
GASTEIGER

@<TRIPOS>ATOM
      1 FE         10.8540   20.2360   36.3750 Fe    185  HEM185      0.0000
      2  CHA       11.3070   23.2460   34.8530 C.2   185  HEM185      0.0000
      3  CHB        7.5020   20.5900   36.0000 C.2   185  HEM185      0.0000
      4  CHC       10.3380   17.4480   38.1820 C.2   185  HEM185      0.0000
      5  CHD       14.2260   19.7330   36.4340 C.2   185  HEM185      0.0000
      6  NA         9.6560   21.5900   35.5640 N.ar  185  HEM185      0.0000
      7  C1A       10.0290   22.8330   35.0760 C.ar  185  HEM185      0.0000
      8  C2A        8.8910   23.6170   34.7530 C.ar  185  HEM185      0.0000
      9  C3A        7.8270   22.8890   35.0650 C.ar  185  HEM185      0.0000
     10  C4A        8.2940   21.6310   35.5820 C.ar  185  HEM185      0.0000
     11  CMA        6.3770   23.2860   34.8920 C.3   185  HEM185      0.0000
     12  CAA        8.9000   25.0350   34.1720 C.3   185  HEM185      0.0000
     13  CBA        8.6860   26.0510   35.2930 C.3   185  HEM185      0.0000
     14  CGA        8.6850   27.4850   34.8440 C.2   185  HEM185      0.0000
     15  O1A        9.3770   27.8830   33.8820 O.co2 185  HEM185      0.0000
     16  O2A        7.9380   28.2540   35.4220 O.co2 185  HEM185      0.0000
     17  NB         9.2580   19.1940   36.9660 N.2   185  HEM185      0.0000
     18  C1B        7.9270   19.4700   36.6860 C.2   185  HEM185      0.0000
     19  C2B        7.0610   18.4880   37.2880 C.2   185  HEM185      0.0000
     20  C3B        7.8440   17.6420   37.9390 C.2   185  HEM185      0.0000
     21  C4B        9.2150   18.0600   37.7290 C.2   185  HEM185      0.0000
     22  CMB        5.5400   18.4660   37.1660 C.3   185  HEM185      0.0000
     23  CAB        7.4060   16.4240   38.7580 C.2   185  HEM185      0.0000
     24  CBB        7.7730   16.2680   40.0120 C.2   185  HEM185      0.0000
     25  NC        12.0890   18.8540   37.1560 N.ar  185  HEM185      0.0000
     26  C1C       11.6550   17.7470   37.8620 C.ar  185  HEM185      0.0000
     27  C2C       12.8040   16.9700   38.1990 C.ar  185  HEM185      0.0000
     28  C3C       13.8920   17.5980   37.7190 C.ar  185  HEM185      0.0000
     29  C4C       13.4500   18.7850   37.0430 C.ar  185  HEM185      0.0000
     30  CMC       12.7090   15.6590   38.9680 C.3   185  HEM185      0.0000
     31  CAC       15.3330   17.0740   37.8370 C.2   185  HEM185      0.0000
     32  CBC       16.4290   17.7840   37.6250 C.2   185  HEM185      0.0000
     33  ND        12.4410   21.2640   35.7380 N.2   185  HEM185      0.0000
     34  C1D       13.7690   20.9120   35.8720 C.2   185  HEM185      0.0000
     35  C2D       14.6420   21.9030   35.2840 C.2   185  HEM185      0.0000
     36  C3D       13.7450   22.9660   34.8120 C.2   185  HEM185      0.0000
     37  C4D       12.4260   22.5150   35.1180 C.2   185  HEM185      0.0000
     38  CMD       16.1660   21.8910   35.2080 C.3   185  HEM185      0.0000
     39  CAD       14.1490   24.2460   34.0960 C.3   185  HEM185      0.0000
     40  CBD       13.9200   24.0530   32.5990 C.3   185  HEM185      0.0000
     41  CGD       14.3950   25.2260   31.7970 C.2   185  HEM185      0.0000
     42  O1D       15.3920   25.0160   31.0390 O.co2 185  HEM185      0.0000
     43  O2D       13.7870   26.3330   31.8730 O.co2 185  HEM185      0.0000
@<TRIPOS>BOND
     1    42    41   ar
     2    41    43   ar
     3    41    40    1
     4    40    39    1
     5    15    14   ar
     6    39    36    1
     7    12     8    1
     8    12    13    1
     9     8     9   ar
    10     8     7   ar
    11    36    37    1
    12    36    35    2
    13    14    13    1
    14    14    16   ar
    15     2     7    2
    16     2    37    1
    17    11     9    1
    18     9    10   ar
    19     7     6   ar
    20    37    33    2
    21    38    35    1
    22    35    34    1
    23     6    10   ar
    24     6     1    1
    25    10     3    2
    26    33    34    1
    27    33     1    1
    28    34     5    2
    29     3    18    1
    30     1    17    1
    31     1    25    1
    32     5    29    1
    33    18    17    2
    34    18    19    1
    35    17    21    1
    36    29    25   ar
    37    29    28   ar
    38    25    26   ar
    39    22    19    1
    40    19    20    2
    41    32    31    2
    42    28    31    1
    43    28    27   ar
    44    21    20    1
    45    21     4    2
    46    26     4    1
    47    26    27   ar
    48    20    23    1
    49    27    30    1
    50    23    24    2
