@<TRIPOS>MOLECULE
3c77_FDE_X_1.pdb
 39 46 0 0 0
SMALL
GASTEIGER

@<TRIPOS>ATOM
      1  CHA       11.5680   22.9370   34.9580 C.2   185  FDE185      0.0000
      2  C1A       10.2550   22.6050   35.1170 C.ar  185  FDE185      0.0000
      3  C2A        9.1610   23.4600   34.7770 C.ar  185  FDE185      0.0000
      4  CAA        9.2440   24.8760   34.2140 C.3   185  FDE185      0.0000
      5  CBA        8.7910   25.8960   35.2550 C.3   185  FDE185      0.0000
      6  CGA        8.8940   27.3270   34.8080 C.2   185  FDE185      0.0000
      7  O1A        9.6430   27.6760   33.8700 O.co2 185  FDE185      0.0000
      8  O2A        8.1560   28.1370   35.3680 O.co2 185  FDE185      0.0000
      9  C3A        8.0720   22.7730   35.0340 C.ar  185  FDE185      0.0000
     10  CMA        6.6560   23.2450   34.8190 C.3   185  FDE185      0.0000
     11  C4A        8.4560   21.4890   35.5600 C.ar  185  FDE185      0.0000
     12  NA         9.8180   21.3990   35.5980 N.ar  185  FDE185      0.0000
     13  CHB        7.6070   20.4860   35.9490 C.2   185  FDE185      0.0000
     14  C1B        7.9820   19.3650   36.6890 C.2   185  FDE185      0.0000
     15  C2B        7.0760   18.3900   37.2650 C.2   185  FDE185      0.0000
     16  C3B        7.8040   17.5190   37.9570 C.2   185  FDE185      0.0000
     17  CME        7.1890   16.3540   38.7570 C.3   185  FDE185      0.0000
     18  C4B        9.1910   17.9020   37.8300 C.2   185  FDE185      0.0000
     19  NB         9.2730   19.0380   37.0470 N.2   185  FDE185      0.0000
     20  CHC       10.2880   17.2780   38.3900 C.2   185  FDE185      0.0000
     21  C1C       11.6190   17.5630   38.1240 C.ar  185  FDE185      0.0000
     22  C2C       12.8060   16.8430   38.5590 C.ar  185  FDE185      0.0000
     23  C3C       13.8600   17.4100   38.0740 C.ar  185  FDE185      0.0000
     24  CMF       15.2570   16.8880   38.3270 C.3   185  FDE185      0.0000
     25  C4C       13.4360   18.5090   37.2840 C.ar  185  FDE185      0.0000
     26  NC        12.0610   18.5980   37.3430 N.ar  185  FDE185      0.0000
     27  CHD       14.2500   19.3500   36.6460 C.2   185  FDE185      0.0000
     28  C1D       13.8810   20.4800   36.0270 C.2   185  FDE185      0.0000
     29  C2D       14.8180   21.3980   35.4610 C.2   185  FDE185      0.0000
     30  CMD       16.3400   21.2790   35.4190 C.3   185  FDE185      0.0000
     31  C3D       14.0030   22.5020   34.9410 C.2   185  FDE185      0.0000
     32  CAD       14.5160   23.7400   34.2480 C.3   185  FDE185      0.0000
     33  CBD       14.1220   23.6780   32.7760 C.3   185  FDE185      0.0000
     34  CGD       14.6100   24.8360   31.9370 C.2   185  FDE185      0.0000
     35  O1D       15.6290   24.6720   31.1930 O.co2 185  FDE185      0.0000
     36  O2D       13.9740   25.9240   31.9580 O.co2 185  FDE185      0.0000
     37  C4D       12.6380   22.1390   35.2310 C.2   185  FDE185      0.0000
     38  ND        12.5850   20.9160   35.8760 N.2   185  FDE185      0.0000
     39 FE         10.9070   19.9970   36.4980 Fe    185  FDE185      0.0000
@<TRIPOS>BOND
     1    35    34   ar
     2    34    36   ar
     3    34    33    1
     4    33    32    1
     5     7     6   ar
     6     4     3    1
     7     4     5    1
     8    32    31    1
     9     3     9   ar
    10     3     2   ar
    11     6     5    1
    12     6     8   ar
    13    10     9    1
    14    31    37    1
    15    31    29    2
    16     1     2    2
    17     1    37    1
    18     9    11   ar
    19     2    12   ar
    20    37    38    2
    21    30    29    1
    22    29    28    1
    23    11    12   ar
    24    11    13    2
    25    12    39    1
    26    38    28    1
    27    38    39    1
    28    13    14    1
    29    28    27    2
    30    39    19    1
    31    39    26    1
    32    27    25    1
    33    14    19    2
    34    14    15    1
    35    19    18    1
    36    15    16    2
    37    25    26   ar
    38    25    23   ar
    39    26    21   ar
    40    18    16    1
    41    18    20    2
    42    16    17    1
    43    23    24    1
    44    23    22   ar
    45    21    20    1
    46    21    22   ar
