@<TRIPOS>MOLECULE
3c78_FDD_X_1.pdb
 41 48 0 0 0
SMALL
GASTEIGER

@<TRIPOS>ATOM
      1  O2D       13.8760   25.9790   31.8140 O.co2 185  FDD185      0.0000
      2  CGD       14.5150   24.9090   31.7480 C.2   185  FDD185      0.0000
      3  O1D       15.4840   24.7830   30.9680 O.co2 185  FDD185      0.0000
      4  CBD       14.1270   23.7110   32.5870 C.3   185  FDD185      0.0000
      5  CAD       14.4290   23.8590   34.0820 C.3   185  FDD185      0.0000
      6  C3D       14.0060   22.6000   34.7570 C.2   185  FDD185      0.0000
      7  C2D       14.8360   21.5220   35.2360 C.2   185  FDD185      0.0000
      8  CMD       16.3350   21.4280   35.1720 C.3   185  FDD185      0.0000
      9  C4D       12.6530   22.2100   35.0570 C.2   185  FDD185      0.0000
     10  CHA       11.5400   22.8870   34.7860 C.2   185  FDD185      0.0000
     11  ND        12.6150   20.9780   35.6370 N.2   185  FDD185      0.0000
     12  C1D       13.9140   20.5900   35.7330 C.2   185  FDD185      0.0000
     13  CHD       14.1520   19.4200   36.3350 C.2   185  FDD185      0.0000
     14  C4C       13.4870   18.5080   37.0190 C.ar  185  FDD185      0.0000
     15  C3C       13.9800   17.4330   37.7400 C.ar  185  FDD185      0.0000
     16  CMF       15.3690   16.9300   37.9010 C.3   185  FDD185      0.0000
     17  C2C       12.8120   16.8370   38.3460 C.ar  185  FDD185      0.0000
     18  CMC       12.6960   15.6280   39.2370 C.3   185  FDD185      0.0000
     19 FE         10.9630   19.9850   36.2650 Fe    185  FDD185      0.0000
     20  NA         9.8650   21.3420   35.3640 N.ar  185  FDD185      0.0000
     21  C1A       10.2450   22.6530   34.9260 C.ar  185  FDD185      0.0000
     22  NC        12.1430   18.6110   37.1130 N.ar  185  FDD185      0.0000
     23  C1C       11.7620   17.5930   37.8960 C.ar  185  FDD185      0.0000
     24  CHC       10.3900   17.2630   38.2180 C.2   185  FDD185      0.0000
     25  C4B        9.2550   17.9220   37.6310 C.2   185  FDD185      0.0000
     26  C3B        7.9610   17.4370   37.8030 C.2   185  FDD185      0.0000
     27  CME        7.4790   16.2780   38.6120 C.3   185  FDD185      0.0000
     28  C2B        7.1410   18.3360   37.0470 C.2   185  FDD185      0.0000
     29  CMB        5.6470   18.2980   36.8910 C.3   185  FDD185      0.0000
     30  NB         9.3470   18.9890   36.8380 N.2   185  FDD185      0.0000
     31  C1B        8.0640   19.2570   36.5420 C.2   185  FDD185      0.0000
     32  CHB        7.6300   20.3590   35.7500 C.2   185  FDD185      0.0000
     33  C4A        8.4570   21.4450   35.3760 C.ar  185  FDD185      0.0000
     34  C3A        7.9940   22.6420   34.8570 C.ar  185  FDD185      0.0000
     35  CMA        6.5780   23.0870   34.6820 C.3   185  FDD185      0.0000
     36  C2A        9.1700   23.4340   34.5730 C.ar  185  FDD185      0.0000
     37  CAA        9.1630   24.8160   34.0120 C.3   185  FDD185      0.0000
     38  CBA        8.7230   25.8150   35.0980 C.3   185  FDD185      0.0000
     39  CGA        8.7760   27.2410   34.6510 C.2   185  FDD185      0.0000
     40  O1A        9.4830   27.6080   33.6980 O.co2 185  FDD185      0.0000
     41  O2A        8.0340   28.0450   35.2260 O.co2 185  FDD185      0.0000
@<TRIPOS>BOND
     1     3     2   ar
     2     2     1   ar
     3     2     4    1
     4     4     5    1
     5    40    39   ar
     6    37    36    1
     7    37    38    1
     8     5     6    1
     9    36    34   ar
    10    36    21   ar
    11    39    38    1
    12    39    41   ar
    13    35    34    1
    14     6     9    1
    15     6     7    2
    16    10    21    2
    17    10     9    1
    18    34    33   ar
    19    21    20   ar
    20     9    11    2
    21     8     7    1
    22     7    12    1
    23    20    33   ar
    24    20    19    1
    25    33    32    2
    26    11    12    1
    27    11    19    1
    28    12    13    2
    29    32    31    1
    30    19    30    1
    31    19    22    1
    32    13    14    1
    33    31    30    2
    34    31    28    1
    35    30    25    1
    36    29    28    1
    37    14    22   ar
    38    14    15   ar
    39    28    26    2
    40    22    23   ar
    41    25    26    1
    42    25    24    2
    43    15    16    1
    44    15    17   ar
    45    26    27    1
    46    23    24    1
    47    23    17   ar
    48    17    18    1
