@<TRIPOS>MOLECULE
3c79_IM4_A_1.pdb
 17 18 0 0 0
SMALL
GASTEIGER

@<TRIPOS>ATOM
      1  C5        55.2750  -20.5120   -6.9230 C.ar  301  IM4301      0.0016
      2  C6        54.2610  -20.4010   -7.9300 C.ar  301  IM4301      0.0305
      3  C1        53.0290  -19.8510   -7.6560 C.ar  301  IM4301      0.1383
      4 CL7        51.8910  -19.7340   -8.6580 Cl    301  IM4301     -0.0613
      5  N2        52.9340  -19.3680   -6.3650 N.ar  301  IM4301     -0.2327
      6  C3        53.8530  -19.4780   -5.3920 C.ar  301  IM4301      0.0974
      7  C4        55.0840  -20.0910   -5.6230 C.ar  301  IM4301      0.0197
      8  C8        56.1960  -20.1820   -4.5260 C.3   301  IM4301      0.1371
      9  N9        55.6380  -20.1150   -3.1670 N.ar  301  IM4301     -0.2913
     10  C13       55.5980  -18.9470   -2.3080 C.ar  301  IM4301      0.0993
     11  C12       54.9030  -19.4350   -1.0100 C.ar  301  IM4301      0.1206
     12  N11       54.6560  -20.8390   -1.2930 N.ar  301  IM4301     -0.2091
     13  C10       55.0810  -21.1370   -2.5310 C.ar  301  IM4301      0.2449
     14  N14       55.0280  -22.3550   -3.0860 N.pl3 301  IM4301     -0.0266
     15  N15       54.5070  -23.2770   -2.4490 N.pl3 301  IM4301      0.1471
     16  O16       54.4070  -24.7610   -2.9580 O.2   301  IM4301     -0.1077
     17  O17       53.9980  -22.9420   -1.1440 O.2   301  IM4301     -0.1077
@<TRIPOS>BOND
     1     4     3    1
     2     2     3   ar
     3     2     1   ar
     4     3     5   ar
     5     1     7   ar
     6     5     6   ar
     7     7     6   ar
     8     7     8    1
     9     8     9    1
    10     9    13   ar
    11     9    10   ar
    12    14    13    1
    13    14    15    1
    14    16    15    2
    15    13    12   ar
    16    15    17    2
    17    10    11   ar
    18    12    11   ar
