@<TRIPOS>MOLECULE
3c7a_NAD_A_1.pdb
 44 48 0 0 0
SMALL
GASTEIGER

@<TRIPOS>ATOM
      1  PA        89.5550   33.0210   54.5460 P.3   405  NAD405      0.2189
      2  O1A       89.5610   33.6610   55.8800 O.3   405  NAD405     -0.4371
      3  O2A       89.7290   31.5550   54.6650 O.2   405  NAD405     -0.5170
      4  O5B       90.7140   33.6630   53.6200 O.3   405  NAD405     -0.3112
      5  C5B       92.0600   33.7440   54.0520 C.3   405  NAD405      0.1813
      6  C4B       92.9610   34.1370   52.8820 C.3   405  NAD405      0.1821
      7  O4B       92.8930   35.5340   52.6470 O.3   405  NAD405     -0.3135
      8  C3B       94.4320   33.8260   53.1320 C.3   405  NAD405      0.2184
      9  O3B       94.8030   32.5570   52.6450 O.3   405  NAD405     -0.2174
     10  C2B       95.1670   34.9410   52.4120 C.3   405  NAD405      0.2570
     11  O2B       95.4860   34.5780   51.0870 O.3   405  NAD405     -0.2130
     12  C1B       94.1740   36.0920   52.4030 C.3   405  NAD405      0.3186
     13  N9A       94.5580   37.0370   53.4730 N.pl3 405  NAD405     -0.1439
     14  C8A       94.1520   36.9850   54.7850 C.3   405  NAD405      0.3377
     15  N7A       94.7230   38.0070   55.4600 N.2   405  NAD405     -0.2095
     16  C5A       95.4910   38.7140   54.6020 C.2   405  NAD405      0.2526
     17  C6A       96.2820   39.8460   54.7770 C.2   405  NAD405      0.4393
     18  N6A       96.5700   40.2570   56.0110 N.pl3 405  NAD405      0.2180
     19  N1A       96.9740   40.3670   53.6950 N.2   405  NAD405      0.0021
     20  C2A       96.8750   39.7630   52.4530 C.3   405  NAD405      0.5254
     21  N3A       96.0860   38.6360   52.2920 N.2   405  NAD405     -0.0055
     22  C4A       95.4010   38.1170   53.3480 C.2   405  NAD405      0.3518
     23  O3        88.1760   33.4060   53.7880 O.3   405  NAD405     -0.2703
     24  PN        87.1510   32.3000   53.2070 P.3   405  NAD405      0.2189
     25  O1N       86.7250   31.4280   54.3250 O.3   405  NAD405     -0.4371
     26  O2N       87.7380   31.6920   51.9900 O.2   405  NAD405     -0.5170
     27  O5D       85.8540   33.1580   52.7730 O.3   405  NAD405     -0.3112
     28  C5D       85.8980   34.2110   51.8310 C.3   405  NAD405      0.1813
     29  C4D       84.6590   35.0980   51.9830 C.3   405  NAD405      0.1799
     30  O4D       83.4650   34.3310   51.8940 O.3   405  NAD405     -0.3327
     31  C3D       84.6380   35.8120   53.3290 C.3   405  NAD405      0.2158
     32  O3D       84.3220   37.1710   53.1290 O.3   405  NAD405     -0.2175
     33  C2D       83.5460   35.1070   54.1160 C.3   405  NAD405      0.2309
     34  O2D       82.8660   35.9960   54.9720 O.3   405  NAD405     -0.2158
     35  C1D       82.6360   34.5440   53.0280 C.3   405  NAD405      0.2263
     36  N1N       81.9230   33.3070   53.4310 N.pl3 405  NAD405     -0.2787
     37  C2N       82.5960   32.2110   53.9200 C.3   405  NAD405      0.1244
     38  C3N       81.9010   31.0540   54.2890 C.2   405  NAD405      0.0544
     39  C7N       82.6540   29.7820   54.5860 C.2   405  NAD405      0.2818
     40  O7N       81.9880   28.7140   55.0250 O.2   405  NAD405     -0.2670
     41  N7N       84.0520   29.7330   54.3990 N.am  405  NAD405     -0.0839
     42  C4N       80.5100   31.0220   54.1550 C.2   405  NAD405      0.0033
     43  C5N       79.8330   32.1340   53.6550 C.2   405  NAD405      0.0157
     44  C6N       80.5570   33.2700   53.2950 C.2   405  NAD405      0.0633
@<TRIPOS>BOND
     1    11    10    1
     2    28    29    1
     3    28    27    1
     4    30    29    1
     5    30    35    1
     6    29    31    1
     7    26    24    2
     8    21    20    1
     9    21    22    2
    10    12    10    1
    11    12     7    1
    12    12    13    1
    13    10     8    1
    14    20    19    1
    15     9     8    1
    16     7     6    1
    17    27    24    1
    18     6     8    1
    19     6     5    1
    20    35    36    1
    21    35    33    1
    22    32    31    1
    23    24    23    1
    24    24    25    1
    25    44    36    1
    26    44    43    2
    27    31    33    1
    28    22    13    1
    29    22    16    1
    30    36    37    1
    31    13    14    1
    32     4     5    1
    33     4     1    1
    34    43    42    1
    35    19    17    2
    36    23     1    1
    37    37    38    1
    38    33    34    1
    39    42    38    2
    40    38    39    1
    41    41    39   am
    42     1     3    2
    43     1     2    1
    44    39    40    2
    45    16    17    1
    46    16    15    2
    47    17    18    1
    48    14    15    1
