@<TRIPOS>MOLECULE
3c7c_ARG_B_1.pdb
 12 11 0 0 0
SMALL
GASTEIGER

@<TRIPOS>ATOM
      1  N         -9.3440  -22.5600   23.7700 N.3   406  ARG406     -0.1208
      2  CA       -10.2980  -21.3830   23.6830 C.3   406  ARG406      0.1944
      3  C        -11.8070  -21.5720   24.1920 C.2   406  ARG406      0.3819
      4  O        -12.4240  -20.5380   24.6500 O.co2 406  ARG406     -0.2441
      5  CB       -10.2870  -20.9360   22.3140 C.3   406  ARG406      0.0343
      6  CG       -10.7960  -19.6650   22.1780 C.3   406  ARG406      0.0490
      7  CD       -10.3820  -19.3710   20.6890 C.3   406  ARG406      0.2205
      8  NE       -10.9360  -20.3640   19.7020 N.pl3 406  ARG406     -0.0865
      9  CZ       -10.9930  -20.1970   18.3910 C.cat 406  ARG406      0.5346
     10  NH1      -11.5830  -21.1600   17.6600 N.pl3 406  ARG406      0.1354
     11  NH2      -10.4650  -19.0770   17.8940 N.pl3 406  ARG406      0.1354
     12  OXT      -12.4680  -22.7160   24.1910 O.co2 406  ARG406     -0.2441
@<TRIPOS>BOND
     1    10     9    1
     2    11     9    1
     3     9     8    2
     4     8     7    1
     5     7     6    1
     6     6     5    1
     7     5     2    1
     8     2     1    1
     9     2     3    1
    10    12     3   ar
    11     3     4   ar
