@<TRIPOS>MOLECULE
3c7c_NAD_B_1.pdb
 44 48 0 0 0
SMALL
GASTEIGER

@<TRIPOS>ATOM
      1  PA       -15.9370  -37.8980   21.8600 P.3   405  NAD405      0.2189
      2  O1A      -15.4080  -37.8750   23.2440 O.3   405  NAD405     -0.4371
      3  O2A      -17.3910  -38.1700   21.8440 O.2   405  NAD405     -0.5170
      4  O5B      -15.1560  -39.0260   21.0180 O.3   405  NAD405     -0.3112
      5  C5B      -15.2340  -40.3870   21.3800 C.3   405  NAD405      0.1813
      6  C4B      -15.0440  -41.2210   20.1230 C.3   405  NAD405      0.1821
      7  O4B      -13.7010  -41.1310   19.6790 O.3   405  NAD405     -0.3135
      8  C3B      -15.3280  -42.6980   20.3440 C.3   405  NAD405      0.2184
      9  O3B      -16.6500  -43.0300   20.0020 O.3   405  NAD405     -0.2174
     10  C2B      -14.3400  -43.3870   19.4310 C.3   405  NAD405      0.2570
     11  O2B      -14.8920  -43.5270   18.1430 O.3   405  NAD405     -0.2130
     12  C1B      -13.1810  -42.4090   19.3600 C.3   405  NAD405      0.3186
     13  N9A      -12.1550  -42.7970   20.3490 N.pl3 405  NAD405     -0.1439
     14  C8A      -12.1180  -42.4430   21.6770 C.3   405  NAD405      0.3377
     15  N7A      -11.0270  -42.9930   22.2490 N.2   405  NAD405     -0.2095
     16  C5A      -10.3640  -43.6920   21.3070 C.2   405  NAD405      0.2526
     17  C6A       -9.1960  -44.4400   21.3630 C.2   405  NAD405      0.4393
     18  N6A       -8.7880  -44.8660   22.5550 N.pl3 405  NAD405      0.2180
     19  N1A       -8.7350  -45.0650   20.2130 N.2   405  NAD405      0.0021
     20  C2A       -9.4320  -44.9530   19.0200 C.3   405  NAD405      0.5254
     21  N3A      -10.5980  -44.2040   18.9800 N.2   405  NAD405     -0.0055
     22  C4A      -11.0570  -43.5840   20.1050 C.2   405  NAD405      0.3518
     23  O3       -15.5960  -36.5100   21.1130 O.3   405  NAD405     -0.2703
     24  PN       -16.7830  -35.6000   20.5100 P.3   405  NAD405      0.2189
     25  O1N      -17.6560  -35.1730   21.6260 O.3   405  NAD405     -0.4371
     26  O2N      -17.3830  -36.3110   19.3560 O.2   405  NAD405     -0.5170
     27  O5D      -16.0240  -34.2900   19.9620 O.3   405  NAD405     -0.3112
     28  C5D      -14.9320  -34.3790   19.0720 C.3   405  NAD405      0.1813
     29  C4D      -13.9550  -33.2330   19.3330 C.3   405  NAD405      0.1799
     30  O4D      -14.6210  -31.9860   19.2400 O.3   405  NAD405     -0.3327
     31  C3D      -13.3360  -33.3190   20.7220 C.3   405  NAD405      0.2158
     32  O3D      -11.9320  -33.3110   20.6090 O.3   405  NAD405     -0.2175
     33  C2D      -13.8080  -32.0810   21.4580 C.3   405  NAD405      0.2309
     34  O2D      -12.7410  -31.4650   22.1390 O.3   405  NAD405     -0.2158
     35  C1D      -14.3500  -31.1700   20.3670 C.3   405  NAD405      0.2263
     36  N1N      -15.5760  -30.4520   20.7750 N.pl3 405  NAD405     -0.2787
     37  C2N      -16.5980  -31.1010   21.4230 C.3   405  NAD405      0.1244
     38  C3N      -17.7610  -30.4170   21.7920 C.2   405  NAD405      0.0544
     39  C7N      -19.0460  -31.1950   21.9150 C.2   405  NAD405      0.2818
     40  O7N      -20.2800  -30.5210   21.8820 O.2   405  NAD405     -0.2670
     41  N7N      -19.0020  -32.5190   22.0460 N.am  405  NAD405     -0.0839
     42  C4N      -17.8520  -29.0530   21.4980 C.2   405  NAD405      0.0033
     43  C5N      -16.8150  -28.3990   20.8360 C.2   405  NAD405      0.0157
     44  C6N      -15.6750  -29.1180   20.4810 C.2   405  NAD405      0.0633
@<TRIPOS>BOND
     1    11    10    1
     2    21    20    1
     3    21    22    2
     4    20    19    1
     5    28    29    1
     6    28    27    1
     7    30    29    1
     8    30    35    1
     9    29    31    1
    10    26    24    2
    11    12    10    1
    12    12     7    1
    13    12    13    1
    14    10     8    1
    15     7     6    1
    16    27    24    1
    17     9     8    1
    18    22    13    1
    19    22    16    1
    20     6     8    1
    21     6     5    1
    22    19    17    2
    23    13    14    1
    24    35    36    1
    25    35    33    1
    26    44    36    1
    27    44    43    2
    28    24    23    1
    29    24    25    1
    30    32    31    1
    31    31    33    1
    32    36    37    1
    33    43    42    1
    34     4     5    1
    35     4     1    1
    36    23     1    1
    37    16    17    1
    38    16    15    2
    39    17    18    1
    40    37    38    1
    41    33    34    1
    42    42    38    2
    43    14    15    1
    44    38    39    1
    45     3     1    2
    46     1     2    1
    47    40    39    2
    48    39    41   am
