@<TRIPOS>MOLECULE
3c7d_NAD_B_1.pdb
 44 48 0 0 0
SMALL
GASTEIGER

@<TRIPOS>ATOM
      1  PA        38.9880   16.3010  -21.1490 P.3   405  NAD405      0.2189
      2  O1A       39.0230   15.5370  -22.4170 O.2   405  NAD405     -0.5170
      3  O2A       39.1370   17.7510  -21.3910 O.3   405  NAD405     -0.4371
      4  O5B       40.1600   15.7890  -20.1720 O.3   405  NAD405     -0.3112
      5  C5B       41.4100   15.3580  -20.6560 C.3   405  NAD405      0.1813
      6  C4B       42.2390   14.9470  -19.4480 C.3   405  NAD405      0.1821
      7  O4B       42.2230   13.5430  -19.2670 O.3   405  NAD405     -0.3135
      8  C3B       43.7010   15.3270  -19.5740 C.3   405  NAD405      0.2184
      9  O3B       43.9250   16.6320  -19.1030 O.3   405  NAD405     -0.2174
     10  C2B       44.3850   14.2920  -18.7100 C.3   405  NAD405      0.2570
     11  O2B       44.4600   14.7390  -17.3750 O.3   405  NAD405     -0.2130
     12  C1B       43.4710   13.0800  -18.7840 C.3   405  NAD405      0.3186
     13  N9A       44.0470   12.0860  -19.7140 N.pl3 405  NAD405     -0.1439
     14  C8A       43.9080   12.0760  -21.0820 C.3   405  NAD405      0.3377
     15  N7A       44.5820   11.0170  -21.5810 N.2   405  NAD405     -0.2095
     16  C5A       45.1510   10.3460  -20.5560 C.2   405  NAD405      0.2526
     17  C6A       45.9440    9.2030  -20.5140 C.2   405  NAD405      0.4393
     18  N6A       46.5560    8.8180  -21.6320 N.pl3 405  NAD405      0.2180
     19  N1A       46.4000    8.7290  -19.2930 N.2   405  NAD405      0.0021
     20  C2A       46.0750    9.3910  -18.1230 C.3   405  NAD405      0.5254
     21  N3A       45.2850   10.5290  -18.1790 N.2   405  NAD405     -0.0055
     22  C4A       44.8280   11.0040  -19.3730 C.2   405  NAD405      0.3518
     23  O3        37.6160   15.9570  -20.3600 O.3   405  NAD405     -0.2703
     24  PN        36.6620   17.0770  -19.6870 P.3   405  NAD405      0.2189
     25  O1N       36.2800   18.0820  -20.7020 O.2   405  NAD405     -0.5170
     26  O2N       37.2680   17.5400  -18.4160 O.3   405  NAD405     -0.4371
     27  O5D       35.3280   16.2360  -19.3610 O.3   405  NAD405     -0.3112
     28  C5D       35.3270   15.1210  -18.4970 C.3   405  NAD405      0.1813
     29  C4D       34.0230   14.3470  -18.6730 C.3   405  NAD405      0.1799
     30  O4D       32.9170   15.2320  -18.6480 O.3   405  NAD405     -0.3327
     31  C3D       33.9750   13.6000  -19.9980 C.3   405  NAD405      0.2158
     32  O3D       33.6480   12.2540  -19.7440 O.3   405  NAD405     -0.2175
     33  C2D       32.8770   14.2660  -20.8040 C.3   405  NAD405      0.2309
     34  O2D       32.0950   13.3200  -21.4980 O.3   405  NAD405     -0.2158
     35  C1D       32.0540   14.9960  -19.7480 C.3   405  NAD405      0.2263
     36  N1N       31.4670   16.2650  -20.2350 N.pl3 405  NAD405     -0.2787
     37  C2N       32.2520   17.2420  -20.7950 C.3   405  NAD405      0.1244
     38  C3N       31.6890   18.4390  -21.2440 C.2   405  NAD405      0.0544
     39  C7N       32.5600   19.6590  -21.3410 C.2   405  NAD405      0.2818
     40  O7N       31.9650   20.8800  -21.7120 O.2   405  NAD405     -0.2670
     41  N7N       33.8640   19.5750  -21.0700 N.am  405  NAD405     -0.0839
     42  C4N       30.3100   18.6280  -21.1210 C.2   405  NAD405      0.0033
     43  C5N       29.5170   17.6400  -20.5460 C.2   405  NAD405      0.0157
     44  C6N       30.1140   16.4580  -20.1060 C.2   405  NAD405      0.0633
@<TRIPOS>BOND
     1     2     1    2
     2    40    39    2
     3    18    17    1
     4    15    14    1
     5    15    16    2
     6    34    33    1
     7     3     1    1
     8    39    38    1
     9    39    41   am
    10    38    42    2
    11    38    37    1
    12     1    23    1
    13     1     4    1
    14    42    43    1
    15    14    13    1
    16    33    31    1
    17    33    35    1
    18    37    36    1
    19    25    24    2
    20     5     4    1
    21     5     6    1
    22    16    17    1
    23    16    22    1
    24    43    44    2
    25    17    19    2
    26    23    24    1
    27    36    44    1
    28    36    35    1
    29    31    32    1
    30    31    29    1
    31    35    30    1
    32    13    22    1
    33    13    12    1
    34    24    27    1
    35    24    26    1
    36     8     6    1
    37     8     9    1
    38     8    10    1
    39     6     7    1
    40    22    21    2
    41    27    28    1
    42    19    20    1
    43     7    12    1
    44    12    10    1
    45    10    11    1
    46    29    30    1
    47    29    28    1
    48    21    20    1
