@<TRIPOS>MOLECULE
3c7f_XYP_A_1.pdb
 10 10 0 0 0
SMALL
GASTEIGER

@<TRIPOS>ATOM
      1  O4A       38.7290    6.3190   27.0990 O.3   802  XYP802     -0.1869
      2  C1B       39.1260    7.1870   26.0620 C.3   802  XYP802      0.3024
      3  C2B       40.4590    7.8060   26.4010 C.3   802  XYP802      0.2434
      4  C3B       40.9290    8.6550   25.2300 C.3   802  XYP802      0.2199
      5  C4B       40.8850    7.8680   23.9230 C.3   802  XYP802      0.2143
      6  C5B       39.5310    7.1780   23.7650 C.3   802  XYP802      0.1804
      7  O2B       40.3530    8.6280   27.5460 O.3   802  XYP802     -0.2148
      8  O3B       42.2400    9.1310   25.4720 O.3   802  XYP802     -0.2174
      9  O4B       41.0370    8.7880   22.8630 O.3   802  XYP802     -0.2176
     10  O5B       39.2260    6.4320   24.9310 O.3   802  XYP802     -0.3237
@<TRIPOS>BOND
     1     9     5    1
     2     6     5    1
     3     6    10    1
     4     5     4    1
     5    10     2    1
     6     4     8    1
     7     4     3    1
     8     2     3    1
     9     2     1    1
    10     3     7    1
