@<TRIPOS>MOLECULE
3c7g_XYP_A_1.pdb
 10 10 0 0 0
SMALL
GASTEIGER

@<TRIPOS>ATOM
      1  O4A       -0.2070   32.2110   29.8040 O.3   1137  XYP1137    -0.1869
      2  C1B       -1.5580   31.8060   29.5890 C.3   1137  XYP1137     0.3024
      3  C2B       -1.9780   32.4630   28.2800 C.3   1137  XYP1137     0.2434
      4  C3B       -3.3330   31.9430   27.8660 C.3   1137  XYP1137     0.2199
      5  C4B       -3.2960   30.4320   27.8030 C.3   1137  XYP1137     0.2143
      6  C5B       -2.8170   29.7940   29.1050 C.3   1137  XYP1137     0.1804
      7  O2B       -2.0990   33.8720   28.4450 O.3   1137  XYP1137    -0.2148
      8  O3B       -3.7030   32.4970   26.5960 O.3   1137  XYP1137    -0.2174
      9  O4B       -4.6440   30.0400   27.5610 O.3   1137  XYP1137    -0.2176
     10  O5B       -1.5660   30.3760   29.4840 O.3   1137  XYP1137    -0.3237
@<TRIPOS>BOND
     1     8     4    1
     2     9     5    1
     3     5     4    1
     4     5     6    1
     5     4     3    1
     6     3     7    1
     7     3     2    1
     8     6    10    1
     9    10     2    1
    10     2     1    1
