@<TRIPOS>MOLECULE
3c7h_XYP_A_1.pdb
 10 10 0 0 0
SMALL
GASTEIGER

@<TRIPOS>ATOM
      1  O4A       48.8490   11.9780   17.6420 O.3   802  XYP802     -0.1869
      2  C1B       47.8920   10.9610   17.8750 C.3   802  XYP802      0.3024
      3  C2B       48.3250   10.1310   19.0570 C.3   802  XYP802      0.2434
      4  C3B       47.2360    9.1130   19.4200 C.3   802  XYP802      0.2199
      5  C4B       45.8960    9.8140   19.6260 C.3   802  XYP802      0.2143
      6  C5B       45.6090   10.6000   18.3480 C.3   802  XYP802      0.1804
      7  O2B       49.4960    9.4340   18.6980 O.3   802  XYP802     -0.2148
      8  O3B       47.5970    8.3980   20.5780 O.3   802  XYP802     -0.2174
      9  O4B       44.8830    8.8550   19.8640 O.3   802  XYP802     -0.2176
     10  O5B       46.6640   11.5180   18.0770 O.3   802  XYP802     -0.3237
@<TRIPOS>BOND
     1     1     2    1
     2     2    10    1
     3     2     3    1
     4    10     6    1
     5     6     5    1
     6     7     3    1
     7     3     4    1
     8     4     5    1
     9     4     8    1
    10     5     9    1
