@<TRIPOS>MOLECULE
3c7i_TVN_A_1.pdb
 36 36 0 0 0
SMALL
GASTEIGER

@<TRIPOS>ATOM
      1  OBH      -11.4300    8.4070   -5.5280 O.3   202  TVN202     -0.1039
      2  PBF       -9.8850    8.6990   -5.8650 P.3   202  TVN202      0.5887
      3  OBI       -9.7520    8.5920   -7.4660 O.2   202  TVN202     -0.2114
      4  OBG       -8.9580    7.7700   -5.1790 O.3   202  TVN202     -0.1039
      5  OBE       -9.5960   10.2520   -5.5410 O.3   202  TVN202     -0.3998
      6  CBD       -9.8600   10.7150   -4.2880 C.ar  202  TVN202      0.1490
      7  CBC       -9.5000   12.0320   -4.0310 C.ar  202  TVN202      0.0371
      8  CBB       -9.8380   12.6420   -2.8230 C.ar  202  TVN202     -0.0011
      9  CBJ      -10.5520    9.9960   -3.3130 C.ar  202  TVN202      0.0371
     10  CBK      -10.8900   10.6020   -2.1050 C.ar  202  TVN202     -0.0011
     11  CBA      -10.5410   11.9290   -1.8610 C.ar  202  TVN202     -0.0215
     12  CAZ      -10.9670   12.6460   -0.5750 C.3   202  TVN202      0.0360
     13  CAF      -12.6140   14.1730   -1.7960 C.3   202  TVN202      0.0963
     14  CAC      -12.8640   13.4590   -3.1270 C.2   202  TVN202      0.2419
     15  OAD      -13.5550   12.4450   -3.1820 O.2   202  TVN202     -0.2733
     16  NAB      -12.2880   14.0320   -4.1820 N.am  202  TVN202     -0.2035
     17  CAA      -12.6530   13.5290   -5.5150 C.3   202  TVN202      0.1385
     18  CAG      -12.3940   13.2010   -0.6310 C.3   202  TVN202      0.0917
     19  CAH      -12.7500   13.9250    0.6710 C.2   202  TVN202      0.2421
     20  OAI      -12.3910   15.0850    0.8730 O.2   202  TVN202     -0.2733
     21  NAJ      -13.4470   13.2030    1.5400 N.am  202  TVN202     -0.1978
     22  CAK      -13.9140   13.7210    2.8390 C.3   202  TVN202      0.1726
     23  CAW      -14.6560   12.6190    3.6010 C.3   202  TVN202      0.0290
     24  CAX      -15.8320   12.0850    2.7800 C.3   202  TVN202      0.0023
     25  CAY      -15.1640   13.1140    4.9580 C.3   202  TVN202      0.0023
     26  CAL      -12.7830   14.2990    3.6960 C.2   202  TVN202      0.2616
     27  OAM      -12.9430   15.3610    4.2990 O.2   202  TVN202     -0.2715
     28  NAN      -11.6620   13.5870    3.7310 N.am  202  TVN202     -0.1958
     29  CAO      -10.4970   14.0100    4.5240 C.3   202  TVN202      0.1836
     30  CAT       -9.4500   14.7050    3.6510 C.2   202  TVN202      0.2811
     31  OAV       -8.2850   14.8210    4.0290 O.2   202  TVN202     -0.2698
     32  NAU       -9.9020   15.1730    2.4920 N.am  202  TVN202     -0.0863
     33  CAP       -9.8970   12.8060    5.2580 C.3   202  TVN202      0.1196
     34  CAQ       -9.4170   11.7090    4.3060 C.2   202  TVN202      0.2630
     35  OAS       -9.8750   11.6030    3.1670 O.2   202  TVN202     -0.2716
     36  NAR       -8.4830   10.9070    4.8060 N.am  202  TVN202     -0.0877
@<TRIPOS>BOND
     1     3     2    2
     2     2     5    1
     3     2     1    1
     4     2     4    1
     5     5     6    1
     6    17    16    1
     7     6     7   ar
     8     6     9   ar
     9    16    14   am
    10     7     8   ar
    11     9    10   ar
    12    15    14    2
    13    14    13    1
    14     8    11   ar
    15    10    11   ar
    16    11    12    1
    17    13    18    1
    18    18    12    1
    19    18    19    1
    20    19    20    2
    21    19    21   am
    22    21    22    1
    23    32    30   am
    24    24    23    1
    25    22    23    1
    26    22    26    1
    27    35    34    2
    28    23    25    1
    29    30    31    2
    30    30    29    1
    31    26    28   am
    32    26    27    2
    33    28    29    1
    34    34    36   am
    35    34    33    1
    36    29    33    1
