@<TRIPOS>MOLECULE
3c7k_GDP_A_1.pdb
 28 30 0 0 0
SMALL
GASTEIGER

@<TRIPOS>ATOM
      1  PB       -15.2740   34.7120   41.6650 P.3   361  GDP361      0.5373
      2  O1B      -14.4470   33.4300   41.4450 O.2   361  GDP361     -0.2221
      3  O2B      -16.2220   34.8160   42.7890 O.3   361  GDP361     -0.1143
      4  O3B      -14.2420   36.0520   41.5230 O.3   361  GDP361     -0.1143
      5  O3A      -16.0980   35.2930   40.4050 O.3   361  GDP361     -0.2261
      6  PA       -17.7030   35.8190   40.5770 P.3   361  GDP361      0.2231
      7  O1A      -18.4140   34.4070   40.7310 O.2   361  GDP361     -0.5169
      8  O2A      -17.7790   36.7860   41.8300 O.3   361  GDP361     -0.4370
      9  O5'      -17.8130   36.5160   39.1450 O.3   361  GDP361     -0.3111
     10  C5'      -17.3220   37.9660   39.2670 C.3   361  GDP361      0.1813
     11  C4'      -18.2800   39.0060   38.8530 C.3   361  GDP361      0.1799
     12  O4'      -18.4590   38.7430   37.3300 O.3   361  GDP361     -0.3326
     13  C3'      -19.7710   38.7360   39.3650 C.3   361  GDP361      0.2158
     14  O3'      -20.4410   40.0970   39.1540 O.3   361  GDP361     -0.2175
     15  C2'      -20.4060   37.7270   38.3450 C.3   361  GDP361      0.2310
     16  O2'      -21.8230   37.5710   38.2750 O.3   361  GDP361     -0.2158
     17  C1'      -19.8490   38.2370   36.9710 C.3   361  GDP361      0.2293
     18  N9       -19.6930   37.1600   35.9430 N.pl3 361  GDP361     -0.2354
     19  C8       -19.0590   35.7930   36.2810 C.3   361  GDP361      0.2246
     20  N7       -19.2200   35.3130   34.9060 N.2   361  GDP361     -0.2322
     21  C5       -19.7820   36.1120   33.9740 C.2   361  GDP361      0.2182
     22  C6       -20.1780   36.2500   32.6150 C.1   361  GDP361      0.2372
     23  O6       -19.9410   35.1520   31.8160 O.2   361  GDP361     -0.2069
     24  N1       -20.7730   37.3930   32.0680 N.2   361  GDP361     -0.2485
     25  C2       -21.0060   38.5700   33.0050 C.1   361  GDP361      0.2531
     26  N2       -21.5730   39.5830   32.3500 N.pl3 361  GDP361     -0.0226
     27  N3       -20.6690   38.4860   34.2100 N.2   361  GDP361     -0.3074
     28  C4       -20.0960   37.3550   34.6790 C.2   361  GDP361      0.2300
@<TRIPOS>BOND
     1    23    22    2
     2    24    22    2
     3    24    25    2
     4    26    25    1
     5    22    21    1
     6    25    27    2
     7    21    28    1
     8    21    20    2
     9    27    28    2
    10    28    18    1
    11    20    19    1
    12    18    19    1
    13    18    17    1
    14    17    12    1
    15    17    15    1
    16    12    11    1
    17    16    15    1
    18    15    13    1
    19    11    10    1
    20    11    13    1
    21     9    10    1
    22     9     6    1
    23    14    13    1
    24     5     6    1
    25     5     1    1
    26     6     7    2
    27     6     8    1
    28     2     1    2
    29     4     1    1
    30     1     3    1
