@<TRIPOS>MOLECULE
3c7n_ADP_A_1.pdb
 27 29 0 0 0
SMALL
GASTEIGER

@<TRIPOS>ATOM
      1  PB       -31.8720   11.9060  -15.9300 P.3   672  ADP672      0.5373
      2  O1B      -31.6490   10.7230  -16.8830 O.2   672  ADP672     -0.2221
      3  O2B      -33.2990   11.9990  -15.4330 O.3   672  ADP672     -0.1143
      4  O3B      -30.8170   12.0700  -14.8560 O.3   672  ADP672     -0.1143
      5  PA       -32.7370   14.4860  -16.7310 P.3   672  ADP672      0.2231
      6  O1A      -34.0800   13.9670  -17.1480 O.2   672  ADP672     -0.5169
      7  O2A      -32.5180   15.1430  -15.3870 O.3   672  ADP672     -0.4370
      8  O3A      -31.7150   13.2400  -16.8320 O.3   672  ADP672     -0.2261
      9  O5'      -32.2410   15.4270  -17.9200 O.3   672  ADP672     -0.3111
     10  C5'      -30.8560   15.7050  -18.0950 C.3   672  ADP672      0.1813
     11  C4'      -30.4920   15.7190  -19.5830 C.3   672  ADP672      0.1821
     12  O4'      -31.3680   16.5930  -20.3100 O.3   672  ADP672     -0.3135
     13  C3'      -29.0690   16.2190  -19.7680 C.3   672  ADP672      0.2184
     14  O3'      -28.3700   15.3990  -20.7110 O.3   672  ADP672     -0.2174
     15  C2'      -29.2270   17.6060  -20.3490 C.3   672  ADP672      0.2570
     16  O2'      -28.2130   17.8530  -21.3260 O.3   672  ADP672     -0.2130
     17  C1'      -30.6300   17.6310  -20.9540 C.3   672  ADP672      0.3186
     18  N9       -31.1760   18.9980  -20.7530 N.pl3 672  ADP672     -0.1439
     19  C8       -31.3000   19.6590  -19.5850 C.3   672  ADP672      0.3377
     20  N7       -31.7960   20.9210  -19.7650 N.2   672  ADP672     -0.2095
     21  C5       -31.9790   21.0780  -21.0910 C.2   672  ADP672      0.2526
     22  C6       -32.4680   22.1530  -21.9790 C.2   672  ADP672      0.4393
     23  N6       -32.8690   23.3310  -21.4700 N.pl3 672  ADP672      0.2180
     24  N1       -32.5080   21.9130  -23.3050 N.2   672  ADP672      0.0021
     25  C2       -32.1080   20.7370  -23.8190 C.3   672  ADP672      0.5254
     26  N3       -31.6520   19.7120  -23.0810 N.2   672  ADP672     -0.0055
     27  C4       -31.5640   19.8160  -21.7340 C.2   672  ADP672      0.3518
@<TRIPOS>BOND
     1    25    24    1
     2    25    26    1
     3    24    22    2
     4    26    27    2
     5    22    23    1
     6    22    21    1
     7    27    21    1
     8    27    18    1
     9    16    15    1
    10    21    20    2
    11    17    18    1
    12    17    15    1
    13    17    12    1
    14    18    19    1
    15    14    13    1
    16    15    13    1
    17    12    11    1
    18    13    11    1
    19    20    19    1
    20    11    10    1
    21    10     9    1
    22     9     5    1
    23     6     5    2
    24     2     1    2
    25     8     5    1
    26     8     1    1
    27     5     7    1
    28     1     3    1
    29     1     4    1
