@<TRIPOS>MOLECULE
3c7o_CTT_A_1.pdb
 45 48 0 0 0
SMALL
GASTEIGER

@<TRIPOS>ATOM
      1  O1B       -0.9570   33.1750   30.1870 O.3   600  CTT600     -0.1714
      2  C1B       -2.1400   32.5840   29.6350 C.3   600  CTT600      0.3509
      3  C2B       -2.1260   32.7610   28.1180 C.3   600  CTT600      0.2569
      4  O2B       -2.2660   34.1580   27.8210 O.3   600  CTT600     -0.2134
      5  C3B       -3.2360   32.0040   27.3770 C.3   600  CTT600      0.2230
      6  O3B       -2.7830   31.7410   26.0430 O.3   600  CTT600     -0.2171
      7  O5B       -2.1770   31.1940   29.9600 O.2   600  CTT600     -0.4474
      8  C5B       -3.3900   30.5640   29.4620 C.2   600  CTT600      0.1905
      9  C6B       -4.1630   29.9030   30.3460 C.2   600  CTT600      0.2690
     10  O6B       -5.2930   29.2930   29.9940 O.2   600  CTT600     -0.2800
     11  C4B       -3.7170   30.6730   27.9860 C.3   600  CTT600      0.2102
     12  O4B       -5.1270   30.5460   27.7430 O.3   600  CTT600     -0.3204
     13  C1C       -5.4390   29.7270   26.6090 C.3   600  CTT600      0.2699
     14  C2C       -6.8850   29.2530   26.6980 C.3   600  CTT600      0.2405
     15  O2C       -7.0890   28.5300   27.9140 O.3   600  CTT600     -0.2149
     16  C3C       -7.2390   28.3720   25.5010 C.3   600  CTT600      0.2167
     17  O3C       -8.6480   28.0970   25.5260 O.3   600  CTT600     -0.2175
     18  O5C       -5.2800   30.4710   25.3960 O.3   600  CTT600     -0.3257
     19  C5C       -5.4750   29.7010   24.2070 C.3   600  CTT600      0.1803
     20  C6C       -5.2440   30.6350   23.0230 C.3   600  CTT600      0.2141
     21  O6C       -6.4500   31.2650   22.5640 O.3   600  CTT600     -0.2176
     22  C4C       -6.8720   29.0610   24.1780 C.3   600  CTT600      0.1804
     23  O4C       -6.9680   28.1430   23.0810 O.3   600  CTT600     -0.3257
     24  C1D       -8.1010   28.4120   22.2550 C.3   600  CTT600      0.2695
     25  C2D       -8.0230   27.7340   20.8940 C.3   600  CTT600      0.2404
     26  O2D       -6.8100   28.1140   20.2370 O.3   600  CTT600     -0.2149
     27  C3D       -9.2620   28.1180   20.0640 C.3   600  CTT600      0.2167
     28  O3D       -9.7690   26.9740   19.3710 O.3   600  CTT600     -0.2175
     29  O5D       -9.2750   27.9200   22.8930 O.3   600  CTT600     -0.3257
     30  C5D      -10.4490   28.5630   22.4110 C.3   600  CTT600      0.1803
     31  C6D      -11.6500   27.7790   22.9290 C.3   600  CTT600      0.2141
     32  O6D      -12.2250   28.5460   23.9920 O.3   600  CTT600     -0.2176
     33  C4D      -10.3630   28.8590   20.8840 C.3   600  CTT600      0.1804
     34  O4D      -11.6370   29.1050   20.2140 O.3   600  CTT600     -0.3257
     35  C1E      -12.5610   27.9980   20.1100 C.3   600  CTT600      0.2695
     36  C2E      -14.0200   28.4870   20.2500 C.3   600  CTT600      0.2406
     37  O2E      -14.5870   27.9460   21.4550 O.3   600  CTT600     -0.2149
     38  C3E      -14.9790   28.1580   19.0910 C.3   600  CTT600      0.2198
     39  O3E      -15.1340   29.3100   18.2490 O.3   600  CTT600     -0.2174
     40  C4E      -14.6150   26.9250   18.2450 C.3   600  CTT600      0.2144
     41  O4E      -15.6710   25.9590   18.3180 O.3   600  CTT600     -0.2176
     42  O5E      -12.3250   27.2600   18.9030 O.3   600  CTT600     -0.3256
     43  C5E      -13.3110   26.2530   18.6720 C.3   600  CTT600      0.1835
     44  C6E      -12.8010   25.2930   17.6040 C.3   600  CTT600      0.2142
     45  O6E      -13.7890   24.3040   17.2980 O.3   600  CTT600     -0.2176
@<TRIPOS>BOND
     1    45    44    1
     2    44    43    1
     3    40    41    1
     4    40    43    1
     5    40    38    1
     6    39    38    1
     7    43    42    1
     8    42    35    1
     9    38    36    1
    10    28    27    1
    11    27    33    1
    12    27    25    1
    13    35    34    1
    14    35    36    1
    15    34    33    1
    16    26    25    1
    17    36    37    1
    18    33    30    1
    19    25    24    1
    20    24    29    1
    21    24    23    1
    22    30    29    1
    23    30    31    1
    24    21    20    1
    25    31    32    1
    26    20    19    1
    27    23    22    1
    28    22    19    1
    29    22    16    1
    30    19    18    1
    31    18    13    1
    32    16    17    1
    33    16    14    1
    34     6     5    1
    35    13    14    1
    36    13    12    1
    37    14    15    1
    38     5    11    1
    39     5     3    1
    40    12    11    1
    41     4     3    1
    42    11     8    1
    43     3     2    1
    44     8     7    1
    45     8     9    2
    46     2     7    1
    47     2     1    1
    48    10     9    1
