@<TRIPOS>MOLECULE
3c7p_POF_A_1.pdb
 33 37 0 0 0
SMALL
GASTEIGER

@<TRIPOS>ATOM
      1  O1        -4.6800    1.4930   17.2800 O.3   265  POF265     -0.0428
      2  O3        -4.9330    1.2870   14.8720 O.3   265  POF265     -0.3469
      3  O4        -3.4500   12.4880   13.7150 O.2   265  POF265     -0.2745
      4  O2        -6.9220    1.4180   16.2440 O.3   265  POF265     -0.0428
      5  C1        -4.3760    2.5740   14.6350 C.ar  265  POF265      0.1725
      6  C2        -5.1710    3.7340   14.5710 C.ar  265  POF265      0.0353
      7  N1        -5.5760   -0.6130   16.4690 N.3   265  POF265      0.0501
      8  C3        -4.5510    4.9930   14.3370 C.ar  265  POF265     -0.0230
      9  C4        -3.1170    5.0780   14.1670 C.ar  265  POF265     -0.0263
     10  C5        -2.3670    3.8670   14.2420 C.ar  265  POF265     -0.0014
     11  S1        -5.5770    0.9490   16.3160 S.3   265  POF265      0.1232
     12  C6        -2.9870    2.6250   14.4740 C.ar  265  POF265      0.0395
     13  C7        -5.4180    6.2340   14.2780 C.3   265  POF265      0.0261
     14  C8        -4.6140    7.5400   14.4800 C.3   265  POF265      0.0050
     15  C9        -3.4180    7.5800   13.5200 C.3   265  POF265      0.0053
     16  C10       -2.4140    6.4390   13.9220 C.3   265  POF265      0.0221
     17  C11       -2.6400    8.9410   13.5400 C.3   265  POF265      0.0176
     18  C12       -1.4390    8.9480   12.4970 C.3   265  POF265      0.0699
     19  C13       -0.5220    7.7130   12.7590 C.3   265  POF265      0.0090
     20  C14       -1.2910    6.3770   12.8570 C.3   265  POF265      0.0048
     21  C15       -1.9510    8.9040   11.0140 C.3   265  POF265      0.0091
     22  C16       -3.5490   10.1820   13.2730 C.3   265  POF265      0.0862
     23  C17       -2.8090   11.4950   13.3620 C.2   265  POF265      0.2316
     24  N2        -1.3750   11.5060   13.0330 N.am  265  POF265     -0.2255
     25  C18       -0.6570   10.2720   12.6100 C.2   265  POF265      0.2307
     26  O5         0.5590   10.2800   12.3390 O.2   265  POF265     -0.2745
     27  C19       -0.5980   12.8190   13.1270 C.3   265  POF265      0.1289
     28  C20       -0.1300   13.2150   14.4610 C.ar  265  POF265      0.0173
     29  C21        0.7380   12.4350   15.2330 C.ar  265  POF265      0.0005
     30  C22        1.1880   12.8690   16.5700 C.ar  265  POF265      0.0204
     31  C23        0.7280   14.0810   17.0520 C.ar  265  POF265      0.0989
     32  N3        -0.0900   14.8090   16.3170 N.ar  265  POF265     -0.2426
     33  C24       -0.5460   14.4300   15.0300 C.ar  265  POF265      0.0962
@<TRIPOS>BOND
     1    21    18    1
     2    26    25    2
     3    18    25    1
     4    18    19    1
     5    18    17    1
     6    25    24   am
     7    19    20    1
     8    20    16    1
     9    24    27    1
    10    24    23   am
    11    27    28    1
    12    22    23    1
    13    22    17    1
    14    23     3    2
    15    15    17    1
    16    15    16    1
    17    15    14    1
    18    16     9    1
    19     9    10   ar
    20     9     8   ar
    21    10    12   ar
    22    13     8    1
    23    13    14    1
    24     8     6   ar
    25    28    33   ar
    26    28    29   ar
    27    12     5   ar
    28     6     5   ar
    29     5     2    1
    30     2    11    1
    31    33    32   ar
    32    29    30   ar
    33     4    11    1
    34    11     7    1
    35    11     1    1
    36    32    31   ar
    37    30    31   ar
