@<TRIPOS>MOLECULE
3c7q_XIN_A_1.pdb
 40 44 0 0 0
SMALL
GASTEIGER

@<TRIPOS>ATOM
      1  C1        21.3310   64.4740   30.7450 C.2   1172  XIN1172     0.1120
      2  C2        20.9760   63.1320   31.1930 C.2   1172  XIN1172     0.0398
      3  C3        20.8030   65.3580   29.8830 C.2   1172  XIN1172     0.0824
      4  C4        22.5800   64.8020   31.4790 C.1   1172  XIN1172     0.2060
      5  C5        21.9510   62.7530   32.0920 C.2   1172  XIN1172     0.1447
      6  C6        19.9510   62.2800   30.9270 C.2   1172  XIN1172    -0.0178
      7  C7        19.5670   65.0430   29.1840 C.ar  1172  XIN1172     0.0160
      8  C11       21.9460   61.5360   32.7280 C.2   1172  XIN1172     0.0355
      9  C12       19.9250   61.0470   31.5410 C.3   1172  XIN1172     0.0591
     10  C15       21.0950   67.6490   28.8550 C.ar  1172  XIN1172     0.0706
     11  C16       20.8970   60.6570   32.4460 C.2   1172  XIN1172     0.0603
     12  C17       17.2270   64.6330   29.3230 C.ar  1172  XIN1172     0.0000
     13  C18       18.3210   64.6410   27.2250 C.ar  1172  XIN1172     0.0000
     14  C19       22.1550   68.4590   28.7880 C.ar  1172  XIN1172     0.0178
     15  C21       20.8490   59.3010   33.0550 C.2   1172  XIN1172     0.3377
     16  C23       22.1340   69.6170   28.0560 C.ar  1172  XIN1172     0.0162
     17  C24       19.9460   69.1960   27.3650 C.ar  1172  XIN1172     0.0162
     18  O25       21.9080   58.9770   33.7750 O.3   1172  XIN1172    -0.4415
     19  O26       19.9910   58.5370   32.8490 O.2   1172  XIN1172    -0.2452
     20  C27       21.0450   70.0310   27.3330 C.ar  1172  XIN1172     0.0540
     21  C30       20.6560   72.4280   27.1380 C.2   1172  XIN1172     0.2458
     22  C31       21.8660   71.3300   25.3760 C.3   1172  XIN1172     0.1201
     23  C32       20.1990   72.3990   28.6000 C.3   1172  XIN1172     0.1591
     24  C35       19.6040   74.0660   30.2000 C.3   1172  XIN1172     0.0900
     25  C36       21.8290   73.3870   30.1250 C.3   1172  XIN1172     0.0900
     26  C37       19.9350   75.4220   30.7970 C.3   1172  XIN1172     0.0897
     27  C38       22.2460   74.7440   30.6790 C.3   1172  XIN1172     0.0897
     28  C40       21.6020   76.7500   31.7510 C.3   1172  XIN1172     0.0897
     29  O33       20.6590   73.4410   26.5050 O.2   1172  XIN1172    -0.2730
     30  N34       20.6530   73.5700   29.3270 N.3   1172  XIN1172    -0.2625
     31  N39       21.2120   75.3920   31.4700 N.3   1172  XIN1172    -0.2691
     32  N29       21.1430   71.2580   26.6250 N.am  1172  XIN1172    -0.2557
     33  C20       19.9940   68.0210   28.1170 C.ar  1172  XIN1172     0.0178
     34  N8        21.3550   66.5720   29.6290 N.pl3 1172  XIN1172    -0.2117
     35  C14       19.5140   64.9250   27.8200 C.ar  1172  XIN1172     0.0013
     36  C22       17.1770   64.4780   27.9650 C.ar  1172  XIN1172     0.0000
     37  C13       18.4160   64.9180   29.9220 C.ar  1172  XIN1172     0.0013
     38  C28       21.8240   57.6660   34.2350 C.3   1172  XIN1172     0.2559
     39  N9        22.8730   63.7300   32.2230 N.2   1172  XIN1172    -0.3328
     40  O10       23.1970   65.7690   31.4040 O.2   1172  XIN1172    -0.2093
@<TRIPOS>BOND
     1    22    32    1
     2    29    21    2
     3    32    21   am
     4    32    20    1
     5    21    23    1
     6    13    35   ar
     7    13    36   ar
     8    20    17   ar
     9    20    16   ar
    10    17    33   ar
    11    35     7   ar
    12    36    12   ar
    13    16    14   ar
    14    33    10   ar
    15    23    30    1
    16    14    10   ar
    17    10    34    1
    18     7     3    1
    19     7    37   ar
    20    12    37   ar
    21    30    25    1
    22    30    24    1
    23    34     3    1
    24     3     1    2
    25    25    27    1
    26    24    26    1
    27    27    31    1
    28     1     2    1
    29     1     4    1
    30    26    31    1
    31     6     2    2
    32     6     9    1
    33     2     5    1
    34    40     4    2
    35    31    28    1
    36     4    39    2
    37     9    11    1
    38     5    39    2
    39     5     8    1
    40    11     8    2
    41    11    15    1
    42    19    15    2
    43    15    18    1
    44    18    38    1
