@<TRIPOS>MOLECULE
3c84_TH4_A_1.pdb
 16 17 0 0 0
SMALL
GASTEIGER

@<TRIPOS>ATOM
      1  C5       -12.5870   20.4270   59.5610 C.ar  301  TH4301      0.0014
      2  C6       -11.6010   20.4210   58.5510 C.ar  301  TH4301      0.0305
      3  C1       -10.3650   19.7710   58.7150 C.ar  301  TH4301      0.1383
      4 CL7        -9.2760   19.7750   57.5600 Cl    301  TH4301     -0.0613
      5  N2       -10.1750   19.1750   59.9190 N.ar  301  TH4301     -0.2327
      6  C3       -11.0350   19.1800   60.9180 C.ar  301  TH4301      0.0972
      7  C4       -12.3060   19.8100   60.7720 C.ar  301  TH4301      0.0169
      8  C8       -13.3820   19.8170   61.8830 C.3   301  TH4301      0.1209
      9  N9       -12.7950   19.7210   63.2340 N.pl3 301  TH4301     -0.2828
     10  C13      -12.8390   18.4490   64.0110 C.3   301  TH4301      0.1050
     11  C12      -12.6380   18.8190   65.4870 C.3   301  TH4301      0.0864
     12  S11      -11.5690   20.3000   65.3880 S.3   301  TH4301     -0.0775
     13  C10      -12.1630   20.7600   63.8390 C.2   301  TH4301      0.1703
     14  N14      -12.0430   21.9480   63.2520 N.2   301  TH4301     -0.1506
     15  C15      -11.4510   22.9790   63.8050 C.1   301  TH4301      0.2074
     16  N16      -10.9630   23.9160   64.2370 N.1   301  TH4301     -0.1694
@<TRIPOS>BOND
     1     4     3    1
     2     2     3   ar
     3     2     1   ar
     4     3     5   ar
     5     1     7   ar
     6     5     6   ar
     7     7     6   ar
     8     7     8    1
     9     8     9    1
    10     9    13    1
    11     9    10    1
    12    14    15    1
    13    14    13    2
    14    15    16    3
    15    13    12    1
    16    10    11    1
    17    12    11    1
