@<TRIPOS>MOLECULE
3c85_AMP_C_1.pdb
 23 25 0 0 0
SMALL
GASTEIGER

@<TRIPOS>ATOM
      1  P         42.9400   35.1320   30.5370 P.3   201  AMP201      0.5327
      2  O1P       42.8420   36.4710   29.8300 O.3   201  AMP201     -0.1145
      3  O2P       42.7490   33.8990   29.6810 O.2   201  AMP201     -0.2224
      4  O3P       44.1010   35.1490   31.4950 O.3   201  AMP201     -0.1145
      5  O5'       41.6170   35.1030   31.4670 O.3   201  AMP201     -0.2675
      6  C5'       40.4860   35.9370   31.2280 C.3   201  AMP201      0.1860
      7  C4'       39.5600   35.7530   32.4270 C.3   201  AMP201      0.1823
      8  O4'       39.3660   34.3440   32.6190 O.3   201  AMP201     -0.3135
      9  C3'       40.1680   36.2920   33.7170 C.3   201  AMP201      0.2184
     10  O3'       39.1560   36.9000   34.5390 O.3   201  AMP201     -0.2174
     11  C2'       40.6620   35.0290   34.4210 C.3   201  AMP201      0.2570
     12  O2'       40.8440   35.1070   35.8510 O.3   201  AMP201     -0.2130
     13  C1'       39.6190   34.0060   33.9860 C.3   201  AMP201      0.3186
     14  N9        40.1310   32.6140   34.0540 N.pl3 201  AMP201     -0.1439
     15  C8        41.3670   32.2050   33.6600 C.3   201  AMP201      0.3377
     16  N7        41.4950   30.8570   33.8210 N.2   201  AMP201     -0.2095
     17  C5        40.3240   30.3840   34.3090 C.2   201  AMP201      0.2526
     18  C6        39.8200   29.0450   34.7180 C.2   201  AMP201      0.4393
     19  N6        40.6680   27.9840   34.5940 N.pl3 201  AMP201      0.2180
     20  N1        38.5340   28.9360   35.2090 N.2   201  AMP201      0.0021
     21  C2        37.7670   30.0520   35.2760 C.3   201  AMP201      0.5254
     22  N3        38.1910   31.3050   34.9540 N.2   201  AMP201     -0.0055
     23  C4        39.4300   31.5440   34.4720 C.2   201  AMP201      0.3518
@<TRIPOS>BOND
     1     3     1    2
     2     2     1    1
     3     1     5    1
     4     1     4    1
     5     6     5    1
     6     6     7    1
     7     7     8    1
     8     7     9    1
     9     8    13    1
    10    15    16    1
    11    15    14    1
    12     9    11    1
    13     9    10    1
    14    16    17    2
    15    13    14    1
    16    13    11    1
    17    14    23    1
    18    17    23    1
    19    17    18    1
    20    11    12    1
    21    23    22    2
    22    19    18    1
    23    18    20    2
    24    22    21    1
    25    20    21    1
