@<TRIPOS>MOLECULE
3c88_III_B_1.pdb
 33 32 0 0 0
SMALL
GASTEIGER

@<TRIPOS>ATOM
      1  N         27.8550   27.4330   53.0950 N.3   500  ARG500     -0.1231
      2  CA        27.7950   25.9750   53.1300 C.3   500  ARG500      0.1694
      3  C         26.8210   25.4980   54.2010 C.2   500  ARG500      0.2592
      4  O         26.6570   26.1420   55.2370 O.2   500  ARG500     -0.2718
      5  CB        29.1790   25.3830   53.3980 C.3   500  ARG500      0.0321
      6  CG        30.2160   25.7210   52.3460 C.3   500  ARG500      0.0489
      7  CD        31.4460   24.8380   52.5070 C.3   500  ARG500      0.2205
      8  NE        32.4790   25.1620   51.5310 N.pl3 500  ARG500     -0.0865
      9  CZ        33.2360   26.2530   51.5750 C.cat 500  ARG500      0.5346
     10  NH1       33.0830   27.1340   52.5550 N.pl3 500  ARG500      0.1354
     11  NH2       34.1460   26.4650   50.6330 N.pl3 500  ARG500      0.1354
     12  N         26.1930   24.3570   53.9290 N.am  501  ARG501     -0.1966
     13  CA        25.2060   23.7390   54.8050 C.3   501  ARG501      0.1729
     14  C         25.7490   23.1340   56.1060 C.2   501  ARG501      0.2617
     15  O         25.1020   23.2930   57.1650 O.2   501  ARG501     -0.2715
     16  CB        24.4540   22.6430   54.0370 C.3   501  ARG501      0.0348
     17  CG        23.3920   23.1660   53.0790 C.3   501  ARG501      0.0492
     18  CD        22.0880   23.4010   53.8200 C.3   501  ARG501      0.2205
     19  NE        21.7290   22.2400   54.6280 N.pl3 501  ARG501     -0.0865
     20  CZ        20.5720   22.0980   55.2650 C.cat 501  ARG501      0.5346
     21  NH1       19.6420   23.0440   55.1920 N.pl3 501  ARG501      0.1354
     22  NH2       20.3460   21.0070   55.9780 N.pl3 501  ARG501      0.1354
     23  N         26.9130   22.4690   56.0300 N.am  502  GLY502     -0.1940
     24  CA        27.4630   21.8000   57.2100 C.3   502  GLY502      0.2014
     25  C         26.8430   20.4100   57.4370 C.2   502  GLY502      0.2639
     26  O         26.2280   19.8580   56.4910 O.2   502  GLY502     -0.2714
     27  N         26.9920   19.8930   58.6750 N.am  503  CYS503     -0.1953
     28  CA        26.4840   18.5580   59.0650 C.3   503  CYS503      0.1860
     29  C         24.9800   18.5250   59.0440 C.2   503  CYS503      0.2815
     30  O         24.4540   17.4080   58.8560 O.2   503  CYS503     -0.2698
     31  CB        26.9490   18.1090   60.4710 C.3   503  CYS503      0.0997
     32  SG        28.7350   17.8750   60.6350 S.3   503  CYS503     -0.0797
     33  N         24.3550   19.5940   59.2320 N.am  504  NH2504     -0.0863
@<TRIPOS>BOND
     1    11     9    1
     2     8     9    2
     3     8     7    1
     4     9    10    1
     5     6     7    1
     6     6     5    1
     7    17    18    1
     8    17    16    1
     9     1     2    1
    10     2     5    1
    11     2     3    1
    12    18    19    1
    13    12     3   am
    14    12    13    1
    15    16    13    1
    16     3     4    2
    17    19    20    2
    18    13    14    1
    19    21    20    1
    20    20    22    1
    21    23    14   am
    22    23    24    1
    23    14    15    2
    24    26    25    2
    25    24    25    1
    26    25    27   am
    27    27    28    1
    28    30    29    2
    29    29    28    1
    30    29    33   am
    31    28    31    1
    32    31    32    1
