@<TRIPOS>MOLECULE
3c89_III_B_1.pdb
 35 34 0 0 0
SMALL
GASTEIGER

@<TRIPOS>ATOM
      1  N         27.5560   27.4460   53.1860 N.3   500  ARG500     -0.1231
      2  CA        27.5310   25.9890   53.2650 C.3   500  ARG500      0.1694
      3  C         26.5300   25.5250   54.3160 C.2   500  ARG500      0.2592
      4  O         26.3950   26.1300   55.3770 O.2   500  ARG500     -0.2718
      5  CB        28.9130   25.4350   53.6130 C.3   500  ARG500      0.0321
      6  CG        29.9880   25.7270   52.5860 C.3   500  ARG500      0.0489
      7  CD        31.2620   24.9520   52.9150 C.3   500  ARG500      0.2205
      8  NE        32.3300   25.2220   51.9590 N.pl3 500  ARG500     -0.0865
      9  CZ        33.0390   26.3460   51.9150 C.cat 500  ARG500      0.5346
     10  NH1       32.8050   27.3230   52.7820 N.pl3 500  ARG500      0.1354
     11  NH2       33.9820   26.4960   50.9930 N.pl3 500  ARG500      0.1354
     12  N         25.8510   24.4230   54.0130 N.am  501  ARG501     -0.1966
     13  CA        24.8220   23.8370   54.8800 C.3   501  ARG501      0.1729
     14  C         25.3360   23.2260   56.1830 C.2   501  ARG501      0.2617
     15  O         24.7030   23.3940   57.2470 O.2   501  ARG501     -0.2715
     16  CB        24.0650   22.7730   54.1000 C.3   501  ARG501      0.0348
     17  CG        23.0880   23.2970   53.0480 C.3   501  ARG501      0.0492
     18  CD        21.7110   23.4700   53.6660 C.3   501  ARG501      0.2205
     19  NE        21.4660   22.4190   54.6500 N.pl3 501  ARG501     -0.0865
     20  CZ        20.3580   22.2970   55.3740 C.cat 501  ARG501      0.5346
     21  NH1       19.3610   23.1560   55.2310 N.pl3 501  ARG501      0.1354
     22  NH2       20.2620   21.3260   56.2700 N.pl3 501  ARG501      0.1354
     23  N         26.4550   22.5030   56.1000 N.am  502  GLY502     -0.1940
     24  CA        27.0410   21.8860   57.2770 C.3   502  GLY502      0.2014
     25  C         26.4990   20.4920   57.5720 C.2   502  GLY502      0.2639
     26  O         25.8330   19.8790   56.7590 O.2   502  GLY502     -0.2714
     27  N         26.7820   19.9960   58.7720 N.am  503  MET503     -0.1962
     28  CA        26.3340   18.6590   59.2010 C.3   503  MET503      0.1753
     29  C         24.8160   18.5630   59.2910 C.2   503  MET503      0.2806
     30  O         24.2430   17.4770   59.0150 O.2   503  MET503     -0.2698
     31  CB        26.9080   18.3180   60.5780 C.3   503  MET503      0.0428
     32  CG        28.4140   18.1270   60.6320 C.3   503  MET503      0.0599
     33  SD        28.9710   16.6080   59.8460 S.3   503  MET503     -0.1393
     34  CE        28.7230   15.4050   61.1540 C.3   503  MET503      0.0692
     35  N         24.2250   19.5870   59.7040 N.am  504  NH2504     -0.0863
@<TRIPOS>BOND
     1    11     9    1
     2     9     8    2
     3     9    10    1
     4     8     7    1
     5     6     7    1
     6     6     5    1
     7    17    18    1
     8    17    16    1
     9     1     2    1
    10     2     5    1
    11     2     3    1
    12    18    19    1
    13    12     3   am
    14    12    13    1
    15    16    13    1
    16     3     4    2
    17    19    20    2
    18    13    14    1
    19    21    20    1
    20    20    22    1
    21    23    14   am
    22    23    24    1
    23    14    15    2
    24    26    25    2
    25    24    25    1
    26    25    27   am
    27    27    28    1
    28    30    29    2
    29    28    29    1
    30    28    31    1
    31    29    35   am
    32    33    32    1
    33    33    34    1
    34    31    32    1
