@<TRIPOS>MOLECULE
3c8a_III_B_1.pdb
 35 34 0 0 0
SMALL
GASTEIGER

@<TRIPOS>ATOM
      1  N         27.6350   27.5090   53.1220 N.3   500  ARG500     -0.1231
      2  CA        27.5980   26.0500   53.1530 C.3   500  ARG500      0.1694
      3  C         26.5970   25.5820   54.1940 C.2   500  ARG500      0.2592
      4  O         26.4750   26.1890   55.2610 O.2   500  ARG500     -0.2718
      5  CB        28.9750   25.4780   53.4890 C.3   500  ARG500      0.0321
      6  CG        30.0500   25.7980   52.4730 C.3   500  ARG500      0.0489
      7  CD        31.3070   24.9830   52.7500 C.3   500  ARG500      0.2205
      8  NE        32.3650   25.2570   51.7810 N.pl3 500  ARG500     -0.0865
      9  CZ        33.1040   26.3620   51.7640 C.cat 500  ARG500      0.5346
     10  NH1       32.9100   27.3130   52.6680 N.pl3 500  ARG500      0.1354
     11  NH2       34.0410   26.5160   50.8370 N.pl3 500  ARG500      0.1354
     12  N         25.9000   24.4900   53.8900 N.am  501  ARG501     -0.1966
     13  CA        24.8880   23.9530   54.7940 C.3   501  ARG501      0.1729
     14  C         25.4240   23.2970   56.0490 C.2   501  ARG501      0.2617
     15  O         24.7870   23.3580   57.0990 O.2   501  ARG501     -0.2715
     16  CB        24.0060   22.9300   54.0770 C.3   501  ARG501      0.0348
     17  CG        23.1010   23.5140   53.0270 C.3   501  ARG501      0.0492
     18  CD        21.9030   22.6130   52.8290 C.3   501  ARG501      0.2205
     19  NE        20.7280   23.0350   53.5950 N.pl3 501  ARG501     -0.0865
     20  CZ        20.3650   22.5430   54.7770 C.cat 501  ARG501      0.5346
     21  NH1       21.0830   21.5950   55.3610 N.pl3 501  ARG501      0.1354
     22  NH2       19.2690   22.9970   55.3730 N.pl3 501  ARG501      0.1354
     23  N         26.5800   22.6520   55.9430 N.am  502  GLY502     -0.1940
     24  CA        27.1250   21.9760   57.1060 C.3   502  GLY502      0.2014
     25  C         26.5360   20.5860   57.2880 C.2   502  GLY502      0.2639
     26  O         25.9180   20.0530   56.3660 O.2   502  GLY502     -0.2714
     27  N         26.7240   20.0110   58.4750 N.am  503  LEU503     -0.1962
     28  CA        26.2200   18.6750   58.7870 C.3   503  LEU503      0.1744
     29  C         24.7230   18.6310   59.0830 C.2   503  LEU503      0.2806
     30  O         24.1220   17.5500   58.8870 O.2   503  LEU503     -0.2698
     31  CB        26.9680   18.1090   59.9920 C.3   503  LEU503      0.0312
     32  CG        28.4670   17.8480   59.8420 C.3   503  LEU503      0.0022
     33  CD1       29.0180   17.2120   61.1170 C.3   503  LEU503      0.0001
     34  CD2       28.7000   16.9270   58.6540 C.3   503  LEU503      0.0001
     35  N         24.1830   19.6590   59.5530 N.am  504  NH2504     -0.0863
@<TRIPOS>BOND
     1    11     9    1
     2     9     8    2
     3     9    10    1
     4     8     7    1
     5     6     7    1
     6     6     5    1
     7    18    17    1
     8    18    19    1
     9    17    16    1
    10     1     2    1
    11     2     5    1
    12     2     3    1
    13    19    20    2
    14    12     3   am
    15    12    13    1
    16    16    13    1
    17     3     4    2
    18    20    21    1
    19    20    22    1
    20    13    14    1
    21    23    14   am
    22    23    24    1
    23    14    15    2
    24    26    25    2
    25    24    25    1
    26    25    27   am
    27    27    28    1
    28    34    32    1
    29    28    29    1
    30    28    31    1
    31    30    29    2
    32    29    35   am
    33    32    31    1
    34    32    33    1
