@<TRIPOS>MOLECULE
3c8b_III_B_1.pdb
 35 34 0 0 0
SMALL
GASTEIGER

@<TRIPOS>ATOM
      1  N         27.5200   27.5300   53.1940 N.3   500  ARG500     -0.1231
      2  CA        27.4360   26.0730   53.2150 C.3   500  ARG500      0.1694
      3  C         26.4090   25.6090   54.2520 C.2   500  ARG500      0.2592
      4  O         26.2480   26.2060   55.3140 O.2   500  ARG500     -0.2718
      5  CB        28.7950   25.4700   53.5410 C.3   500  ARG500      0.0321
      6  CG        29.8980   25.8180   52.5380 C.3   500  ARG500      0.0489
      7  CD        31.1460   25.0060   52.8150 C.3   500  ARG500      0.2205
      8  NE        32.2120   25.2690   51.8530 N.pl3 500  ARG500     -0.0865
      9  CZ        32.9640   26.3670   51.8360 C.cat 500  ARG500      0.5346
     10  NH1       32.7800   27.3250   52.7340 N.pl3 500  ARG500      0.1354
     11  NH2       33.9090   26.5080   50.9130 N.pl3 500  ARG500      0.1354
     12  N         25.6870   24.5510   53.9230 N.am  501  ARG501     -0.1966
     13  CA        24.6690   24.0220   54.8220 C.3   501  ARG501      0.1729
     14  C         25.2170   23.3700   56.0910 C.2   501  ARG501      0.2617
     15  O         24.5640   23.3890   57.1340 O.2   501  ARG501     -0.2715
     16  CB        23.8010   23.0020   54.0770 C.3   501  ARG501      0.0348
     17  CG        23.1990   23.5500   52.8040 C.3   501  ARG501      0.0492
     18  CD        22.2370   22.5800   52.1570 C.3   501  ARG501      0.2205
     19  NE        22.7850   21.2290   52.1190 N.pl3 501  ARG501     -0.0865
     20  CZ        22.5380   20.2960   53.0330 C.cat 501  ARG501      0.5346
     21  NH1       21.7480   20.5550   54.0680 N.pl3 501  ARG501      0.1354
     22  NH2       23.0810   19.0960   52.9080 N.pl3 501  ARG501      0.1354
     23  N         26.4020   22.7790   55.9920 N.am  502  GLY502     -0.1940
     24  CA        26.9810   22.1000   57.1360 C.3   502  GLY502      0.2014
     25  C         26.3990   20.7060   57.2880 C.2   502  GLY502      0.2639
     26  O         25.6630   20.2390   56.4140 O.2   502  GLY502     -0.2714
     27  N         26.7070   20.0450   58.4000 N.am  503  ILE503     -0.1962
     28  CA        26.2190   18.6850   58.6220 C.3   503  ILE503      0.1743
     29  C         24.8870   18.6520   59.3540 C.2   503  ILE503      0.2806
     30  O         24.2720   17.5630   59.3490 O.2   503  ILE503     -0.2698
     31  CB        27.2300   17.8300   59.4270 C.3   503  ILE503      0.0290
     32  CG1       27.4260   18.4280   60.8240 C.3   503  ILE503      0.0022
     33  CG2       28.5550   17.7390   58.6740 C.3   503  ILE503      0.0023
     34  CD1       28.1520   17.4960   61.7890 C.3   503  ILE503      0.0001
     35  N         24.4870   19.6920   59.9310 N.am  504  NH2504     -0.0863
@<TRIPOS>BOND
     1    11     9    1
     2     9     8    2
     3     9    10    1
     4     8     7    1
     5    19    18    1
     6    19    20    2
     7    18    17    1
     8     6     7    1
     9     6     5    1
    10    17    16    1
    11    22    20    1
    12    20    21    1
    13     1     2    1
    14     2     5    1
    15     2     3    1
    16    12     3   am
    17    12    13    1
    18    16    13    1
    19     3     4    2
    20    13    14    1
    21    23    14   am
    22    23    24    1
    23    14    15    2
    24    26    25    2
    25    24    25    1
    26    25    27   am
    27    27    28    1
    28    28    29    1
    29    28    31    1
    30    33    31    1
    31    30    29    2
    32    29    35   am
    33    31    32    1
    34    32    34    1
