@<TRIPOS>MOLECULE
3c8d_CIT_A_1.pdb
 13 12 0 0 0
SMALL
GASTEIGER

@<TRIPOS>ATOM
      1  C1         2.7300   11.4700    3.0880 C.2   501  CIT501      0.3680
      2  O1         1.5610   11.7490    3.4460 O.co2 501  CIT501     -0.2455
      3  O2         3.6610   11.5000    3.9180 O.co2 501  CIT501     -0.2455
      4  C2         3.0750   11.0840    1.6680 C.3   501  CIT501      0.1560
      5  C3         1.9410   10.4210    0.8670 C.3   501  CIT501      0.2402
      6  O7         1.0320    9.6690    1.7160 O.3   501  CIT501     -0.2129
      7  C4         1.1820   11.4310    0.0020 C.3   501  CIT501      0.1560
      8  C5        -0.1630   10.9700   -0.5430 C.2   501  CIT501      0.3680
      9  O3        -0.2770   10.6450   -1.7550 O.co2 501  CIT501     -0.2455
     10  O4        -1.1910   10.9250    0.1740 O.co2 501  CIT501     -0.2455
     11  C6         2.7130    9.5430   -0.0950 C.2   501  CIT501      0.3927
     12  O5         3.6270    8.7920    0.3150 O.co2 501  CIT501     -0.2429
     13  O6         2.4560    9.6070   -1.3080 O.co2 501  CIT501     -0.2429
@<TRIPOS>BOND
     1     9     8   ar
     2    13    11   ar
     3     8     7    1
     4     8    10   ar
     5    11    12   ar
     6    11     5    1
     7     7     5    1
     8     5     4    1
     9     5     6    1
    10     4     1    1
    11     1     2   ar
    12     1     3   ar
