@<TRIPOS>MOLECULE
3c8e_GSH_A_1.pdb
 20 19 0 0 0
SMALL
GASTEIGER

@<TRIPOS>ATOM
      1  N1        41.9840   69.0650   14.9060 N.3   289  GSH289     -0.1208
      2  CA1       41.2340   69.4320   13.7190 C.3   289  GSH289      0.1948
      3  C1        40.2350   70.4880   13.8670 C.2   289  GSH289      0.3819
      4  O11       39.6070   70.2790   14.8900 O.co2 289  GSH289     -0.2441
      5  O12       39.9660   71.3710   13.0580 O.co2 289  GSH289     -0.2441
      6  CB1       41.0550   68.3100   12.6780 C.3   289  GSH289      0.0402
      7  CG1       40.5410   68.9280   11.3700 C.3   289  GSH289      0.0889
      8  CD1       40.3570   67.8080   10.3350 C.2   289  GSH289      0.2418
      9  OE1       40.6530   66.5260   10.6790 O.2   289  GSH289     -0.2733
     10  N2        39.8940   68.1250    9.1160 N.am  289  GSH289     -0.1968
     11  CA2       39.8400   67.0250    8.1110 C.3   289  GSH289      0.1843
     12  C2        40.6620   67.3870    6.9220 C.2   289  GSH289      0.2627
     13  O2        40.6550   68.6660    6.5050 O.2   289  GSH289     -0.2714
     14  CB2       38.4090   66.9310    7.6410 C.3   289  GSH289      0.0997
     15  SG2       37.2710   66.6760    9.0460 S.3   289  GSH289     -0.0797
     16  N3        41.4150   66.4560    6.3270 N.am  289  GSH289     -0.1917
     17  CA3       42.2810   66.8340    5.2100 C.3   289  GSH289      0.2285
     18  C3        43.4330   65.8800    5.0870 C.2   289  GSH289      0.3865
     19  O31       43.6010   65.0000    5.9630 O.co2 289  GSH289     -0.2437
     20  O32       44.2400   66.0950    4.1220 O.co2 289  GSH289     -0.2437
@<TRIPOS>BOND
     1    20    18   ar
     2    18    17    1
     3    18    19   ar
     4    17    16    1
     5    16    12   am
     6    13    12    2
     7    12    11    1
     8    14    11    1
     9    14    15    1
    10    11    10    1
    11    10     8   am
    12     8     9    2
    13     8     7    1
    14     7     6    1
    15     6     2    1
    16     5     3   ar
    17     2     3    1
    18     2     1    1
    19     3     4   ar
