@<TRIPOS>MOLECULE
3c8f_MT2_A_1.pdb
 11 10 0 0 0
SMALL
GASTEIGER

@<TRIPOS>ATOM
      1  O         22.4990    8.5620   18.9960 O.co2 501  MT2501     -0.2441
      2  C         22.3470    7.9810   17.9070 C.2   501  MT2501      0.3819
      3  OXT       22.9890    8.2030   16.8530 O.co2 501  MT2501     -0.2441
      4  CA        21.2660    6.9010   17.8600 C.3   501  MT2501      0.1952
      5  N         20.6630    6.8630   16.5250 N.3   501  MT2501     -0.1208
      6  CB        21.8500    5.5250   18.2040 C.3   501  MT2501      0.0414
      7  CG        22.8790    5.0820   17.1460 C.3   501  MT2501      0.0502
      8  SD        23.4360    3.3890   17.5290 S.3   501  MT2501     -0.1786
      9  CE        24.8620    2.9670   16.4740 C.3   501  MT2501      0.0589
     10  C4+       20.8710    2.4190   18.1560 C.3   501  MT2501      0.0117
     11  C5+       22.0770    2.2070   17.2290 C.3   501  MT2501      0.0482
@<TRIPOS>BOND
     1     9     8    1
     2     5     4    1
     3     3     2   ar
     4     7     8    1
     5     7     6    1
     6    11     8    1
     7    11    10    1
     8     4     2    1
     9     4     6    1
    10     2     1   ar
