@<TRIPOS>MOLECULE
3c8y_HCN_A_1.pdb
 18 20 0 0 0
SMALL
GASTEIGER

@<TRIPOS>ATOM
      1 FE1        22.4350   17.0570   24.1700 Fe    575  HCN575      0.0000
      2 FE2        22.7070   14.9340   25.5570 Fe    575  HCN575      0.0000
      3  S1        24.3680   15.8320   24.2090 S.3   575  HCN575      0.0000
      4  S2        21.3560   15.0800   23.7060 S.3   575  HCN575      0.0000
      5  O1        23.5790   13.7180   22.4780 O.3   575  HCN575      0.0000
      6  C10       22.1790   14.2020   22.2490 C.3   575  HCN575      0.0000
      7  C9        24.5820   14.7900   22.6960 C.3   575  HCN575      0.0000
      8  O3        19.8380   18.4710   24.1910 O.3   575  HCN575      0.0000
      9  N4        24.1160   19.4130   25.1060 N.1   575  HCN575      0.0000
     10  O5        21.8050   17.2790   27.0590 O.2   575  HCN575      0.0000
     11  N6        20.2920   13.8280   27.0810 N.1   575  HCN575      0.0000
     12  O7        24.5690   14.9770   27.8410 O.3   575  HCN575      0.0000
     13  C3        20.9240   17.9090   24.3060 C.3   575  HCN575      0.0000
     14  C4        23.4440   18.4740   24.7250 C.1   575  HCN575      0.0000
     15  C5        22.2150   16.8010   26.0450 C.2   575  HCN575      0.0000
     16  C6        21.1980   14.3050   26.5810 C.1   575  HCN575      0.0000
     17  C7        23.8020   14.9010   26.9420 C.3   575  HCN575      0.0000
     18  O2        23.4830   12.7920   24.8690 O.3   575  HCN575      0.0000
@<TRIPOS>BOND
     1     6     5    1
     2     6     4    1
     3     5     7    1
     4     7     3    1
     5     4     1    1
     6     4     2    1
     7     1     3    1
     8     1    13    1
     9     1    14    1
    10     1    15    1
    11     8    13    1
    12     3     2    1
    13    14     9    3
    14    18     2    1
    15     2    15    1
    16     2    16    1
    17     2    17    1
    18    15    10    2
    19    16    11    3
    20    17    12    1
