@<TRIPOS>MOLECULE
3c8z_5CA_A_1.pdb
 29 31 0 0 0
SMALL
GASTEIGER

@<TRIPOS>ATOM
      1  N         27.4700   13.6870  -37.4470 N.3   418  5CA418     -0.1220
      2  CA        28.1710   13.5690  -36.1460 C.3   418  5CA418      0.1825
      3  CB        27.6970   12.6590  -35.0710 C.3   418  5CA418      0.0971
      4  SG        26.2500   11.7000  -35.5710 S.3   418  5CA418     -0.0800
      5  C         29.2540   14.5280  -35.8230 C.2   418  5CA418      0.2807
      6  O         29.5760   14.9320  -34.6880 O.2   418  5CA418     -0.2701
      7  N3S       29.9070   14.6920  -36.9430 N.am  418  5CA418     -0.0576
      8  S         31.2460   15.5010  -37.0580 S.3   418  5CA418      0.0852
      9  O1S       31.1520   16.8170  -36.4020 O.3   418  5CA418     -0.0508
     10  O2S       31.6550   15.5540  -38.4920 O.3   418  5CA418     -0.0508
     11  O5'       32.2160   14.6410  -36.3210 O.3   418  5CA418     -0.2230
     12  C5'       32.5140   13.2510  -36.7460 C.3   418  5CA418      0.2064
     13  C4'       33.1130   12.8390  -35.4880 C.3   418  5CA418      0.1842
     14  O4'       34.4510   13.0770  -35.2300 O.3   418  5CA418     -0.3135
     15  C3'       32.6200   12.1930  -34.1720 C.3   418  5CA418      0.2185
     16  O3'       32.5020   10.9640  -33.6910 O.3   418  5CA418     -0.2174
     17  C2'       32.9080   13.3420  -33.3600 C.3   418  5CA418      0.2570
     18  O2'       32.6980   13.2450  -31.9770 O.3   418  5CA418     -0.2130
     19  C1'       34.4100   13.4310  -33.7730 C.3   418  5CA418      0.3186
     20  N9        35.0690   14.6790  -33.6850 N.pl3 418  5CA418     -0.1439
     21  C8        34.6830   15.9340  -33.9940 C.3   418  5CA418      0.3377
     22  N7        35.6740   16.8480  -33.8210 N.2   418  5CA418     -0.2095
     23  C5        36.7900   16.1100  -33.3460 C.2   418  5CA418      0.2526
     24  C6        38.1920   16.5190  -32.9810 C.2   418  5CA418      0.4393
     25  N6        38.5470   17.8070  -33.0170 N.pl3 418  5CA418      0.2180
     26  N1        39.0070   15.4700  -32.5300 N.2   418  5CA418      0.0021
     27  C2        38.5980   14.1090  -32.4580 C.3   418  5CA418      0.5254
     28  N3        37.3060   13.6900  -32.8190 N.2   418  5CA418     -0.0055
     29  C4        36.4090   14.7350  -33.2760 C.2   418  5CA418      0.3518
@<TRIPOS>BOND
     1    10     8    1
     2     1     2    1
     3     8     7    1
     4     8     9    1
     5     8    11    1
     6     7     5   am
     7    12    11    1
     8    12    13    1
     9     2     5    1
    10     2     3    1
    11     5     6    2
    12     4     3    1
    13    13    14    1
    14    13    15    1
    15    14    19    1
    16    15    16    1
    17    15    17    1
    18    21    22    1
    19    21    20    1
    20    22    23    2
    21    19    20    1
    22    19    17    1
    23    20    29    1
    24    17    18    1
    25    23    29    1
    26    23    24    1
    27    29    28    2
    28    25    24    1
    29    24    26    2
    30    28    27    1
    31    26    27    1
