@<TRIPOS>MOLECULE
3c94_III_B_1.pdb
 35 36 0 0 0
SMALL
GASTEIGER

@<TRIPOS>ATOM
      1  N         25.9030   21.7210    3.9890 N.3   174  ASP174     -0.1225
      2  CA        24.6680   22.4480    3.5810 C.3   174  ASP174      0.1805
      3  C         24.1720   23.4250    4.6430 C.2   174  ASP174      0.2598
      4  O         24.0550   23.0700    5.8210 O.2   174  ASP174     -0.2718
      5  CB        23.5570   21.4700    3.1990 C.3   174  ASP174      0.1424
      6  CG        23.4930   21.2240    1.7030 C.2   174  ASP174      0.3668
      7  OD1       24.4760   21.5430    0.9970 O.co2 174  ASP174     -0.2456
      8  OD2       22.4570   20.7200    1.2220 O.co2 174  ASP174     -0.2456
      9  N         23.8830   24.6540    4.2120 N.am  175  ILE175     -0.1966
     10  CA        23.4670   25.7260    5.1140 C.3   175  ILE175      0.1712
     11  C         22.3060   26.5340    4.5410 C.2   175  ILE175      0.2458
     12  O         22.2150   26.7250    3.3300 O.2   175  ILE175     -0.2730
     13  CB        24.6400   26.6850    5.4750 C.3   175  ILE175      0.0289
     14  CG1       25.5140   26.9610    4.2450 C.3   175  ILE175      0.0022
     15  CG2       25.4750   26.1030    6.6270 C.3   175  ILE175      0.0023
     16  CD1       26.0870   28.3750    4.1850 C.3   175  ILE175      0.0001
     17  N         21.4130   27.0130    5.4180 N.am  176  PRO176     -0.2716
     18  CA        20.2350   27.7430    5.0040 C.3   176  PRO176      0.1536
     19  C         20.4590   29.2340    4.7380 C.2   176  PRO176      0.2599
     20  O         19.6410   29.8510    4.0590 O.2   176  PRO176     -0.2715
     21  CB        19.2850   27.5680    6.1940 C.3   176  PRO176      0.0310
     22  CG        20.0350   26.7350    7.2140 C.3   176  PRO176      0.0237
     23  CD        21.4510   26.8430    6.8770 C.3   176  PRO176      0.0939
     24  N         21.5410   29.8180    5.2600 N.am  177  PHE177     -0.1938
     25  CA        21.7540   31.2780    5.1250 C.3   177  PHE177      0.2021
     26  C         23.2010   31.7240    5.4080 C.2   177  PHE177      0.3845
     27  O         23.9860   30.9830    5.9870 O.co2 177  PHE177     -0.2437
     28  CB        20.7860   32.0540    6.0380 C.3   177  PHE177      0.0596
     29  CG        20.9720   31.7530    7.5010 C.ar  177  PHE177     -0.0199
     30  CD1       22.0750   32.2350    8.1870 C.ar  177  PHE177     -0.0042
     31  CD2       20.0620   30.9640    8.1790 C.ar  177  PHE177     -0.0042
     32  CE1       22.2540   31.9470    9.5000 C.ar  177  PHE177     -0.0003
     33  CE2       20.2370   30.6890    9.4940 C.ar  177  PHE177     -0.0003
     34  CZ        21.3400   31.1790   10.1570 C.ar  177  PHE177     -0.0000
     35  OXT       23.5710   32.8890    5.1960 O.co2 177  PHE177     -0.2437
@<TRIPOS>BOND
     1     7     6   ar
     2     8     6   ar
     3     6     5    1
     4     5     2    1
     5    12    11    2
     6     2     1    1
     7     2     3    1
     8    20    19    2
     9    16    14    1
    10     9     3   am
    11     9    10    1
    12    14    13    1
    13    11    10    1
    14    11    17   am
    15     3     4    2
    16    19    18    1
    17    19    24   am
    18    18    17    1
    19    18    21    1
    20    10    13    1
    21    25    24    1
    22    25    26    1
    23    25    28    1
    24    35    26   ar
    25    26    27   ar
    26    17    23    1
    27    13    15    1
    28    28    29    1
    29    21    22    1
    30    23    22    1
    31    29    31   ar
    32    29    30   ar
    33    31    33   ar
    34    30    32   ar
    35    33    34   ar
    36    32    34   ar
