@<TRIPOS>MOLECULE
3c9e_ASG_A_1.pdb
 18 18 0 0 0
SMALL
GASTEIGER

@<TRIPOS>ATOM
      1  C1        20.1190   37.1340   43.0060 C.3   217  ASG217      0.2892
      2  C2        20.2450   37.5650   44.4600 C.3   217  ASG217      0.1569
      3  C3        18.8420   37.7010   45.0230 C.3   217  ASG217      0.0616
      4  C4        18.0830   38.7570   44.2020 C.3   217  ASG217      0.1748
      5  C5        18.0080   38.2590   42.7440 C.3   217  ASG217      0.1801
      6  C6        17.2940   39.2140   41.8220 C.3   217  ASG217      0.2141
      7  C7        22.1310   36.8830   45.9850 C.2   217  ASG217      0.2420
      8  C8        22.7460   35.6960   46.6890 C.3   217  ASG217      0.0964
      9  O1        21.3640   37.0470   42.4490 O.3   217  ASG217     -0.1880
     10  N         21.0130   36.5410   45.2290 N.am  217  ASG217     -0.2018
     11  O4        18.8230   39.9930   44.2290 O.3   217  ASG217     -0.2411
     12  O5        19.3480   38.0790   42.2290 O.3   217  ASG217     -0.3244
     13  O6        16.9170   38.5580   40.6150 O.3   217  ASG217     -0.2176
     14  O7        22.5800   38.0140   46.0840 O.2   217  ASG217     -0.2733
     15  OSA       17.1710   41.0600   45.7810 O.3   217  ASG217     -0.2682
     16  OSB       17.2830   41.8190   43.5380 O.2   217  ASG217     -0.3452
     17  OSC       19.0270   42.3290   45.0480 O.2   217  ASG217     -0.3452
     18  S         18.0560   41.3300   44.6630 S.3   217  ASG217     -0.0001
@<TRIPOS>BOND
     1    13     6    1
     2     6     5    1
     3    12     5    1
     4    12     1    1
     5     9     1    1
     6     5     4    1
     7     1     2    1
     8    16    18    2
     9     4    11    1
    10     4     3    1
    11    11    18    1
    12     2     3    1
    13     2    10    1
    14    18    17    2
    15    18    15    1
    16    10     7   am
    17     7    14    2
    18     7     8    1
