@<TRIPOS>MOLECULE
3c9e_E64_A_1.pdb
 25 24 0 0 0
SMALL
GASTEIGER

@<TRIPOS>ATOM
      1  C1        19.4910   61.7640   36.8080 C.2   501  E64501      0.3680
      2  O1        20.4630   61.0280   37.0480 O.co2 501  E64501     -0.2455
      3  O2        18.9600   61.8330   35.6870 O.co2 501  E64501     -0.2455
      4  C2        18.9190   62.6090   37.9410 C.3   501  E64501      0.1564
      5  C3        18.6530   64.0430   37.3850 C.3   501  E64501      0.2403
      6  O3        19.9040   64.7060   37.1860 O.3   501  E64501     -0.2126
      7  C4        17.8330   64.8930   38.3470 C.2   501  E64501      0.2728
      8  O4        16.6480   65.1590   38.1140 O.2   501  E64501     -0.2706
      9  N1        18.4740   65.3220   39.4310 N.am  501  E64501     -0.1956
     10  C6        17.8340   66.1510   40.4530 C.3   501  E64501      0.1728
     11  C7        18.3490   65.7370   41.8330 C.3   501  E64501      0.0311
     12  C8        17.6990   64.6590   42.6900 C.3   501  E64501      0.0022
     13  C9        18.0930   64.9190   44.1350 C.3   501  E64501      0.0001
     14  C10       16.1560   64.6350   42.5600 C.3   501  E64501      0.0001
     15  C11       18.1220   67.6330   40.2390 C.2   501  E64501      0.2612
     16  O5        19.2260   68.0020   39.8330 O.2   501  E64501     -0.2715
     17  N2        17.1190   68.4750   40.5130 N.am  501  E64501     -0.2040
     18  C12       17.1770   69.9340   40.3750 C.3   501  E64501      0.1153
     19  C13       16.5770   70.4500   39.0690 C.3   501  E64501      0.0271
     20  C14       16.7970   71.9540   38.9270 C.3   501  E64501      0.0487
     21  C15       15.7690   72.7580   39.7480 C.3   501  E64501      0.2205
     22  N3        14.8190   73.5120   38.9150 N.pl3 501  E64501     -0.0865
     23  C16       13.5950   73.0930   38.5570 C.cat 501  E64501      0.5346
     24  N4        13.0400   73.5730   37.4520 N.pl3 501  E64501      0.1354
     25  N5        12.9250   72.2050   39.2990 N.pl3 501  E64501      0.1354
@<TRIPOS>BOND
     1     3     1   ar
     2     1     2   ar
     3     1     4    1
     4     6     5    1
     5     5     4    1
     6     5     7    1
     7    24    23    1
     8     8     7    2
     9     7     9   am
    10    23    22    2
    11    23    25    1
    12    22    21    1
    13    20    19    1
    14    20    21    1
    15    19    18    1
    16     9    10    1
    17    16    15    2
    18    15    10    1
    19    15    17   am
    20    18    17    1
    21    10    11    1
    22    11    12    1
    23    14    12    1
    24    12    13    1
