@<TRIPOS>MOLECULE
3c9e_BDP_A_1.pdb
 12 12 0 0 0
SMALL
GASTEIGER

@<TRIPOS>ATOM
      1  C1        23.5900   36.0920   39.2020 C.3   216  BDP216      0.3026
      2  C2        22.2920   36.7740   38.8820 C.3   216  BDP216      0.2409
      3  C3        21.8280   37.4640   40.1560 C.3   216  BDP216      0.1903
      4  C4        21.6240   36.3950   41.2590 C.3   216  BDP216      0.0771
      5  C5        22.9480   35.6710   41.5020 C.3   216  BDP216      0.2228
      6  C6        22.8560   34.5600   42.5400 C.2   216  BDP216      0.3915
      7  O2        22.5220   37.7150   37.8360 O.3   216  BDP216     -0.2149
      8  O3        20.5950   38.1380   39.8960 O.3   216  BDP216     -0.2201
      9  O5        23.4470   35.1050   40.2690 O.3   216  BDP216     -0.3173
     10  O6A       23.3810   34.8270   43.6430 O.co2 216  BDP216     -0.2430
     11  O1        24.1590   35.3620   38.0100 O.3   216  BDP216     -0.1869
     12  O6B       22.2710   33.5210   42.1620 O.co2 216  BDP216     -0.2430
@<TRIPOS>BOND
     1     7     2    1
     2    11     1    1
     3     2     1    1
     4     2     3    1
     5     1     9    1
     6     8     3    1
     7     3     4    1
     8     9     5    1
     9     4     5    1
    10     5     6    1
    11    12     6   ar
    12     6    10   ar
