@<TRIPOS>MOLECULE
3c9l_RET_A_1.pdb
 20 20 0 0 0
SMALL
GASTEIGER

@<TRIPOS>ATOM
      1  C1       -18.0740   53.6930   -1.6610 C.3   1332  RET1332     0.0183
      2  C2       -18.1840   52.1690   -1.6440 C.3   1332  RET1332     0.0044
      3  C3       -16.9700   51.4460   -1.0850 C.3   1332  RET1332     0.0047
      4  C4       -15.7060   51.9110   -1.7930 C.3   1332  RET1332     0.0217
      5  C5       -15.5630   53.4200   -1.7770 C.2   1332  RET1332    -0.0479
      6  C6       -16.6450   54.2340   -1.7240 C.2   1332  RET1332    -0.0307
      7  C7       -16.5200   55.7250   -1.7370 C.2   1332  RET1332    -0.0052
      8  C8       -15.8310   56.3870   -0.7990 C.2   1332  RET1332    -0.0046
      9  C9       -15.6320   57.8540   -0.6980 C.2   1332  RET1332    -0.0219
     10  C10      -14.7740   58.2570    0.2810 C.2   1332  RET1332    -0.0043
     11  C11      -14.4010   59.6470    0.5760 C.2   1332  RET1332    -0.0007
     12  C12      -13.6810   60.1340    1.6110 C.2   1332  RET1332    -0.0046
     13  C13      -13.0670   59.4920    2.8060 C.2   1332  RET1332    -0.0261
     14  C14      -12.1810   60.2340    3.5200 C.2   1332  RET1332    -0.0300
     15  C15      -11.4810   59.8120    4.7430 C.3   1332  RET1332     0.0304
     16  C16      -18.8550   54.1680   -2.8800 C.3   1332  RET1332     0.0043
     17  C17      -18.7200   54.2350   -0.3880 C.3   1332  RET1332     0.0043
     18  C18      -14.1510   53.9570   -1.8390 C.3   1332  RET1332     0.0260
     19  C19      -16.3650   58.7890   -1.6180 C.3   1332  RET1332     0.0310
     20  C20      -13.4430   58.1070    3.2490 C.3   1332  RET1332     0.0307
@<TRIPOS>BOND
     1    16     1    1
     2    18     5    1
     3     4     5    1
     4     4     3    1
     5     5     6    2
     6     7     6    1
     7     7     8    2
     8     6     1    1
     9     1     2    1
    10     1    17    1
    11     2     3    1
    12    19     9    1
    13     8     9    1
    14     9    10    2
    15    10    11    1
    16    11    12    2
    17    12    13    1
    18    13    20    1
    19    13    14    2
    20    14    15    1
