@<TRIPOS>MOLECULE
3c9l_C8E_A_1.pdb
 17 16 0 0 0
SMALL
GASTEIGER

@<TRIPOS>ATOM
      1  C1       -20.5530   50.3660   11.3520 C.3   1343  C8E1343     0.0000
      2  C2       -21.0980   51.5340   12.1800 C.3   1343  C8E1343     0.0000
      3  C3       -20.0900   52.6800   12.3360 C.3   1343  C8E1343     0.0000
      4  C4       -19.0300   52.4190   13.4140 C.3   1343  C8E1343     0.0000
      5  C5       -17.6260   52.7720   12.9190 C.3   1343  C8E1343     0.0001
      6  C6       -16.7070   51.5550   12.8240 C.3   1343  C8E1343     0.0026
      7  C7       -15.3110   51.9060   13.3240 C.3   1343  C8E1343     0.0321
      8  C8       -14.3710   50.7070   13.4620 C.3   1343  C8E1343     0.1423
      9  O9       -13.8810   50.7230   14.7790 O.3   1343  C8E1343    -0.3511
     10  C10      -12.4760   50.6100   14.8010 C.3   1343  C8E1343     0.1741
     11  C11      -11.9060   51.8020   15.5860 C.3   1343  C8E1343     0.1742
     12  O12      -10.9500   52.5330   14.8460 O.3   1343  C8E1343    -0.3484
     13  C13      -11.4430   53.8080   14.4850 C.3   1343  C8E1343     0.1742
     14  C14      -10.4020   54.9120   14.7660 C.3   1343  C8E1343     0.1741
     15  O15      -10.5730   55.9440   13.8200 O.3   1343  C8E1343    -0.3511
     16  C16      -11.1030   57.1320   14.3820 C.3   1343  C8E1343     0.1424
     17  C17      -10.0740   58.2120   14.7640 C.3   1343  C8E1343     0.0346
@<TRIPOS>BOND
     1     1     2    1
     2     2     3    1
     3     3     4    1
     4     6     5    1
     5     6     7    1
     6     5     4    1
     7     7     8    1
     8     8     9    1
     9    15    16    1
    10    15    14    1
    11    16    17    1
    12    13    14    1
    13    13    12    1
    14     9    10    1
    15    10    11    1
    16    12    11    1
