@<TRIPOS>MOLECULE
3c9m_RET_A_1.pdb
 20 20 0 0 0
SMALL
GASTEIGER

@<TRIPOS>ATOM
      1  C1       -18.9160   60.4290   -1.7210 C.3   1332  RET1332     0.0183
      2  C2       -19.2950   58.9850   -2.0160 C.3   1332  RET1332     0.0044
      3  C3       -18.4230   58.0130   -1.2300 C.3   1332  RET1332     0.0047
      4  C4       -16.9760   58.1440   -1.6770 C.3   1332  RET1332     0.0217
      5  C5       -16.5430   59.5980   -1.8260 C.2   1332  RET1332    -0.0479
      6  C6       -17.4110   60.6320   -1.8540 C.2   1332  RET1332    -0.0307
      7  C7       -16.8730   62.0130   -1.9900 C.2   1332  RET1332    -0.0052
      8  C8       -16.4720   62.5850   -0.8530 C.2   1332  RET1332    -0.0046
      9  C9       -15.9070   63.9360   -0.7090 C.2   1332  RET1332    -0.0219
     10  C10      -14.9190   64.1110    0.2040 C.2   1332  RET1332    -0.0043
     11  C11      -14.2790   65.4170    0.4530 C.2   1332  RET1332    -0.0007
     12  C12      -13.3820   65.7540    1.4090 C.2   1332  RET1332    -0.0046
     13  C13      -12.7470   64.9380    2.4820 C.2   1332  RET1332    -0.0261
     14  C14      -12.3200   65.5740    3.5980 C.2   1332  RET1332    -0.0300
     15  C15      -11.6540   64.9350    4.7400 C.3   1332  RET1332     0.0304
     16  C16      -19.6410   61.3030   -2.7370 C.3   1332  RET1332     0.0043
     17  C17      -19.3780   60.8130   -0.3180 C.3   1332  RET1332     0.0043
     18  C18      -15.0660   59.8690   -1.9690 C.3   1332  RET1332     0.0260
     19  C19      -16.4600   65.0640   -1.5360 C.3   1332  RET1332     0.0310
     20  C20      -12.5540   63.4570    2.3290 C.3   1332  RET1332     0.0307
@<TRIPOS>BOND
     1    16     1    1
     2     2     1    1
     3     2     3    1
     4     7     6    1
     5     7     8    2
     6    18     5    1
     7     6     5    2
     8     6     1    1
     9     5     4    1
    10     1    17    1
    11     4     3    1
    12    19     9    1
    13     8     9    1
    14     9    10    2
    15    10    11    1
    16    11    12    2
    17    12    13    1
    18    20    13    1
    19    13    14    2
    20    14    15    1
