@<TRIPOS>MOLECULE
3c9q_III_L_1.pdb
 18 17 0 0 0
SMALL
GASTEIGER

@<TRIPOS>ATOM
      1  N         14.8430    7.5860   13.1850 N.3     1  SER1       -0.1202
      2  CA        14.5790    7.5620   14.6520 C.3     1  SER1        0.2020
      3  C         13.1390    7.1500   14.8370 C.2     1  SER1        0.2619
      4  O         12.3260    7.1550   13.8780 O.2     1  SER1       -0.2717
      5  CB        14.8690    8.9180   15.2580 C.3     1  SER1        0.2103
      6  OG        14.1470    9.9750   14.6270 O.3     1  SER1       -0.2182
      7  N         12.8250    6.7650   16.0590 N.am    2  THR2       -0.1938
      8  CA        11.4930    6.3100   16.4090 C.3     2  THR2        0.2028
      9  C         11.2400    6.5430   17.8750 C.2     2  THR2        0.2642
     10  O         12.1360    6.3200   18.7100 O.2     2  THR2       -0.2714
     11  CB        11.3480    4.8170   16.0990 C.3     2  THR2        0.1808
     12  OG1       10.0740    4.3400   16.5690 O.3     2  THR2       -0.2208
     13  CG2       12.4370    3.9920   16.7450 C.3     2  THR2        0.0379
     14  N         10.0200    6.9760   18.1690 N.am    3  ALA3       -0.1977
     15  CA         9.4740    7.0390   19.5360 C.3     3  ALA3        0.1597
     16  C          9.4290    5.6340   20.1680 C.2     3  ALA3        0.2287
     17  O          8.7860    4.7100   19.6220 O.2     3  ALA3       -0.2864
     18  CB         8.0360    7.6210   19.5080 C.3     3  ALA3        0.0319
@<TRIPOS>BOND
     1     1     2    1
     2     4     3    2
     3     6     5    1
     4     2     3    1
     5     2     5    1
     6     3     7   am
     7     7     8    1
     8    11     8    1
     9    11    12    1
    10    11    13    1
    11     8     9    1
    12     9    14   am
    13     9    10    2
    14    14    15    1
    15    18    15    1
    16    15    16    1
    17    17    16    2
