@<TRIPOS>MOLECULE
3c9r_ATP_A_1.pdb
 31 33 0 0 0
SMALL
GASTEIGER

@<TRIPOS>ATOM
      1  PG        33.4700   69.2400  129.5080 P.3   307  ATP307      0.5373
      2  O1G       34.9480   69.1590  129.5480 O.3   307  ATP307     -0.1143
      3  O2G       32.5470   67.9260  129.3750 O.2   307  ATP307     -0.2221
      4  O3G       32.6420   70.4890  130.1030 O.3   307  ATP307     -0.1143
      5  PB        31.8200   70.2500  127.5790 P.3   307  ATP307      0.2277
      6  O1B       30.7730   69.2020  127.6640 O.2   307  ATP307     -0.5168
      7  O2B       31.6030   71.7030  127.7660 O.3   307  ATP307     -0.4368
      8  O3B       33.2710   69.6800  127.9720 O.3   307  ATP307     -0.2258
      9  PA        32.6890   69.1230  125.1140 P.3   307  ATP307      0.2189
     10  O1A       32.2030   67.8280  125.6410 O.3   307  ATP307     -0.4371
     11  O2A       34.1510   69.3470  125.0290 O.2   307  ATP307     -0.5170
     12  O3A       32.0540   70.3220  125.9830 O.3   307  ATP307     -0.2700
     13  O5'       32.0380   69.3960  123.6640 O.3   307  ATP307     -0.3112
     14  C5'       32.1800   70.6870  123.0620 C.3   307  ATP307      0.1813
     15  C4'       31.1920   70.8800  121.9100 C.3   307  ATP307      0.1821
     16  O4'       31.3960   69.7970  120.9840 O.3   307  ATP307     -0.3135
     17  C3'       29.7500   70.7580  122.4140 C.3   307  ATP307      0.2184
     18  O3'       28.8750   71.5740  121.6290 O.3   307  ATP307     -0.2174
     19  C2'       29.4630   69.2790  122.1600 C.3   307  ATP307      0.2570
     20  O2'       28.0560   69.0800  122.0020 O.3   307  ATP307     -0.2130
     21  C1'       30.1330   69.1370  120.7940 C.3   307  ATP307      0.3186
     22  N9        30.3490   67.7060  120.4830 N.pl3 307  ATP307     -0.1439
     23  C8        31.1860   66.8950  121.1290 C.3   307  ATP307      0.3377
     24  N7        31.1220   65.6720  120.6060 N.2   307  ATP307     -0.2095
     25  C5        30.2310   65.6990  119.6190 C.2   307  ATP307      0.2526
     26  C6        29.7340   64.7400  118.7450 C.2   307  ATP307      0.4393
     27  N6        30.1790   63.4860  118.7910 N.pl3 307  ATP307      0.2180
     28  N1        28.8030   65.1080  117.8510 N.2   307  ATP307      0.0021
     29  C2        28.3660   66.3550  117.7950 C.3   307  ATP307      0.5254
     30  N3        28.8160   67.2910  118.6120 N.2   307  ATP307     -0.0055
     31  C4        29.7430   66.9960  119.5350 C.2   307  ATP307      0.3518
@<TRIPOS>BOND
     1    29    28    1
     2    29    30    1
     3    28    26    2
     4    30    31    2
     5    26    27    1
     6    26    25    1
     7    31    25    1
     8    31    22    1
     9    25    24    2
    10    22    21    1
    11    22    23    1
    12    24    23    1
    13    21    16    1
    14    21    19    1
    15    16    15    1
    16    18    17    1
    17    15    17    1
    18    15    14    1
    19    20    19    1
    20    19    17    1
    21    14    13    1
    22    13     9    1
    23    11     9    2
    24     9    10    1
    25     9    12    1
    26    12     5    1
    27     5     6    2
    28     5     7    1
    29     5     8    1
    30     8     1    1
    31     3     1    2
    32     1     2    1
    33     1     4    1
