@<TRIPOS>MOLECULE
3c9s_ACP_A_1.pdb
 31 33 0 0 0
SMALL
GASTEIGER

@<TRIPOS>ATOM
      1  PG        33.8580   68.7130  132.0220 P.3   900  ACP900      0.1295
      2  O1G       35.3520   68.8200  132.2080 O.3   900  ACP900     -0.3567
      3  O2G       33.4460   67.3230  131.7350 O.2   900  ACP900     -0.4595
      4  O3G       33.1030   69.3030  133.1880 O.3   900  ACP900     -0.3567
      5  PB        32.3350   69.4890  129.6370 P.3   900  ACP900      0.3815
      6  O1B       31.8320   70.8050  129.1780 O.2   900  ACP900     -0.2547
      7  O2B       31.3320   68.4480  129.7870 O.3   900  ACP900     -0.1391
      8  C3B       33.1750   69.9020  130.9630 C.3   900  ACP900      0.1768
      9  PA        33.2910   68.0520  127.0960 P.3   900  ACP900      0.2209
     10  O1A       32.6200   66.7810  127.5860 O.3   900  ACP900     -0.4371
     11  O2A       34.7430   67.9080  126.7750 O.2   900  ACP900     -0.5170
     12  O3A       33.1580   69.1150  128.2520 O.3   900  ACP900     -0.2483
     13  O5'       32.2820   68.4040  125.9080 O.3   900  ACP900     -0.3111
     14  C5'       32.5910   69.5460  125.0920 C.3   900  ACP900      0.1813
     15  C4'       31.7890   70.0490  123.8290 C.3   900  ACP900      0.1821
     16  O4'       31.9170   69.1780  122.7040 O.3   900  ACP900     -0.3135
     17  C3'       30.3390   69.9940  124.2350 C.3   900  ACP900      0.2184
     18  O3'       29.6400   71.0630  123.6260 O.3   900  ACP900     -0.2174
     19  C2'       29.8900   68.5800  123.8190 C.3   900  ACP900      0.2570
     20  O2'       28.5030   68.5110  123.5750 O.3   900  ACP900     -0.2130
     21  C1'       30.7490   68.3320  122.6590 C.3   900  ACP900      0.3186
     22  N9        31.1170   66.8630  122.4680 N.pl3 900  ACP900     -0.1439
     23  C8        31.9810   66.0330  123.1110 C.3   900  ACP900      0.3377
     24  N7        32.0160   64.7750  122.6630 N.2   900  ACP900     -0.2095
     25  C5        31.1140   64.8090  121.6690 C.2   900  ACP900      0.2526
     26  C6        30.5930   63.8410  120.7240 C.2   900  ACP900      0.4393
     27  N6        31.0280   62.5520  120.7250 N.pl3 900  ACP900      0.2180
     28  N1        29.6230   64.2010  119.7760 N.2   900  ACP900      0.0021
     29  C2        29.1500   65.4840  119.7300 C.3   900  ACP900      0.5254
     30  N3        29.5800   66.4620  120.5850 N.2   900  ACP900     -0.0055
     31  C4        30.5380   66.0850  121.5130 C.2   900  ACP900      0.3518
@<TRIPOS>BOND
     1    29    28    1
     2    29    30    1
     3    28    26    2
     4    30    31    2
     5    26    27    1
     6    26    25    1
     7    31    25    1
     8    31    22    1
     9    25    24    2
    10    22    21    1
    11    22    23    1
    12    21    16    1
    13    21    19    1
    14    24    23    1
    15    16    15    1
    16    20    19    1
    17    18    17    1
    18    19    17    1
    19    15    17    1
    20    15    14    1
    21    14    13    1
    22    13     9    1
    23    11     9    2
    24     9    10    1
    25     9    12    1
    26    12     5    1
    27     6     5    2
    28     5     7    1
    29     5     8    1
    30     8     1    1
    31     3     1    2
    32     1     2    1
    33     1     4    1
