@<TRIPOS>MOLECULE
3c9t_ACP_A_1.pdb
 31 33 0 0 0
SMALL
GASTEIGER

@<TRIPOS>ATOM
      1  PG        31.1590   69.8880  125.8930 P.3   307  ACP307      0.1295
      2  O1G       31.4310   70.4200  127.2660 O.3   307  ACP307     -0.3567
      3  O2G       32.4100   69.8490  125.1090 O.2   307  ACP307     -0.4595
      4  O3G       30.4220   68.5610  125.9330 O.3   307  ACP307     -0.3567
      5  PB        29.8230   70.8660  123.4960 P.3   307  ACP307      0.3815
      6  O1B       28.5950   71.6730  123.3140 O.3   307  ACP307     -0.1391
      7  O2B       29.7290   69.6270  122.7100 O.2   307  ACP307     -0.2547
      8  C3B       29.8860   70.7770  125.1200 C.3   307  ACP307      0.1768
      9  PA        31.8750   71.9460  121.3660 P.3   307  ACP307      0.2209
     10  O1A       33.0190   70.9610  121.4860 O.3   307  ACP307     -0.4371
     11  O2A       32.2990   73.3620  121.2690 O.2   307  ACP307     -0.5170
     12  O3A       30.9010   71.8120  122.6530 O.3   307  ACP307     -0.2483
     13  O5'       31.0730   71.3000  120.1200 O.3   307  ACP307     -0.3111
     14  C5'       29.9280   72.0590  119.7390 C.3   307  ACP307      0.1813
     15  C4'       28.8890   71.8540  118.5950 C.3   307  ACP307      0.1821
     16  O4'       29.0310   70.7710  117.7030 O.3   307  ACP307     -0.3135
     17  C3'       27.5820   71.7210  119.3260 C.3   307  ACP307      0.2184
     18  O3'       26.6630   72.6750  118.8230 O.3   307  ACP307     -0.2174
     19  C2'       27.1850   70.2440  119.1550 C.3   307  ACP307      0.2570
     20  O2'       25.7910   70.1210  119.0480 O.3   307  ACP307     -0.2130
     21  C1'       27.9620   69.8550  117.9600 C.3   307  ACP307      0.3186
     22  N9        28.4430   68.4040  117.8660 N.pl3 307  ACP307     -0.1439
     23  C8        29.3820   67.6970  118.5210 C.3   307  ACP307      0.3377
     24  N7        29.5010   66.4160  118.1560 N.2   307  ACP307     -0.2095
     25  C5        28.5770   66.3060  117.2090 C.2   307  ACP307      0.2526
     26  C6        28.1040   65.2270  116.3480 C.2   307  ACP307      0.4393
     27  N6        28.6410   63.9670  116.4170 N.pl3 307  ACP307      0.2180
     28  N1        27.0780   65.4480  115.4210 N.2   307  ACP307      0.0021
     29  C2        26.5050   66.6870  115.3140 C.3   307  ACP307      0.5254
     30  N3        26.8810   67.7440  116.0770 N.2   307  ACP307     -0.0055
     31  C4        27.8970   67.5150  116.9900 C.2   307  ACP307      0.3518
@<TRIPOS>BOND
     1    29    28    1
     2    29    30    1
     3    28    26    2
     4    30    31    2
     5    26    27    1
     6    26    25    1
     7    31    25    1
     8    31    22    1
     9    25    24    2
    10    16    21    1
    11    16    15    1
    12    22    21    1
    13    22    23    1
    14    21    19    1
    15    24    23    1
    16    15    17    1
    17    15    14    1
    18    18    17    1
    19    20    19    1
    20    19    17    1
    21    14    13    1
    22    13     9    1
    23    11     9    2
    24     9    10    1
    25     9    12    1
    26    12     5    1
    27     7     5    2
    28     6     5    1
    29     5     8    1
    30     3     1    2
    31     8     1    1
    32     1     4    1
    33     1     2    1
