@<TRIPOS>MOLECULE
3c9t_TPS_A_1.pdb
 22 23 0 0 0
SMALL
GASTEIGER

@<TRIPOS>ATOM
      1  CM2       26.4820   41.6330  114.6920 C.3   308  TPS308      0.1291
      2  N3        20.1840   42.4050  116.1880 N.pl3 308  TPS308     -0.2970
      3  C2        20.9860   43.1310  116.9870 C.3   308  TPS308      0.1543
      4  S1        20.2740   44.2610  117.9300 S.3   308  TPS308     -0.0951
      5  C5        18.7230   43.8310  117.2950 C.2   308  TPS308      0.0164
      6  C4        18.8550   42.8110  116.3670 C.2   308  TPS308      0.0279
      7  CM4       17.7370   42.1570  115.5900 C.3   308  TPS308      0.0473
      8  C6        17.5560   44.5780  117.8060 C.3   308  TPS308      0.0662
      9  C7        18.0140   45.9820  117.8940 C.3   308  TPS308      0.1590
     10  O7        17.1860   46.9580  118.4480 O.3   308  TPS308     -0.2699
     11  N1A       24.4810   40.4730  115.4110 N.2   308  TPS308     -0.1861
     12  C2A       25.0190   41.5860  114.7770 C.1   308  TPS308      0.0663
     13  N3A       24.3050   42.5420  114.2760 N.2   308  TPS308     -0.3368
     14  C4A       22.9270   42.5110  114.3510 C.2   308  TPS308      0.2292
     15  N4A       22.2410   43.5210  113.8200 N.pl3 308  TPS308     -0.0925
     16  C5A       22.2700   41.3740  115.0270 C.2   308  TPS308      0.0654
     17  C6A       23.1180   40.3930  115.5140 C.2   308  TPS308      0.1115
     18  C7A       20.7350   41.3060  115.2410 C.3   308  TPS308      0.1237
     19  P1        17.4570   47.4380  119.8990 P.3   308  TPS308      0.5326
     20  O1        17.3710   46.2400  120.7580 O.3   308  TPS308     -0.1145
     21  O2        16.3960   48.4410  120.1230 O.3   308  TPS308     -0.1145
     22  O3        18.8290   48.0090  119.9340 O.2   308  TPS308     -0.2224
@<TRIPOS>BOND
     1    15    14    1
     2    13    14    2
     3    13    12    2
     4    14    16    1
     5     1    12    1
     6    12    11    2
     7    16    18    1
     8    16    17    2
     9    18     2    1
    10    11    17    1
    11     7     6    1
    12     2     6    1
    13     2     3    1
    14     6     5    2
    15     3     4    1
    16     5     8    1
    17     5     4    1
    18     8     9    1
    19     9    10    1
    20    10    19    1
    21    19    22    2
    22    19    21    1
    23    19    20    1
