@<TRIPOS>MOLECULE
3c9u_TPP_A_1.pdb
 26 27 0 0 0
SMALL
GASTEIGER

@<TRIPOS>ATOM
      1  N1'       26.2370   38.2500  114.0920 N.2   308  TPP308     -0.1861
      2  C2'       26.6480   39.3390  113.4280 C.1   308  TPP308      0.0663
      3  CM2       28.1360   39.5330  113.1320 C.3   308  TPP308      0.1291
      4  N3'       25.7630   40.2570  113.0140 N.2   308  TPP308     -0.3368
      5  C4'       24.4540   40.1020  113.2550 C.2   308  TPP308      0.2292
      6  N4'       23.5990   41.0340  112.8480 N.pl3 308  TPP308     -0.0925
      7  C5'       24.0040   38.9780  113.9400 C.2   308  TPP308      0.0654
      8  C6'       24.9570   38.0540  114.3500 C.2   308  TPP308      0.1115
      9  C7'       22.5420   38.6700  114.2750 C.3   308  TPP308      0.1237
     10  N3        21.9740   39.7010  115.1560 N.pl3 308  TPP308     -0.2970
     11  C2        22.7320   40.4310  115.9760 C.3   308  TPP308      0.1543
     12  S1        21.6940   41.5310  116.8490 S.3   308  TPP308     -0.0951
     13  C5        20.2620   40.9460  116.0490 C.2   308  TPP308      0.0164
     14  C4        20.6590   39.9280  115.1880 C.2   308  TPP308      0.0279
     15  CM4       19.6580   39.1050  114.3740 C.3   308  TPP308      0.0473
     16  C6        18.9780   41.4710  116.1280 C.3   308  TPP308      0.0661
     17  C7        18.5460   42.5760  116.8520 C.3   308  TPP308      0.1544
     18  O7        19.6230   43.2740  117.4820 O.3   308  TPP308     -0.3134
     19  PA        19.3020   44.0150  118.8730 P.3   308  TPP308      0.2230
     20  O1A       20.5220   44.6870  119.3760 O.2   308  TPP308     -0.5169
     21  O2A       18.6150   43.0510  119.7590 O.3   308  TPP308     -0.4370
     22  O3A       18.2830   45.1710  118.4030 O.3   308  TPP308     -0.2261
     23  PB        16.8560   45.4550  119.0900 P.3   308  TPP308      0.5373
     24  O1B       16.1760   46.5920  118.4320 O.2   308  TPP308     -0.2221
     25  O2B       15.9890   44.1040  118.9870 O.3   308  TPP308     -0.1143
     26  O3B       17.1450   45.7170  120.6510 O.3   308  TPP308     -0.1143
@<TRIPOS>BOND
     1     6     5    1
     2     4     5    2
     3     4     2    2
     4     3     2    1
     5     5     7    1
     6     2     1    2
     7     7     9    1
     8     7     8    2
     9     1     8    1
    10     9    10    1
    11    15    14    1
    12    10    14    1
    13    10    11    1
    14    14    13    2
    15    11    12    1
    16    13    16    1
    17    13    12    1
    18    16    17    1
    19    17    18    1
    20    18    19    1
    21    22    19    1
    22    22    23    1
    23    24    23    2
    24    19    20    2
    25    19    21    1
    26    25    23    1
    27    23    26    1
