@<TRIPOS>MOLECULE
3c9u_ADP_A_1.pdb
 27 29 0 0 0
SMALL
GASTEIGER

@<TRIPOS>ATOM
      1  PB        31.0780   67.3120  126.1800 P.3   307  ADP307      0.5373
      2  O1B       31.1440   66.0160  126.8900 O.3   307  ADP307     -0.1143
      3  O2B       29.7430   67.5050  125.3050 O.2   307  ADP307     -0.2221
      4  O3B       31.1340   68.5710  127.1790 O.3   307  ADP307     -0.1143
      5  PA        32.8390   66.4620  124.1070 P.3   307  ADP307      0.2231
      6  O1A       34.2910   66.6930  123.9360 O.2   307  ADP307     -0.5169
      7  O2A       32.3880   65.1030  124.4780 O.3   307  ADP307     -0.4370
      8  O3A       32.3190   67.5450  125.1800 O.3   307  ADP307     -0.2261
      9  O5'       32.0590   66.8830  122.7640 O.3   307  ADP307     -0.3111
     10  C5'       32.3070   68.1470  122.1460 C.3   307  ADP307      0.1813
     11  C4'       31.2810   68.4080  121.0410 C.3   307  ADP307      0.1821
     12  O4'       31.4130   67.3680  120.0550 O.3   307  ADP307     -0.3135
     13  C3'       29.8770   68.2880  121.6380 C.3   307  ADP307      0.2184
     14  O3'       28.9850   69.2000  120.9920 O.3   307  ADP307     -0.2174
     15  C2'       29.5160   66.8370  121.3250 C.3   307  ADP307      0.2570
     16  O2'       28.0960   66.7190  121.1990 O.3   307  ADP307     -0.2130
     17  C1'       30.1530   66.6880  119.9420 C.3   307  ADP307      0.3186
     18  N9        30.4040   65.2620  119.6300 N.pl3 307  ADP307     -0.1439
     19  C8        31.2370   64.4620  120.2940 C.3   307  ADP307      0.3377
     20  N7        31.2370   63.2530  119.7380 N.2   307  ADP307     -0.2095
     21  C5        30.3930   63.2790  118.7100 C.2   307  ADP307      0.2526
     22  C6        29.9740   62.3360  117.7800 C.2   307  ADP307      0.4393
     23  N6        30.4450   61.0930  117.8180 N.pl3 307  ADP307      0.2180
     24  N1        29.0790   62.6990  116.8510 N.2   307  ADP307      0.0021
     25  C2        28.5960   63.9290  116.8130 C.3   307  ADP307      0.5254
     26  N3        28.9710   64.8510  117.6820 N.2   307  ADP307     -0.0055
     27  C4        29.8620   64.5600  118.6390 C.2   307  ADP307      0.3518
@<TRIPOS>BOND
     1    25    24    1
     2    25    26    1
     3    24    22    2
     4    26    27    2
     5    22    23    1
     6    22    21    1
     7    27    21    1
     8    27    18    1
     9    21    20    2
    10    18    17    1
    11    18    19    1
    12    20    19    1
    13    17    12    1
    14    17    15    1
    15    12    11    1
    16    14    13    1
    17    11    13    1
    18    11    10    1
    19    16    15    1
    20    15    13    1
    21    10     9    1
    22     9     5    1
    23     6     5    2
    24     5     7    1
    25     5     8    1
    26     8     1    1
    27     3     1    2
    28     1     2    1
    29     1     4    1
