@<TRIPOS>MOLECULE
3c9w_HMY_A_1.pdb
 27 29 0 0 0
SMALL
GASTEIGER

@<TRIPOS>ATOM
      1  O23       29.4970    8.1920    8.7340 O.2     1  HMY1       -0.2448
      2  C7        29.3720    7.2340    7.9780 C.2     1  HMY1        0.3440
      3  O8        28.0660    6.8580    7.4340 O.3     1  HMY1       -0.4491
      4  C9        26.9760    7.7460    7.6610 C.3     1  HMY1        0.1693
      5  C25       27.0930    8.8950    6.6650 C.3     1  HMY1        0.0473
      6  C10       25.6620    7.0020    7.4340 C.3     1  HMY1        0.0441
      7  C11       25.3650    5.8860    8.4360 C.3     1  HMY1        0.0115
      8  C12       24.2540    4.9650    7.9320 C.3     1  HMY1        0.0674
      9  C2        30.5720    6.3950    7.6170 C.ar    1  HMY1        0.1130
     10  C1        31.7820    6.6370    8.2690 C.ar    1  HMY1        0.2047
     11  O20       31.8580    7.6190    9.2000 O.3     1  HMY1       -0.2863
     12  C6        32.9180    5.8860    7.9870 C.ar    1  HMY1        0.0791
     13  C5        32.8380    4.8820    7.0290 C.ar    1  HMY1        0.1417
     14  O21       33.9390    4.1230    6.7350 O.3     1  HMY1       -0.4713
     15  C22       33.8410    2.6940    6.8340 C.3     1  HMY1        0.2525
     16  C4        31.6310    4.6350    6.3720 C.ar    1  HMY1        0.0355
     17  C3        30.4860    5.3730    6.6650 C.ar    1  HMY1        0.0193
     18  C18       29.2270    5.0900    5.9230 C.3     1  HMY1        0.1649
     19  O31       29.3380    4.6990    4.5510 O.3     1  HMY1       -0.3489
     20  C17       28.7490    3.7270    5.4110 C.3     1  HMY1        0.1495
     21  C16       27.2510    3.4460    5.2510 C.3     1  HMY1        0.0684
     22  C15       26.7110    2.7700    6.5080 C.3     1  HMY1        0.1919
     23  O29       27.1340    1.3890    6.4840 O.3     1  HMY1       -0.2199
     24  C14       25.1850    2.8420    6.6840 C.3     1  HMY1        0.2387
     25  O28       24.5630    2.0100    5.6950 O.3     1  HMY1       -0.2124
     26  C13       24.5880    4.2320    6.6490 C.2     1  HMY1        0.1833
     27  O24       24.3150    4.7610    5.5840 O.2     1  HMY1       -0.2933
@<TRIPOS>BOND
     1    19    20    1
     2    19    18    1
     3    21    20    1
     4    21    22    1
     5    20    18    1
     6    27    26    2
     7    25    24    1
     8    18    17    1
     9    16    17   ar
    10    16    13   ar
    11    23    22    1
    12    22    24    1
    13    26    24    1
    14    26     8    1
    15     5     4    1
    16    17     9   ar
    17    14    15    1
    18    14    13    1
    19    13    12   ar
    20     6     4    1
    21     6     7    1
    22     3     4    1
    23     3     2    1
    24     9     2    1
    25     9    10   ar
    26     8     7    1
    27     2     1    2
    28    12    10   ar
    29    10    11    1
