@<TRIPOS>MOLECULE
3c9z_NAG_A_1.pdb
 14 14 0 0 0
SMALL
GASTEIGER

@<TRIPOS>ATOM
      1  C1        45.6280   23.4480   11.1430 C.3   264  NAG264      0.1665
      2  C2        45.4180   24.5130   12.2250 C.3   264  NAG264      0.1576
      3  C3        43.9510   24.5060   12.7050 C.3   264  NAG264      0.2069
      4  C4        42.8990   24.5170   11.5660 C.3   264  NAG264      0.2134
      5  C5        43.3370   23.5020   10.5260 C.3   264  NAG264      0.1809
      6  C6        42.4240   23.4600    9.2970 C.3   264  NAG264      0.2141
      7  C7        46.4010   23.4350   14.1780 C.2   264  NAG264      0.2420
      8  C8        47.4660   23.5340   15.2400 C.3   264  NAG264      0.0964
      9  N2        46.3830   24.4430   13.3150 N.am  264  NAG264     -0.2019
     10  O3        43.8010   25.5980   13.6100 O.3   264  NAG264     -0.2184
     11  O4        41.6100   24.0790   12.0400 O.3   264  NAG264     -0.2176
     12  O5        44.6810   23.7260   10.1340 O.3   264  NAG264     -0.3489
     13  O6        42.4650   24.7340    8.7280 O.3   264  NAG264     -0.2176
     14  O7        45.6600   22.4410   14.0720 O.2   264  NAG264     -0.2733
@<TRIPOS>BOND
     1    13     6    1
     2     6     5    1
     3    12     5    1
     4    12     1    1
     5     5     4    1
     6     1     2    1
     7     4    11    1
     8     4     3    1
     9     2     3    1
    10     2     9    1
    11     3    10    1
    12     9     7   am
    13    14     7    2
    14     7     8    1
