@<TRIPOS>MOLECULE
3ca0_NAG_A_1.pdb
 14 14 0 0 0
SMALL
GASTEIGER

@<TRIPOS>ATOM
      1  C1        13.2320   51.8980   -5.7300 C.3   259  NAG259      0.1665
      2  C2        12.6640   53.2680   -5.3580 C.3   259  NAG259      0.1576
      3  C3        11.7420   53.8510   -6.4270 C.3   259  NAG259      0.2069
      4  C4        12.3600   53.6780   -7.8030 C.3   259  NAG259      0.2134
      5  C5        12.9030   52.2520   -7.9970 C.3   259  NAG259      0.1809
      6  C6        13.5600   52.0290   -9.3480 C.3   259  NAG259      0.2141
      7  C7        12.4710   53.5660   -2.9370 C.2   259  NAG259      0.2420
      8  C8        11.7300   53.2340   -1.6730 C.3   259  NAG259      0.0964
      9  N2        11.9460   53.1990   -4.1080 N.am  259  NAG259     -0.2019
     10  O3        11.6470   55.2210   -6.0960 O.3   259  NAG259     -0.2184
     11  O4        11.3870   53.8490   -8.8200 O.3   259  NAG259     -0.2176
     12  O5        13.8270   51.8660   -6.9860 O.3   259  NAG259     -0.3489
     13  O6        13.7620   50.6440   -9.5310 O.3   259  NAG259     -0.2176
     14  O7        13.5670   54.1530   -2.8620 O.2   259  NAG259     -0.2733
@<TRIPOS>BOND
     1    13     6    1
     2     6     5    1
     3    11     4    1
     4     5     4    1
     5     5    12    1
     6     4     3    1
     7    12     1    1
     8     3    10    1
     9     3     2    1
    10     1     2    1
    11     2     9    1
    12     9     7   am
    13     7    14    2
    14     7     8    1
