@<TRIPOS>MOLECULE
3ca1_GLA_A_1.pdb
 12 12 0 0 0
SMALL
GASTEIGER

@<TRIPOS>ATOM
      1  C1        25.0820    7.8230    1.1920 C.3   267  GLA267      0.3024
      2  C2        25.8920    6.9890    2.1970 C.3   267  GLA267      0.2434
      3  C3        27.3690    7.3870    2.1330 C.3   267  GLA267      0.2199
      4  C4        27.8890    7.2950    0.6910 C.3   267  GLA267      0.2144
      5  C5        26.9490    8.0980   -0.2310 C.3   267  GLA267      0.1836
      6  C6        27.2940    8.0970   -1.7090 C.3   267  GLA267      0.2142
      7  O1        25.0800    9.2330    1.4680 O.3   267  GLA267     -0.1869
      8  O2        25.4130    7.0670    3.5400 O.3   267  GLA267     -0.2148
      9  O3        28.1230    6.6120    3.0750 O.3   267  GLA267     -0.2174
     10  O4        27.9850    5.9250    0.3050 O.3   267  GLA267     -0.2176
     11  O5        25.6280    7.5880   -0.1100 O.3   267  GLA267     -0.3236
     12  O6        27.3940    6.7650   -2.2310 O.3   267  GLA267     -0.2176
@<TRIPOS>BOND
     1    12     6    1
     2     6     5    1
     3     5    11    1
     4     5     4    1
     5    11     1    1
     6    10     4    1
     7     4     3    1
     8     1     7    1
     9     1     2    1
    10     3     2    1
    11     3     9    1
    12     2     8    1
