@<TRIPOS>MOLECULE
3ca1_NAG_A_1.pdb
 14 14 0 0 0
SMALL
GASTEIGER

@<TRIPOS>ATOM
      1  C1        45.5210   23.1960   11.0370 C.3   264  NAG264      0.1665
      2  C2        45.2870   24.1980   12.1630 C.3   264  NAG264      0.1576
      3  C3        43.8280   24.0770   12.5840 C.3   264  NAG264      0.2069
      4  C4        42.7980   24.1140   11.4230 C.3   264  NAG264      0.2134
      5  C5        43.2430   23.1830   10.3070 C.3   264  NAG264      0.1809
      6  C6        42.4280   23.2750    9.0390 C.3   264  NAG264      0.2141
      7  C7        46.3100   23.1290   14.0950 C.2   264  NAG264      0.2420
      8  C8        47.3160   23.1730   15.2110 C.3   264  NAG264      0.0964
      9  N2        46.2540   24.1620   13.2790 N.am  264  NAG264     -0.2019
     10  O3        43.5290   25.0690   13.5520 O.3   264  NAG264     -0.2184
     11  O4        41.5160   23.6530   11.8600 O.3   264  NAG264     -0.2176
     12  O5        44.6010   23.4550    9.9750 O.3   264  NAG264     -0.3489
     13  O6        42.4290   24.6170    8.6770 O.3   264  NAG264     -0.2176
     14  O7        45.5930   22.1220   13.9430 O.2   264  NAG264     -0.2733
@<TRIPOS>BOND
     1    13     6    1
     2     6     5    1
     3    12     5    1
     4    12     1    1
     5     5     4    1
     6     1     2    1
     7     4    11    1
     8     4     3    1
     9     2     3    1
    10     2     9    1
    11     3    10    1
    12     9     7   am
    13    14     7    2
    14     7     8    1
