@<TRIPOS>MOLECULE
3ca2_AMS_A_1.pdb
 12 12 0 0 0
SMALL
GASTEIGER

@<TRIPOS>ATOM
      1  C1        -5.5350    2.3320   15.3110 C.ar  265  AMS265      0.0000
      2  C2        -4.6780    1.8320   14.2270 C.ar  265  AMS265      0.0000
      3  C3        -4.3020    2.7250   13.1280 C.ar  265  AMS265      0.0000
      4  C4        -4.7540    4.1230   13.1520 C.ar  265  AMS265      0.0000
      5  C5        -5.5930    4.5970   14.2440 C.ar  265  AMS265      0.0000
      6  C6        -5.9750    3.7000   15.3170 C.ar  265  AMS265      0.0000
      7 HG         -3.1310    2.0280   11.9840 Hg    265  AMS265      0.0000
      8  S1        -6.0060    1.1830   16.6180 S.O2  265  AMS265      0.0000
      9  O1        -7.4080    1.0430   16.9460 O.2   265  AMS265      0.0000
     10  O2        -5.4830    1.4060   17.9470 O.2   265  AMS265      0.0000
     11  N1        -5.6670   -0.3680   16.4980 N.3   265  AMS265      0.0000
     12  N2        -4.3790    4.9830   12.1820 N.pl3 265  AMS265      0.0000
@<TRIPOS>BOND
     1     7     3    1
     2    12     4    1
     3     3     4   ar
     4     3     2   ar
     5     4     5   ar
     6     2     1   ar
     7     5     6   ar
     8     1     6   ar
     9     1     8    1
    10    11     8    1
    11     8     9    2
    12     8    10    2
