@<TRIPOS>MOLECULE
3ca3_NGA_A_1.pdb
 15 15 0 0 0
SMALL
GASTEIGER

@<TRIPOS>ATOM
      1  C1        25.2540    8.2130    1.1880 C.3   269  NGA269      0.2917
      2  C2        26.1880    7.4820    2.1550 C.3   269  NGA269      0.1871
      3  C3        27.6300    7.9970    2.0800 C.3   269  NGA269      0.2095
      4  C4        28.1260    7.8860    0.6350 C.3   269  NGA269      0.2136
      5  C5        27.1900    8.7330   -0.2250 C.3   269  NGA269      0.1835
      6  C6        27.7160    8.8620   -1.6550 C.3   269  NGA269      0.2142
      7  C7        24.9300    6.9010    4.1670 C.2   269  NGA269      0.2421
      8  C8        24.6320    7.3260    5.5870 C.3   269  NGA269      0.0964
      9  N2        25.7600    7.7110    3.5300 N.am  269  NGA269     -0.1991
     10  O1        23.9750    7.5620    1.1910 O.3   269  NGA269     -0.1879
     11  O3        28.4410    7.3250    3.0570 O.3   269  NGA269     -0.2183
     12  O4        28.1170    6.5330    0.1770 O.3   269  NGA269     -0.2176
     13  O5        25.8530    8.2400   -0.1230 O.3   269  NGA269     -0.3242
     14  O6        27.6700    7.6530   -2.4230 O.3   269  NGA269     -0.2176
     15  O7        24.4440    5.9150    3.6120 O.2   269  NGA269     -0.2733
@<TRIPOS>BOND
     1    14     6    1
     2     6     5    1
     3     5    13    1
     4     5     4    1
     5    13     1    1
     6    12     4    1
     7     4     3    1
     8     1    10    1
     9     1     2    1
    10     3     2    1
    11     3    11    1
    12     2     9    1
    13     9     7   am
    14    15     7    2
    15     7     8    1
