@<TRIPOS>MOLECULE
3ca3_A2G_A_1.pdb
 15 15 0 0 0
SMALL
GASTEIGER

@<TRIPOS>ATOM
      1  O         25.7180    7.6260   -0.0090 O.3   267  A2G267     -0.3242
      2  C1        25.1560    7.7790    1.2990 C.3   267  A2G267      0.2917
      3  O1        25.0800    9.1850    1.6220 O.3   267  A2G267     -0.1879
      4  C2        26.0380    6.9690    2.2690 C.3   267  A2G267      0.1871
      5  N2        25.5780    7.0710    3.6650 N.am  267  A2G267     -0.1991
      6  C3        27.4960    7.4440    2.1840 C.3   267  A2G267      0.2095
      7  O3        28.3070    6.6810    3.0820 O.3   267  A2G267     -0.2183
      8  C4        27.9800    7.3770    0.7220 C.3   267  A2G267      0.2136
      9  O4        28.0320    6.0100    0.3330 O.3   267  A2G267     -0.2176
     10  C5        27.0180    8.1660   -0.1730 C.3   267  A2G267      0.1835
     11  C6        27.3520    8.2840   -1.6520 C.3   267  A2G267      0.2142
     12  O6        27.4470    7.0020   -2.2870 O.3   267  A2G267     -0.2176
     13  C7        24.8130    6.1060    4.2050 C.2   267  A2G267      0.2421
     14  O7        24.4110    5.1470    3.5600 O.2   267  A2G267     -0.2733
     15  C8        24.3830    6.2850    5.6340 C.3   267  A2G267      0.0964
@<TRIPOS>BOND
     1    12    11    1
     2    11    10    1
     3    10     1    1
     4    10     8    1
     5     1     2    1
     6     9     8    1
     7     8     6    1
     8     2     3    1
     9     2     4    1
    10     6     4    1
    11     6     7    1
    12     4     5    1
    13    14    13    2
    14     5    13   am
    15    13    15    1
