@<TRIPOS>MOLECULE
3ca3_NAG_A_1.pdb
 14 14 0 0 0
SMALL
GASTEIGER

@<TRIPOS>ATOM
      1  C1        45.5720   23.2250   10.9720 C.3   264  NAG264      0.1665
      2  C2        45.3310   24.2160   12.1110 C.3   264  NAG264      0.1576
      3  C3        43.8560   24.0900   12.5210 C.3   264  NAG264      0.2069
      4  C4        42.8370   24.1330   11.3560 C.3   264  NAG264      0.2134
      5  C5        43.3060   23.1880   10.2760 C.3   264  NAG264      0.1809
      6  C6        42.4670   23.2720    9.0190 C.3   264  NAG264      0.2141
      7  C7        46.3490   23.1610   14.0600 C.2   264  NAG264      0.2420
      8  C8        47.3380   23.2040   15.1710 C.3   264  NAG264      0.0964
      9  N2        46.2770   24.2180   13.2430 N.am  264  NAG264     -0.2019
     10  O3        43.6050   25.1150   13.4540 O.3   264  NAG264     -0.2184
     11  O4        41.5360   23.6570   11.7510 O.3   264  NAG264     -0.2176
     12  O5        44.6560   23.5210    9.9350 O.3   264  NAG264     -0.3489
     13  O6        42.4790   24.6240    8.6270 O.3   264  NAG264     -0.2176
     14  O7        45.6240   22.1720   13.9460 O.2   264  NAG264     -0.2733
@<TRIPOS>BOND
     1    13     6    1
     2     6     5    1
     3    12     5    1
     4    12     1    1
     5     5     4    1
     6     1     2    1
     7     4    11    1
     8     4     3    1
     9     2     3    1
    10     2     9    1
    11     3    10    1
    12     9     7   am
    13    14     7    2
    14     7     8    1
