@<TRIPOS>MOLECULE
3ca4_NAG_A_1.pdb
 14 14 0 0 0
SMALL
GASTEIGER

@<TRIPOS>ATOM
      1  C1        45.5020   23.1340   10.9640 C.3   264  NAG264      0.1665
      2  C2        45.2530   24.1810   12.0680 C.3   264  NAG264      0.1576
      3  C3        43.8030   24.0300   12.5280 C.3   264  NAG264      0.2069
      4  C4        42.7840   24.0590   11.3560 C.3   264  NAG264      0.2134
      5  C5        43.2510   23.1090   10.2420 C.3   264  NAG264      0.1809
      6  C6        42.4110   23.0980    8.9660 C.3   264  NAG264      0.2141
      7  C7        46.2850   23.1050   14.0170 C.2   264  NAG264      0.2420
      8  C8        47.2450   23.2570   15.1680 C.3   264  NAG264      0.0964
      9  N2        46.2150   24.1240   13.1700 N.am  264  NAG264     -0.2019
     10  O3        43.4840   25.0320   13.4940 O.3   264  NAG264     -0.2184
     11  O4        41.5320   23.5560   11.7870 O.3   264  NAG264     -0.2176
     12  O5        44.5950   23.4130    9.9150 O.3   264  NAG264     -0.3489
     13  O6        42.4390   24.4290    8.5280 O.3   264  NAG264     -0.2176
     14  O7        45.6000   22.0690   13.9140 O.2   264  NAG264     -0.2733
@<TRIPOS>BOND
     1    13     6    1
     2     6     5    1
     3    12     5    1
     4    12     1    1
     5     5     4    1
     6     1     2    1
     7     4    11    1
     8     4     3    1
     9     2     3    1
    10     2     9    1
    11     3    10    1
    12     9     7   am
    13    14     7    2
    14     7     8    1
