@<TRIPOS>MOLECULE
3ca4_LAT_A_1.pdb
 22 23 0 0 0
SMALL
GASTEIGER

@<TRIPOS>ATOM
      1  C1        25.3200    8.0240    1.1350 C.3   267  LAT267      0.2695
      2  C2        26.1920    7.3040    2.2000 C.3   267  LAT267      0.2406
      3  C3        27.6310    7.7980    2.1000 C.3   267  LAT267      0.2198
      4  C4        28.1690    7.7510    0.6480 C.3   267  LAT267      0.2144
      5  C5        27.2170    8.5830   -0.2120 C.3   267  LAT267      0.1835
      6  C6        27.7090    8.8000   -1.6530 C.3   267  LAT267      0.2142
      7  O1        24.1150    7.3020    1.0730 O.3   267  LAT267     -0.3257
      8  O2        25.7120    7.5600    3.4900 O.3   267  LAT267     -0.2149
      9  O3        28.4330    7.0770    3.0320 O.3   267  LAT267     -0.2174
     10  O4        28.2070    6.4040    0.1920 O.3   267  LAT267     -0.2176
     11  O5        25.9270    7.9960   -0.1600 O.3   267  LAT267     -0.3256
     12  O6        27.7750    7.5550   -2.3800 O.3   267  LAT267     -0.2176
     13  C1'       20.2120    7.5560   -0.1170 C.3   267  LAT267      0.1777
     14  C2'       21.1910    8.2950   -1.0180 C.3   267  LAT267      0.2140
     15  C3'       22.5970    7.7590   -0.7360 C.3   267  LAT267      0.2141
     16  C4'       22.9270    8.0030    0.7460 C.3   267  LAT267      0.1802
     17  C5'       21.8810    7.2910    1.5780 C.3   267  LAT267      0.1778
     18  C6'       22.0390    7.6030    3.0640 C.3   267  LAT267      0.2140
     19  O2'       20.9120    8.1210   -2.4070 O.3   267  LAT267     -0.2176
     20  O3'       23.5480    8.3670   -1.5860 O.3   267  LAT267     -0.2176
     21  O5'       20.6110    7.8400    1.2290 O.3   267  LAT267     -0.3482
     22  O6'       22.2490    8.9990    3.1960 O.3   267  LAT267     -0.2176
@<TRIPOS>BOND
     1    19    14    1
     2    12     6    1
     3     6     5    1
     4    20    15    1
     5    14    15    1
     6    14    13    1
     7    15    16    1
     8     5    11    1
     9     5     4    1
    10    11     1    1
    11    13    21    1
    12    10     4    1
    13     4     3    1
    14    16     7    1
    15    16    17    1
    16     7     1    1
    17     1     2    1
    18    21    17    1
    19    17    18    1
    20     3     2    1
    21     3     9    1
    22     2     8    1
    23    18    22    1
