@<TRIPOS>MOLECULE
3ca5_AMG_A_1.pdb
 13 13 0 0 0
SMALL
GASTEIGER

@<TRIPOS>ATOM
      1  C1        25.1880    8.0120    1.2050 C.3   267  AMG267      0.2695
      2  C2        25.9760    7.2070    2.2470 C.3   267  AMG267      0.2406
      3  C3        27.4490    7.6400    2.1500 C.3   267  AMG267      0.2198
      4  C4        27.9980    7.5340    0.7110 C.3   267  AMG267      0.2144
      5  C5        27.1410    8.4140   -0.2070 C.3   267  AMG267      0.1835
      6  C6        27.5800    8.4910   -1.6640 C.3   267  AMG267      0.2142
      7  C7        24.2330   10.1210    0.8280 C.3   267  AMG267      0.1769
      8  O1        25.2050    9.3730    1.5920 O.3   267  AMG267     -0.3259
      9  O2        25.5290    7.4480    3.5800 O.3   267  AMG267     -0.2149
     10  O3        28.2390    6.8630    3.0440 O.3   267  AMG267     -0.2174
     11  O4        27.9870    6.1410    0.3030 O.3   267  AMG267     -0.2176
     12  O5        25.7910    7.9140   -0.1130 O.3   267  AMG267     -0.3256
     13  O6        27.4940    7.2560   -2.3680 O.3   267  AMG267     -0.2176
@<TRIPOS>BOND
     1    13     6    1
     2     6     5    1
     3     5    12    1
     4     5     4    1
     5    12     1    1
     6    11     4    1
     7     4     3    1
     8     7     8    1
     9     1     8    1
    10     1     2    1
    11     3     2    1
    12     3    10    1
    13     2     9    1
