@<TRIPOS>MOLECULE
3ca5_NAG_A_1.pdb
 14 14 0 0 0
SMALL
GASTEIGER

@<TRIPOS>ATOM
      1  C1        45.5850   23.4620   11.1410 C.3   264  NAG264      0.1665
      2  C2        45.3470   24.4760   12.2560 C.3   264  NAG264      0.1576
      3  C3        43.8740   24.3260   12.6660 C.3   264  NAG264      0.2069
      4  C4        42.8390   24.3770   11.5090 C.3   264  NAG264      0.2134
      5  C5        43.2960   23.4430   10.4090 C.3   264  NAG264      0.1809
      6  C6        42.4500   23.5120    9.1550 C.3   264  NAG264      0.2141
      7  C7        46.4180   23.3490   14.1710 C.2   264  NAG264      0.2420
      8  C8        47.5070   23.3330   15.2030 C.3   264  NAG264      0.0964
      9  N2        46.3310   24.4230   13.3630 N.am  264  NAG264     -0.2019
     10  O3        43.5960   25.3770   13.5570 O.3   264  NAG264     -0.2184
     11  O4        41.5140   23.9310   11.8780 O.3   264  NAG264     -0.2176
     12  O5        44.6620   23.7550   10.0940 O.3   264  NAG264     -0.3489
     13  O6        42.5040   24.8580    8.7580 O.3   264  NAG264     -0.2176
     14  O7        45.6490   22.3850   14.0910 O.2   264  NAG264     -0.2733
@<TRIPOS>BOND
     1    13     6    1
     2     6     5    1
     3    12     5    1
     4    12     1    1
     5     5     4    1
     6     1     2    1
     7     4    11    1
     8     4     3    1
     9     2     3    1
    10     2     9    1
    11     3    10    1
    12     9     7   am
    13    14     7    2
    14     7     8    1
