@<TRIPOS>MOLECULE
3ca6_NAG_A_1.pdb
 14 14 0 0 0
SMALL
GASTEIGER

@<TRIPOS>ATOM
      1  C1        46.0540   23.2930   10.9410 C.3   264  NAG264      0.1665
      2  C2        45.8010   24.3450   12.0480 C.3   264  NAG264      0.1576
      3  C3        44.3390   24.2050   12.5260 C.3   264  NAG264      0.2069
      4  C4        43.3170   24.2420   11.3660 C.3   264  NAG264      0.2134
      5  C5        43.8030   23.2980   10.2810 C.3   264  NAG264      0.1809
      6  C6        42.9400   23.3010    9.0230 C.3   264  NAG264      0.2141
      7  C7        46.8220   23.2410   13.9780 C.2   264  NAG264      0.2420
      8  C8        47.8630   23.2670   15.0770 C.3   264  NAG264      0.0964
      9  N2        46.7950   24.2630   13.1370 N.am  264  NAG264     -0.2019
     10  O3        44.0710   25.1580   13.5050 O.3   264  NAG264     -0.2184
     11  O4        42.0280   23.7340   11.8000 O.3   264  NAG264     -0.2176
     12  O5        45.1370   23.6090    9.8900 O.3   264  NAG264     -0.3489
     13  O6        42.8740   24.6350    8.5710 O.3   264  NAG264     -0.2176
     14  O7        46.1150   22.2260   13.8200 O.2   264  NAG264     -0.2733
@<TRIPOS>BOND
     1    13     6    1
     2     6     5    1
     3    12     5    1
     4    12     1    1
     5     5     4    1
     6     1     2    1
     7     4    11    1
     8     4     3    1
     9     2     3    1
    10     2     9    1
    11     3    10    1
    12     9     7   am
    13    14     7    2
    14     7     8    1
