@<TRIPOS>MOLECULE
3ca6_A2G_A_1.pdb
 14 14 0 0 0
SMALL
GASTEIGER

@<TRIPOS>ATOM
      1  O         26.0080    7.6930   -0.0410 O.3   267  A2G267     -0.3489
      2  C1        25.4340    7.6740    1.2840 C.3   267  A2G267      0.1665
      3  C2        26.4050    7.0080    2.2600 C.3   267  A2G267      0.1576
      4  N2        25.8750    7.0920    3.6280 N.am  267  A2G267     -0.2019
      5  C3        27.8120    7.5840    2.1410 C.3   267  A2G267      0.2069
      6  O3        28.6430    6.9040    3.0940 O.3   267  A2G267     -0.2184
      7  C4        28.2890    7.3840    0.6890 C.3   267  A2G267      0.2134
      8  O4        28.3230    6.0140    0.3080 O.3   267  A2G267     -0.2176
      9  C5        27.3330    8.2440   -0.1670 C.3   267  A2G267      0.1809
     10  C6        27.7670    8.3470   -1.6670 C.3   267  A2G267      0.2141
     11  O6        27.7360    7.0730   -2.3000 O.3   267  A2G267     -0.2176
     12  C7        25.1010    6.1330    4.1710 C.2   267  A2G267      0.2420
     13  O7        24.7480    5.1480    3.5550 O.2   267  A2G267     -0.2733
     14  C8        24.5700    6.4530    5.5550 C.3   267  A2G267      0.0964
@<TRIPOS>BOND
     1    11    10    1
     2    10     9    1
     3     9     1    1
     4     9     7    1
     5     1     2    1
     6     8     7    1
     7     7     5    1
     8     2     3    1
     9     5     3    1
    10     5     6    1
    11     3     4    1
    12    13    12    2
    13     4    12   am
    14    12    14    1
