@<TRIPOS>MOLECULE
3ca9_DUD_A_1.pdb
 24 25 0 0 0
SMALL
GASTEIGER

@<TRIPOS>ATOM
      1  N1        13.5740  -23.6610   19.3630 N.am  777  DUD777     -0.1790
      2  C2        13.6620  -22.3370   19.0590 C.1   777  DUD777      0.2844
      3  N3        14.0950  -21.4480   19.9940 N.2   777  DUD777     -0.2452
      4  C4        14.4510  -21.8580   21.2540 C.1   777  DUD777      0.2182
      5  C5        14.3620  -23.2290   21.5940 C.2   777  DUD777      0.1242
      6  C6        13.9280  -24.0990   20.6430 C.2   777  DUD777      0.0928
      7  O2        13.3640  -21.9340   17.9640 O.2   777  DUD777     -0.1918
      8  O4        14.8430  -21.0520   22.0790 O.2   777  DUD777     -0.2085
      9  C1'       13.1170  -24.6520   18.3490 C.3   777  DUD777      0.2090
     10  C2'       14.2910  -25.6140   18.0210 C.3   777  DUD777      0.0874
     11  C3'       13.7050  -27.0250   18.0880 C.3   777  DUD777      0.1857
     12  C4'       12.2120  -26.8250   18.4010 C.3   777  DUD777      0.1773
     13  O4'       12.0390  -25.4640   18.8750 O.3   777  DUD777     -0.3339
     14  O3'       13.8920  -27.6970   16.8570 O.3   777  DUD777     -0.2203
     15  C5'       11.8080  -27.7800   19.4830 C.3   777  DUD777      0.1812
     16  O5'       10.3970  -27.7750   19.6520 O.3   777  DUD777     -0.3111
     17  PA        10.1010  -29.1050   20.4840 P.3   777  DUD777      0.2231
     18  O1A       11.3270  -29.6180   21.1820 O.3   777  DUD777     -0.4370
     19  O2A        9.6100  -30.1940   19.4050 O.2   777  DUD777     -0.5169
     20  O3A        8.9140  -28.8390   21.5400 O.3   777  DUD777     -0.2261
     21  PB         9.4990  -29.1950   23.0180 P.3   777  DUD777      0.5373
     22  O1B       10.6620  -28.3110   23.3150 O.3   777  DUD777     -0.1143
     23  O2B        8.3590  -28.9490   24.1190 O.3   777  DUD777     -0.1143
     24  O3B        9.9930  -30.7320   23.0920 O.2   777  DUD777     -0.2221
@<TRIPOS>BOND
     1    14    11    1
     2     7     2    2
     3    10    11    1
     4    10     9    1
     5    11    12    1
     6     9    13    1
     7     9     1    1
     8    12    13    1
     9    12    15    1
    10     2     1   am
    11     2     3    2
    12     1     6    1
    13    19    17    2
    14    15    16    1
    15    16    17    1
    16     3     4    2
    17    17    18    1
    18    17    20    1
    19     6     5    2
    20     4     5    1
    21     4     8    2
    22    20    21    1
    23    21    24    2
    24    21    22    1
    25    21    23    1
