@<TRIPOS>MOLECULE
3cag_ARG_A_1.pdb
 12 11 0 0 0
SMALL
GASTEIGER

@<TRIPOS>ATOM
      1  N        -12.2010   -3.5810  -12.8100 N.3   300  ARG300     -0.1208
      2  CA       -11.8580   -2.5130  -13.8290 C.3   300  ARG300      0.1944
      3  C        -12.2620   -1.1430  -13.3250 C.2   300  ARG300      0.3819
      4  O        -13.1530   -1.0590  -12.4540 O.co2 300  ARG300     -0.2441
      5  CB       -12.5700   -2.7610  -15.1500 C.3   300  ARG300      0.0343
      6  CG       -14.0850   -2.6440  -15.1000 C.3   300  ARG300      0.0490
      7  CD       -14.6090   -2.9800  -16.4660 C.3   300  ARG300      0.2205
      8  NE       -16.0500   -2.8810  -16.6540 N.pl3 300  ARG300     -0.0865
      9  CZ       -16.7160   -1.7770  -17.0280 C.cat 300  ARG300      0.5346
     10  NH1      -18.0160   -1.8390  -17.2470 N.pl3 300  ARG300      0.1354
     11  NH2      -16.1050   -0.6190  -17.1700 N.pl3 300  ARG300      0.1354
     12  OXT      -11.7060   -0.1340  -13.7660 O.co2 300  ARG300     -0.2441
@<TRIPOS>BOND
     1    10     9    1
     2    11     9    1
     3     9     8    2
     4     8     7    1
     5     7     6    1
     6     5     6    1
     7     5     2    1
     8     2     3    1
     9     2     1    1
    10    12     3   ar
    11     3     4   ar
