@<TRIPOS>MOLECULE
3cah_NAG_A_1.pdb
 14 14 0 0 0
SMALL
GASTEIGER

@<TRIPOS>ATOM
      1  C1        45.6630   23.2120   11.1280 C.3   264  NAG264      0.1665
      2  C2        45.4360   24.2040   12.2610 C.3   264  NAG264      0.1576
      3  C3        43.9720   24.0610   12.7050 C.3   264  NAG264      0.2069
      4  C4        42.9620   24.1430   11.5380 C.3   264  NAG264      0.2134
      5  C5        43.4020   23.2020   10.4310 C.3   264  NAG264      0.1809
      6  C6        42.5030   23.2330    9.2230 C.3   264  NAG264      0.2141
      7  C7        46.4810   23.1670   14.1690 C.2   264  NAG264      0.2420
      8  C8        47.5030   23.2940   15.2400 C.3   264  NAG264      0.0964
      9  N2        46.4110   24.1720   13.3250 N.am  264  NAG264     -0.2019
     10  O3        43.6690   25.0010   13.6960 O.3   264  NAG264     -0.2184
     11  O4        41.6440   23.6870   11.9270 O.3   264  NAG264     -0.2176
     12  O5        44.7560   23.5020   10.0970 O.3   264  NAG264     -0.3489
     13  O6        42.5520   24.5590    8.7560 O.3   264  NAG264     -0.2176
     14  O7        45.7830   22.1630   14.0770 O.2   264  NAG264     -0.2733
@<TRIPOS>BOND
     1    13     6    1
     2     6     5    1
     3    12     5    1
     4    12     1    1
     5     5     4    1
     6     1     2    1
     7     4    11    1
     8     4     3    1
     9     2     3    1
    10     2     9    1
    11     3    10    1
    12     9     7   am
    13    14     7    2
    14     7     8    1
