@<TRIPOS>MOLECULE
3cah_FCA_A_1.pdb
 10 10 0 0 0
SMALL
GASTEIGER

@<TRIPOS>ATOM
      1  C1        25.9140    9.2680    0.9920 C.3   267  FCA267      0.1776
      2  C2        26.3830    8.2860    2.1420 C.3   267  FCA267      0.2141
      3  C3        27.7760    7.7300    2.0320 C.3   267  FCA267      0.2172
      4  C4        28.0620    7.1650    0.6200 C.3   267  FCA267      0.2116
      5  C5        27.4330    7.9120   -0.4840 C.3   267  FCA267      0.1483
      6  C6        27.6570    7.4000   -1.8850 C.3   267  FCA267      0.0349
      7  O2        26.2910    9.0610    3.4210 O.3   267  FCA267     -0.2176
      8  O3        28.3440    7.0000    3.2320 O.3   267  FCA267     -0.2175
      9  O4        27.9260    5.8560    0.4990 O.3   267  FCA267     -0.2177
     10  O5        26.2020    8.6150   -0.3380 O.3   267  FCA267     -0.3508
@<TRIPOS>BOND
     1     6     5    1
     2     5    10    1
     3     5     4    1
     4    10     1    1
     5     9     4    1
     6     4     3    1
     7     1     2    1
     8     3     2    1
     9     3     8    1
    10     2     7    1
