@<TRIPOS>MOLECULE
3caj_EZL_A_1.pdb
 16 17 0 0 0
SMALL
GASTEIGER

@<TRIPOS>ATOM
      1  N1        -5.3570   -0.5580   16.0760 N.3   265  EZL265      0.0423
      2  C2        -3.5510    3.4390   14.9780 C.2   265  EZL265      0.1219
      3  C3        -4.6910    4.1610   14.5200 C.2   265  EZL265      0.0619
      4  C4        -4.5660    5.3430   13.7710 C.2   265  EZL265      0.0454
      5  C5        -3.2650    5.8280   13.4740 C.2   265  EZL265      0.1353
      6  C8        -1.8090    7.4990   12.4390 C.3   265  EZL265      0.2055
      7  O1        -7.3040    0.9430   16.4270 O.2   265  EZL265     -0.1473
      8  O2        -5.4030    0.9430   18.0340 O.2   265  EZL265     -0.1473
      9  S1        -5.8870    0.8190   16.6830 S.O2  265  EZL265      0.1273
     10  C1        -5.1120    2.1620   15.7970 C.2   265  EZL265      0.2852
     11  N2        -3.8230    2.2930   15.7120 N.2   265  EZL265     -0.3796
     12  S2        -6.1160    3.3460   15.0350 S.3   265  EZL265     -0.0329
     13  C6        -2.1220    5.1150   13.9220 C.2   265  EZL265      0.0182
     14  C7        -2.2360    3.9300   14.6720 C.3   265  EZL265      0.0887
     15  O3        -3.1410    7.0010   12.7400 O.2   265  EZL265     -0.4758
     16  C9        -1.6430    8.8020   13.1270 C.3   265  EZL265      0.0512
@<TRIPOS>BOND
     1     6    15    1
     2     6    16    1
     3    15     5    1
     4     5     4    1
     5     5    13    2
     6     4     3    2
     7    13    14    1
     8     3     2    1
     9     3    12    1
    10    14     2    1
    11     2    11    2
    12    12    10    1
    13    11    10    2
    14    10     9    1
    15     1     9    1
    16     7     9    2
    17     9     8    2
