@<TRIPOS>MOLECULE
3cak_BTB_A_1.pdb
 14 13 0 0 0
SMALL
GASTEIGER

@<TRIPOS>ATOM
      1  C1         1.9600  -15.7490    9.8230 C.3   906  BTB906      0.2017
      2  O1         0.8250  -14.8820    9.8700 O.3   906  BTB906     -0.2188
      3  C2         1.5980  -17.1240   10.3820 C.3   906  BTB906      0.1378
      4  C3         0.9470  -17.9420    9.2830 C.3   906  BTB906      0.2017
      5  O3         1.9260  -18.1260    8.2660 O.3   906  BTB906     -0.2188
      6  C4         2.8770  -17.8560   10.8330 C.3   906  BTB906      0.2017
      7  O4         2.5710  -19.1450   11.4180 O.3   906  BTB906     -0.2188
      8  N          0.6240  -16.7430   11.4550 N.3   906  BTB906     -0.2641
      9  C5         1.2570  -16.4230   12.7710 C.3   906  BTB906      0.1082
     10  C6         0.4600  -16.8580   13.9960 C.3   906  BTB906      0.1993
     11  O6         0.8230  -18.2130   14.2330 O.3   906  BTB906     -0.2189
     12  C7        -0.8200  -17.1250   11.3510 C.3   906  BTB906      0.1082
     13  C8        -1.4010  -18.3730   12.0280 C.3   906  BTB906      0.1993
     14  O8        -1.0740  -19.5010   11.2010 O.3   906  BTB906     -0.2189
@<TRIPOS>BOND
     1     5     4    1
     2     4     3    1
     3     1     2    1
     4     1     3    1
     5     3     6    1
     6     3     8    1
     7     6     7    1
     8    14    13    1
     9    12     8    1
    10    12    13    1
    11     8     9    1
    12     9    10    1
    13    10    11    1
