@<TRIPOS>MOLECULE
3cao_HEM_A_1.pdb
 43 50 0 0 0
SMALL
GASTEIGER

@<TRIPOS>ATOM
      1  CHA        2.4970   79.0100   38.0890 C.2   104  HEM104      0.0000
      2  CHB        6.1970   79.0960   41.2290 C.2   104  HEM104      0.0000
      3  CHC        6.1630   74.2550   41.4540 C.2   104  HEM104      0.0000
      4  CHD        2.5840   74.1730   38.1790 C.2   104  HEM104      0.0000
      5  C1A        3.4860   79.4380   38.9550 C.2   104  HEM104      0.0000
      6  C2A        3.9110   80.8230   39.0980 C.2   104  HEM104      0.0000
      7  C3A        4.8750   80.8510   40.0210 C.2   104  HEM104      0.0000
      8  C4A        5.1930   79.4880   40.3700 C.2   104  HEM104      0.0000
      9  CMA        5.6870   82.0710   40.5480 C.3   104  HEM104      0.0000
     10  CAA        3.1210   82.0200   38.5050 C.3   104  HEM104      0.0000
     11  CBA        2.0470   82.5390   39.4680 C.3   104  HEM104      0.0000
     12  CGA        1.2810   83.7420   38.9720 C.2   104  HEM104      0.0000
     13  O1A        1.0480   83.8320   37.7460 O.co2 104  HEM104      0.0000
     14  O2A        0.9750   84.5850   39.8570 O.co2 104  HEM104      0.0000
     15  C1B        6.4710   77.7970   41.6030 C.ar  104  HEM104      0.0000
     16  C2B        7.6040   77.3690   42.3840 C.ar  104  HEM104      0.0000
     17  C3B        7.6030   76.0370   42.4440 C.ar  104  HEM104      0.0000
     18  C4B        6.4960   75.5850   41.6170 C.ar  104  HEM104      0.0000
     19  CMB        8.5370   78.3700   43.1110 C.3   104  HEM104      0.0000
     20  CAB        8.5670   75.1610   43.2930 C.3   104  HEM104      0.0000
     21  CBB        8.4640   75.4010   44.6600 C.3   104  HEM104      0.0000
     22  C1C        5.1570   73.8250   40.6010 C.2   104  HEM104      0.0000
     23  C2C        4.8780   72.4310   40.3280 C.2   104  HEM104      0.0000
     24  C3C        3.8650   72.4020   39.4430 C.2   104  HEM104      0.0000
     25  C4C        3.5570   73.7540   39.0680 C.2   104  HEM104      0.0000
     26  CMC        5.5880   71.2610   41.0320 C.3   104  HEM104      0.0000
     27  CAC        3.2450   71.1530   38.7550 C.3   104  HEM104      0.0000
     28  CBC        2.5410   70.3580   39.6530 C.3   104  HEM104      0.0000
     29  C1D        2.2850   75.4690   37.7880 C.ar  104  HEM104      0.0000
     30  C2D        1.3260   75.8890   36.8000 C.ar  104  HEM104      0.0000
     31  C3D        1.2510   77.2230   36.8160 C.ar  104  HEM104      0.0000
     32  C4D        2.2060   77.6840   37.8180 C.ar  104  HEM104      0.0000
     33  CMD        0.4830   74.8820   35.9860 C.3   104  HEM104      0.0000
     34  CAD        0.5710   78.1710   35.7990 C.3   104  HEM104      0.0000
     35  CBD        1.4680   78.4920   34.5840 C.3   104  HEM104      0.0000
     36  CGD        0.9280   79.5460   33.6530 C.2   104  HEM104      0.0000
     37  O1D        0.8040   80.7210   34.1000 O.co2 104  HEM104      0.0000
     38  O2D        0.8360   79.1970   32.4500 O.co2 104  HEM104      0.0000
     39  NA         4.3460   78.6350   39.6740 N.2   104  HEM104      0.0000
     40  NB         5.8480   76.6740   41.0690 N.ar  104  HEM104      0.0000
     41  NC         4.3670   74.6180   39.8030 N.2   104  HEM104      0.0000
     42  ND         2.8510   76.6010   38.3600 N.ar  104  HEM104      0.0000
     43 FE          4.3210   76.6190   39.7370 Fe    104  HEM104      0.0000
@<TRIPOS>BOND
     1    38    36   ar
     2    36    37   ar
     3    36    35    1
     4    35    34    1
     5    34    31    1
     6    33    30    1
     7    30    31   ar
     8    30    29   ar
     9    31    32   ar
    10    13    12   ar
    11    29     4    2
    12    29    42   ar
    13    32     1    2
    14    32    42   ar
    15     1     5    1
    16     4    25    1
    17    42    43    1
    18    10     6    1
    19    10    11    1
    20    27    24    1
    21    27    28    1
    22     5     6    1
    23     5    39    2
    24    12    11    1
    25    12    14   ar
    26    25    24    1
    27    25    41    2
    28     6     7    2
    29    24    23    2
    30    39    43    1
    31    39     8    1
    32    43    41    1
    33    43    40    1
    34    41    22    1
    35     7     8    1
    36     7     9    1
    37    23    22    1
    38    23    26    1
    39     8     2    2
    40    22     3    2
    41    40    15   ar
    42    40    18   ar
    43     2    15    1
    44     3    18    1
    45    15    16   ar
    46    18    17   ar
    47    16    17   ar
    48    16    19    1
    49    17    20    1
    50    20    21    1
