@<TRIPOS>MOLECULE
3caq_NDP_A_1.pdb
 48 52 0 0 0
SMALL
GASTEIGER

@<TRIPOS>ATOM
      1  PA         6.6130  -31.3640   30.0760 P.3   327  NDP327      0.2189
      2  O1A        6.1510  -32.1510   31.2490 O.3   327  NDP327     -0.4371
      3  O2A        5.9380  -31.5530   28.7770 O.2   327  NDP327     -0.5170
      4  O5B        8.2400  -31.5960   29.8610 O.3   327  NDP327     -0.3112
      5  C5B        9.2560  -31.0430   30.7380 C.3   327  NDP327      0.1813
      6  C4B       10.6730  -31.5430   30.3330 C.3   327  NDP327      0.1820
      7  O4B       10.5930  -32.8780   29.7890 O.3   327  NDP327     -0.3136
      8  C3B       11.3660  -30.7520   29.2310 C.3   327  NDP327      0.2157
      9  O3B       12.2830  -29.8380   29.8040 O.3   327  NDP327     -0.2175
     10  C2B       12.0300  -31.7950   28.2960 C.3   327  NDP327      0.2314
     11  O2B       13.4220  -31.6310   28.0780 O.3   327  NDP327     -0.2630
     12  C1B       11.7390  -33.1010   28.9980 C.3   327  NDP327      0.3158
     13  N9A       11.4500  -34.2920   28.1900 N.pl3 327  NDP327     -0.1439
     14  C8A       10.6660  -34.3900   27.0570 C.3   327  NDP327      0.3377
     15  N7A       10.6050  -35.6190   26.5770 N.2   327  NDP327     -0.2095
     16  C5A       11.3800  -36.3520   27.4260 C.2   327  NDP327      0.2526
     17  C6A       11.7390  -37.7560   27.4770 C.2   327  NDP327      0.4393
     18  N6A       11.2870  -38.6220   26.5720 N.pl3 327  NDP327      0.2180
     19  N1A       12.5770  -38.1800   28.5050 N.2   327  NDP327      0.0021
     20  C2A       13.0500  -37.2880   29.4500 C.3   327  NDP327      0.5254
     21  N3A       12.7630  -35.9410   29.4900 N.2   327  NDP327     -0.0055
     22  C4A       11.9190  -35.5450   28.4370 C.2   327  NDP327      0.3518
     23  O3         6.5180  -29.8180   30.4740 O.3   327  NDP327     -0.2703
     24  PN         5.8760  -28.5420   29.8020 P.3   327  NDP327      0.2189
     25  O1N        6.9560  -27.7060   29.2630 O.2   327  NDP327     -0.5170
     26  O2N        5.0050  -27.9260   30.8570 O.3   327  NDP327     -0.4371
     27  O5D        5.0530  -29.1050   28.5670 O.3   327  NDP327     -0.3112
     28  C5D        3.6570  -29.1130   28.3980 C.3   327  NDP327      0.1813
     29  C4D        3.2180  -28.0220   27.4750 C.3   327  NDP327      0.1799
     30  O4D        1.9920  -27.5210   28.0460 O.3   327  NDP327     -0.3327
     31  C3D        4.1070  -26.7510   27.3840 C.3   327  NDP327      0.2158
     32  O3D        5.2460  -26.8350   26.5470 O.3   327  NDP327     -0.2175
     33  C2D        3.0830  -25.6830   27.0270 C.3   327  NDP327      0.2309
     34  O2D        2.9220  -25.6720   25.6170 O.3   327  NDP327     -0.2158
     35  C1D        1.8480  -26.1410   27.8160 C.3   327  NDP327      0.2263
     36  N1N        1.6840  -25.5210   29.1750 N.pl3 327  NDP327     -0.2787
     37  C2N        0.5480  -24.7500   29.3510 C.3   327  NDP327      0.1244
     38  C3N        0.2940  -24.1330   30.5960 C.2   327  NDP327      0.0544
     39  C7N       -0.9290  -23.3040   30.8170 C.2   327  NDP327      0.2818
     40  O7N       -1.1210  -22.7800   31.9140 O.2   327  NDP327     -0.2670
     41  N7N       -1.7820  -23.1690   29.7950 N.am  327  NDP327     -0.0839
     42  C4N        1.2400  -24.3170   31.6820 C.2   327  NDP327      0.0033
     43  C5N        2.4020  -25.1070   31.4970 C.2   327  NDP327      0.0157
     44  C6N        2.6290  -25.7090   30.2580 C.2   327  NDP327      0.0633
     45  P2B       14.0550  -31.5350   26.5640 P.3   327  NDP327      0.5328
     46  O1X       13.3980  -30.3640   25.8650 O.2   327  NDP327     -0.2224
     47  O2X       15.5370  -31.3880   26.8410 O.3   327  NDP327     -0.1145
     48  O3X       13.7260  -32.8430   25.8970 O.3   327  NDP327     -0.1145
@<TRIPOS>BOND
     1    34    33    1
     2    46    45    2
     3    48    45    1
     4    32    31    1
     5    45    47    1
     6    45    11    1
     7    18    17    1
     8    15    14    1
     9    15    16    2
    10    33    31    1
    11    33    35    1
    12    14    13    1
    13    31    29    1
    14    16    17    1
    15    16    22    1
    16    29    30    1
    17    29    28    1
    18    17    19    2
    19    35    30    1
    20    35    36    1
    21    11    10    1
    22    13    22    1
    23    13    12    1
    24    10    12    1
    25    10     8    1
    26    28    27    1
    27    22    21    2
    28    19    20    1
    29    27    24    1
    30     3     1    2
    31    12     7    1
    32    36    37    1
    33    36    44    1
    34     8     9    1
    35     8     6    1
    36    25    24    2
    37    37    38    1
    38    20    21    1
    39     7     6    1
    40    41    39   am
    41    24    23    1
    42    24    26    1
    43     4     1    1
    44     4     5    1
    45     1    23    1
    46     1     2    1
    47    44    43    2
    48     6     5    1
    49    38    39    1
    50    38    42    2
    51    39    40    2
    52    43    42    1
