@<TRIPOS>MOLECULE
3car_HEM_A_1.pdb
 43 50 0 0 0
SMALL
GASTEIGER

@<TRIPOS>ATOM
      1  CHA       82.5740   51.3850   15.8160 C.2   104  HEM104      0.0000
      2  CHB       82.5880   47.8470   12.4750 C.2   104  HEM104      0.0000
      3  CHC       87.4240   47.7730   12.3570 C.2   104  HEM104      0.0000
      4  CHD       87.4210   51.2200   15.7490 C.2   104  HEM104      0.0000
      5  C1A       82.2000   50.4450   14.8570 C.ar  104  HEM104      0.0000
      6  C2A       80.8080   50.0030   14.6730 C.ar  104  HEM104      0.0000
      7  C3A       80.8110   49.0750   13.7320 C.ar  104  HEM104      0.0000
      8  C4A       82.1900   48.7470   13.4380 C.ar  104  HEM104      0.0000
      9  CMA       79.6090   48.3530   13.0720 C.3   104  HEM104      0.0000
     10  CAA       79.5940   50.7060   15.3600 C.3   104  HEM104      0.0000
     11  CBA       79.1200   51.9240   14.5510 C.3   104  HEM104      0.0000
     12  CGA       77.8500   52.6260   14.9820 C.2   104  HEM104      0.0000
     13  O1A       77.6390   52.7650   16.2220 O.co2 104  HEM104      0.0000
     14  O2A       77.0740   53.0670   14.0840 O.co2 104  HEM104      0.0000
     15  C1B       83.8750   47.4900   12.1570 C.2   104  HEM104      0.0000
     16  C2B       84.2780   46.4510   11.2510 C.2   104  HEM104      0.0000
     17  C3B       85.6180   46.4050   11.2220 C.2   104  HEM104      0.0000
     18  C4B       86.0960   47.4970   12.0610 C.2   104  HEM104      0.0000
     19  CMB       83.2680   45.5280   10.4980 C.3   104  HEM104      0.0000
     20  CAB       86.5060   45.4890   10.3440 C.3   104  HEM104      0.0000
     21  CBB       86.2350   45.5960    8.9770 C.3   104  HEM104      0.0000
     22  C1C       87.8620   48.8200   13.1730 C.ar  104  HEM104      0.0000
     23  C2C       89.2440   49.0570   13.5470 C.ar  104  HEM104      0.0000
     24  C3C       89.2480   50.0660   14.4280 C.ar  104  HEM104      0.0000
     25  C4C       87.8680   50.3990   14.7320 C.ar  104  HEM104      0.0000
     26  CMC       90.4300   48.3250   12.8600 C.3   104  HEM104      0.0000
     27  CAC       90.4760   50.7180   15.1060 C.3   104  HEM104      0.0000
     28  CBC       91.3610   51.2680   14.1740 C.3   104  HEM104      0.0000
     29  C1D       86.1180   51.6230   16.0010 C.2   104  HEM104      0.0000
     30  C2D       85.7120   52.6000   16.9910 C.2   104  HEM104      0.0000
     31  C3D       84.3960   52.6540   16.9770 C.2   104  HEM104      0.0000
     32  C4D       83.9190   51.6990   16.0080 C.2   104  HEM104      0.0000
     33  CMD       86.7080   53.4700   17.8100 C.3   104  HEM104      0.0000
     34  CAD       83.4380   53.4220   17.9410 C.3   104  HEM104      0.0000
     35  CBD       83.1390   52.5150   19.1590 C.3   104  HEM104      0.0000
     36  CGD       81.8940   52.8500   19.9200 C.2   104  HEM104      0.0000
     37  O1D       80.7700   52.8940   19.3280 O.co2 104  HEM104      0.0000
     38  O2D       82.1110   53.1230   21.1280 O.co2 104  HEM104      0.0000
     39  NA        83.0100   49.7030   14.0400 N.ar  104  HEM104      0.0000
     40  NB        85.0210   48.1260   12.6610 N.2   104  HEM104      0.0000
     41  NC        87.0300   49.5460   14.0350 N.ar  104  HEM104      0.0000
     42  ND        85.0010   51.0700   15.4370 N.2   104  HEM104      0.0000
     43 FE         85.0190   49.5960   14.0410 Fe    104  HEM104      0.0000
@<TRIPOS>BOND
     1    21    20    1
     2    20    17    1
     3    19    16    1
     4    17    16    2
     5    17    18    1
     6    16    15    1
     7    18     3    2
     8    18    40    1
     9    15     2    1
    10    15    40    2
    11     3    22    1
    12     2     8    2
    13    40    43    1
    14    26    23    1
    15     9     7    1
    16    22    23   ar
    17    22    41   ar
    18     8     7   ar
    19     8    39   ar
    20    23    24   ar
    21     7     6   ar
    22    41    43    1
    23    41    25   ar
    24    39    43    1
    25    39     5   ar
    26    43    42    1
    27    14    12   ar
    28    28    27    1
    29    24    25   ar
    30    24    27    1
    31    11    12    1
    32    11    10    1
    33     6     5   ar
    34     6    10    1
    35    25     4    1
    36     5     1    2
    37    12    13   ar
    38    42    29    1
    39    42    32    2
    40     4    29    2
    41     1    32    1
    42    29    30    1
    43    32    31    1
    44    31    30    2
    45    31    34    1
    46    30    33    1
    47    34    35    1
    48    35    36    1
    49    37    36   ar
    50    36    38   ar
