@<TRIPOS>MOLECULE
3cas_ASD_A_1.pdb
 21 24 0 0 0
SMALL
GASTEIGER

@<TRIPOS>ATOM
      1  C1        -7.7320   22.9450   33.2800 C.3   332  ASD332      0.0118
      2  C10       -6.1990   23.2760   33.0860 C.3   332  ASD332      0.0157
      3  C11       -5.7040   20.8960   32.1770 C.3   332  ASD332      0.0007
      4  C12       -4.8810   19.5760   32.3900 C.3   332  ASD332      0.0069
      5  C13       -3.3530   19.8020   32.4890 C.3   332  ASD332      0.0515
      6  C14       -3.1490   20.8190   33.6430 C.3   332  ASD332      0.0070
      7  C15       -1.5990   20.9020   33.7810 C.3   332  ASD332      0.0082
      8  C16       -1.3400   19.3770   33.9380 C.3   332  ASD332      0.0645
      9  C17       -2.4910   18.7050   33.1100 C.2   332  ASD332      0.1498
     10  C18       -2.8180   20.1930   31.0870 C.3   332  ASD332      0.0073
     11  C19       -6.0060   23.9960   31.7440 C.3   332  ASD332      0.0041
     12  C2        -8.7130   24.1190   33.5850 C.3   332  ASD332      0.0694
     13  C3        -8.1540   25.1030   34.6530 C.2   332  ASD332      0.1725
     14  C4        -6.7710   25.2030   34.9270 C.2   332  ASD332      0.0289
     15  C5        -5.7680   24.3130   34.1700 C.2   332  ASD332     -0.0420
     16  C6        -4.2760   24.5030   34.4780 C.3   332  ASD332      0.0221
     17  C7        -3.5450   23.1200   34.6800 C.3   332  ASD332      0.0044
     18  C8        -3.8490   22.2000   33.4410 C.3   332  ASD332      0.0010
     19  C9        -5.4140   21.9520   33.3030 C.3   332  ASD332      0.0035
     20  O1        -8.9370   25.8250   35.2610 O.2   332  ASD332     -0.2914
     21  O2        -2.6670   17.4900   32.9680 O.2   332  ASD332     -0.2961
@<TRIPOS>BOND
     1    10     5    1
     2    11     2    1
     3     3     4    1
     4     3    19    1
     5     4     5    1
     6     5     9    1
     7     5     6    1
     8    21     9    2
     9     2     1    1
    10     2    19    1
    11     2    15    1
    12     9     8    1
    13     1    12    1
    14    19    18    1
    15    18     6    1
    16    18    17    1
    17    12    13    1
    18     6     7    1
    19     7     8    1
    20    15    16    1
    21    15    14    2
    22    16    17    1
    23    13    14    1
    24    13    20    2
