@<TRIPOS>MOLECULE
3cas_NAP_A_1.pdb
 48 52 0 0 0
SMALL
GASTEIGER

@<TRIPOS>ATOM
      1  PA        -6.3910   31.3470   30.2000 P.3   327  NAP327      0.2189
      2  O1A       -5.8730   32.1330   31.3520 O.3   327  NAP327     -0.4371
      3  O2A       -5.7720   31.5350   28.8720 O.2   327  NAP327     -0.5170
      4  O5B       -8.0240   31.5890   30.0620 O.3   327  NAP327     -0.3112
      5  C5B       -9.0390   30.9850   30.9220 C.3   327  NAP327      0.1813
      6  C4B      -10.4650   31.4350   30.4920 C.3   327  NAP327      0.1820
      7  O4B      -10.4690   32.8410   30.1130 O.3   327  NAP327     -0.3136
      8  C3B      -11.0400   30.7370   29.2620 C.3   327  NAP327      0.2157
      9  O3B      -11.8160   29.6330   29.6640 O.3   327  NAP327     -0.2175
     10  C2B      -11.8340   31.8160   28.4850 C.3   327  NAP327      0.2314
     11  O2B      -13.2300   31.6000   28.2800 O.3   327  NAP327     -0.2630
     12  C1B      -11.5830   33.0870   29.2640 C.3   327  NAP327      0.3158
     13  N9A      -11.2680   34.2820   28.4740 N.pl3 327  NAP327     -0.1439
     14  C8A      -10.5110   34.3540   27.3140 C.3   327  NAP327      0.3377
     15  N7A      -10.4030   35.5810   26.8350 N.2   327  NAP327     -0.2095
     16  C5A      -11.1160   36.3380   27.7140 C.2   327  NAP327      0.2526
     17  C6A      -11.3980   37.7420   27.7790 C.2   327  NAP327      0.4393
     18  N6A      -10.9240   38.5820   26.8520 N.pl3 327  NAP327      0.2180
     19  N1A      -12.1820   38.2040   28.8340 N.2   327  NAP327      0.0021
     20  C2A      -12.6710   37.3420   29.7880 C.3   327  NAP327      0.5254
     21  N3A      -12.4540   35.9850   29.8150 N.2   327  NAP327     -0.0055
     22  C4A      -11.6660   35.5520   28.7420 C.2   327  NAP327      0.3518
     23  O3        -6.2710   29.8060   30.6290 O.3   327  NAP327     -0.2703
     24  PN        -5.5840   28.4780   30.0960 P.3   327  NAP327      0.2189
     25  O1N       -6.4610   27.9300   29.0550 O.2   327  NAP327     -0.5170
     26  O2N       -5.3710   27.6140   31.3120 O.3   327  NAP327     -0.4371
     27  O5D       -4.1610   28.8650   29.4960 O.3   327  NAP327     -0.3112
     28  C5D       -3.9150   29.1750   28.1050 C.3   327  NAP327      0.1813
     29  C4D       -3.3160   28.0090   27.3770 C.3   327  NAP327      0.1799
     30  O4D       -2.0530   27.6200   28.0060 O.3   327  NAP327     -0.3327
     31  C3D       -4.1010   26.6810   27.3700 C.3   327  NAP327      0.2158
     32  O3D       -5.3040   26.6670   26.6180 O.3   327  NAP327     -0.2175
     33  C2D       -3.0010   25.7070   26.9560 C.3   327  NAP327      0.2309
     34  O2D       -2.8520   25.7360   25.5320 O.3   327  NAP327     -0.2158
     35  C1D       -1.8010   26.2480   27.7560 C.3   327  NAP327      0.2263
     36  N1N       -1.5590   25.5520   29.0760 N.pl3 327  NAP327     -0.2787
     37  C2N       -0.3860   24.8080   29.1490 C.3   327  NAP327      0.1244
     38  C3N       -0.0450   24.1090   30.3290 C.2   327  NAP327      0.0544
     39  C7N        1.2240   23.3100   30.4220 C.2   327  NAP327      0.2818
     40  O7N        1.4350   22.6020   31.4010 O.2   327  NAP327     -0.2670
     41  N7N        2.1080   23.4290   29.4220 N.am  327  NAP327     -0.0839
     42  C4N       -0.9380   24.1770   31.4680 C.2   327  NAP327      0.0033
     43  C5N       -2.1410   24.9440   31.3910 C.2   327  NAP327      0.0157
     44  C6N       -2.4530   25.6280   30.2070 C.2   327  NAP327      0.0633
     45  P2B      -13.8770   31.5410   26.7710 P.3   327  NAP327      0.5328
     46  O1X      -13.1790   30.4230   26.0190 O.2   327  NAP327     -0.2224
     47  O2X      -15.3510   31.3170   27.0550 O.3   327  NAP327     -0.1145
     48  O3X      -13.6090   32.8760   26.1380 O.3   327  NAP327     -0.1145
@<TRIPOS>BOND
     1    34    33    1
     2    46    45    2
     3    48    45    1
     4    32    31    1
     5    45    47    1
     6    45    11    1
     7    15    14    1
     8    15    16    2
     9    18    17    1
    10    33    31    1
    11    33    35    1
    12    14    13    1
    13    31    29    1
    14    29    30    1
    15    29    28    1
    16    16    17    1
    17    16    22    1
    18    35    30    1
    19    35    36    1
    20    17    19    2
    21    28    27    1
    22    11    10    1
    23    13    22    1
    24    13    12    1
    25    10     8    1
    26    10    12    1
    27    22    21    2
    28    19    20    1
    29     3     1    2
    30    25    24    2
    31    36    37    1
    32    36    44    1
    33    37    38    1
    34     8     9    1
    35     8     6    1
    36    12     7    1
    37    41    39   am
    38    27    24    1
    39    20    21    1
    40     4     1    1
    41     4     5    1
    42    24    23    1
    43    24    26    1
    44     7     6    1
    45     1    23    1
    46     1     2    1
    47    44    43    2
    48    38    39    1
    49    38    42    2
    50    39    40    2
    51     6     5    1
    52    43    42    1
