@<TRIPOS>MOLECULE
3cav_CI2_A_1.pdb
 23 26 0 0 0
SMALL
GASTEIGER

@<TRIPOS>ATOM
      1  C1         5.6810   40.3220  -26.8330 C.3   328  CI2328      0.0355
      2  C2         6.7070   39.3710  -27.4500 C.3   328  CI2328      0.1520
      3  O3         7.7120   38.9700  -26.5210 O.3   328  CI2328     -0.2232
      4  C4         6.6480   38.9130  -28.9250 C.3   328  CI2328      0.0304
      5  C5         8.0360   38.3830  -29.5180 C.3   328  CI2328      0.0025
      6  C6         7.7520   37.1850  -30.0770 C.3   328  CI2328      0.0001
      7  C7         6.2870   37.1340  -30.4530 C.3   328  CI2328      0.0001
      8  C8         5.6440   35.7620  -30.8180 C.3   328  CI2328      0.0000
      9  C9         6.3220   35.1060  -32.0450 C.3   328  CI2328      0.0000
     10  C10        5.6310   33.7480  -32.3970 C.3   328  CI2328      0.0004
     11  C11        4.1190   33.9860  -32.7130 C.3   328  CI2328      0.0073
     12  C12        4.0000   34.9030  -33.9710 C.3   328  CI2328      0.0645
     13  C13        2.4960   35.1420  -34.2360 C.2   328  CI2328      0.1506
     14  O14        1.9990   34.8510  -35.2860 O.2   328  CI2328     -0.2961
     15  C15        1.6620   35.7480  -33.1060 C.3   328  CI2328      0.0645
     16  C16        1.8580   34.8790  -31.8330 C.3   328  CI2328      0.0078
     17  C17        3.3910   34.6560  -31.4910 C.3   328  CI2328      0.0008
     18  C18        3.4360   33.7330  -30.2110 C.3   328  CI2328      0.0000
     19  C19        4.1130   36.0330  -31.1300 C.3   328  CI2328      0.0000
     20  C20        3.4210   36.7530  -29.9150 C.3   328  CI2328      0.0000
     21  C21        4.1780   38.1030  -29.6190 C.3   328  CI2328      0.0001
     22  C22        5.6350   37.7660  -29.2090 C.3   328  CI2328      0.0024
     23  C23        5.6430   36.7350  -28.0070 C.3   328  CI2328      0.0001
@<TRIPOS>BOND
     1    14    13    2
     2    13    12    1
     3    13    15    1
     4    12    11    1
     5    15    16    1
     6    11    10    1
     7    11    17    1
     8    10     9    1
     9     9     8    1
    10    16    17    1
    11    17    19    1
    12    17    18    1
    13    19     8    1
    14    19    20    1
    15     8     7    1
    16     7     6    1
    17     7    22    1
    18     6     5    1
    19    20    21    1
    20    21    22    1
    21     5     4    1
    22    22     4    1
    23    22    23    1
    24     4     2    1
    25     2     1    1
    26     2     3    1
