@<TRIPOS>MOLECULE
3cav_NAP_A_1.pdb
 48 52 0 0 0
SMALL
GASTEIGER

@<TRIPOS>ATOM
      1  PA         6.5210   24.1510  -35.2020 P.3   327  NAP327      0.2189
      2  O1A        5.8080   23.3620  -34.1550 O.3   327  NAP327     -0.4371
      3  O2A        6.1530   23.9890  -36.6240 O.2   327  NAP327     -0.5170
      4  O5B        8.1010   23.8730  -34.9830 O.3   327  NAP327     -0.3112
      5  C5B        9.1090   24.4940  -35.8100 C.3   327  NAP327      0.1813
      6  C4B       10.4670   24.1210  -35.2220 C.3   327  NAP327      0.1820
      7  O4B       10.7160   22.6910  -35.3950 O.3   327  NAP327     -0.3136
      8  C3B       11.6980   24.7740  -35.8380 C.3   327  NAP327      0.2157
      9  O3B       12.6890   25.1200  -34.8880 O.3   327  NAP327     -0.2175
     10  C2B       12.1270   23.7680  -36.9060 C.3   327  NAP327      0.2314
     11  O2B       13.5170   23.8980  -37.2190 O.3   327  NAP327     -0.2630
     12  C1B       11.8790   22.4690  -36.2040 C.3   327  NAP327      0.3158
     13  N9A       11.5510   21.2950  -37.0330 N.pl3 327  NAP327     -0.1439
     14  C8A       10.7700   21.2520  -38.1770 C.3   327  NAP327      0.3377
     15  N7A       10.6580   20.0350  -38.6890 N.2   327  NAP327     -0.2095
     16  C5A       11.3960   19.2550  -37.8470 C.2   327  NAP327      0.2526
     17  C6A       11.6900   17.8380  -37.8230 C.2   327  NAP327      0.4393
     18  N6A       11.2040   17.0110  -38.7500 N.pl3 327  NAP327      0.2180
     19  N1A       12.4990   17.3560  -36.7990 N.2   327  NAP327      0.0021
     20  C2A       13.0030   18.2030  -35.8350 C.3   327  NAP327      0.5254
     21  N3A       12.7790   19.5580  -35.7680 N.2   327  NAP327     -0.0055
     22  C4A       11.9630   20.0160  -36.8130 C.2   327  NAP327      0.3518
     23  O3         6.4370   25.6960  -34.7630 O.3   327  NAP327     -0.2703
     24  PN         5.7700   27.0370  -35.2730 P.3   327  NAP327      0.2189
     25  O1N        6.6670   27.6400  -36.2850 O.2   327  NAP327     -0.5170
     26  O2N        5.5220   27.8500  -34.0310 O.3   327  NAP327     -0.4371
     27  O5D        4.3760   26.6340  -35.9210 O.3   327  NAP327     -0.3112
     28  C5D        4.1730   26.3600  -37.3130 C.3   327  NAP327      0.1813
     29  C4D        3.5500   27.5350  -38.0130 C.3   327  NAP327      0.1799
     30  O4D        2.2770   27.8930  -37.3800 O.3   327  NAP327     -0.3327
     31  C3D        4.3110   28.8690  -37.9810 C.3   327  NAP327      0.2158
     32  O3D        5.5100   28.9150  -38.7340 O.3   327  NAP327     -0.2175
     33  C2D        3.2090   29.8320  -38.3830 C.3   327  NAP327      0.2309
     34  O2D        3.0860   29.7890  -39.8050 O.3   327  NAP327     -0.2158
     35  C1D        2.0090   29.2730  -37.5930 C.3   327  NAP327      0.2263
     36  N1N        1.7780   29.9170  -36.2380 N.pl3 327  NAP327     -0.2787
     37  C2N        0.6130   30.6840  -36.1110 C.3   327  NAP327      0.1244
     38  C3N        0.3060   31.3170  -34.8760 C.2   327  NAP327      0.0544
     39  C7N       -0.9440   32.1360  -34.6910 C.2   327  NAP327      0.2818
     40  O7N       -1.0020   32.9760  -33.7890 O.2   327  NAP327     -0.2670
     41  N7N       -1.9600   31.9230  -35.5430 N.am  327  NAP327     -0.0839
     42  C4N        1.2150   31.1580  -33.7570 C.2   327  NAP327      0.0033
     43  C5N        2.3990   30.3770  -33.8950 C.2   327  NAP327      0.0157
     44  C6N        2.6770   29.7600  -35.1200 C.2   327  NAP327      0.0633
     45  P2B       14.0670   23.9700  -38.7370 P.3   327  NAP327      0.5328
     46  O1X       13.3780   25.1320  -39.4110 O.2   327  NAP327     -0.2224
     47  O2X       15.5710   24.1070  -38.5230 O.3   327  NAP327     -0.1145
     48  O3X       13.7140   22.6580  -39.3750 O.3   327  NAP327     -0.1145
@<TRIPOS>BOND
     1    34    33    1
     2    46    45    2
     3    48    45    1
     4    18    17    1
     5    45    47    1
     6    45    11    1
     7    32    31    1
     8    15    14    1
     9    15    16    2
    10    33    31    1
    11    33    35    1
    12    14    13    1
    13    29    31    1
    14    29    30    1
    15    29    28    1
    16    16    17    1
    17    16    22    1
    18    17    19    2
    19    35    30    1
    20    35    36    1
    21    28    27    1
    22    11    10    1
    23    13    22    1
    24    13    12    1
    25    10    12    1
    26    10     8    1
    27    22    21    2
    28    19    20    1
    29     3     1    2
    30    25    24    2
    31    36    37    1
    32    36    44    1
    33    12     7    1
    34    37    38    1
    35    27    24    1
    36     8     6    1
    37     8     9    1
    38    20    21    1
    39     5     6    1
    40     5     4    1
    41    41    39   am
    42     7     6    1
    43    24    23    1
    44    24    26    1
    45     1     4    1
    46     1    23    1
    47     1     2    1
    48    44    43    2
    49    38    39    1
    50    38    42    2
    51    39    40    2
    52    43    42    1
