@<TRIPOS>MOLECULE
3cb0_FMN_A_1.pdb
 31 33 0 0 0
SMALL
GASTEIGER

@<TRIPOS>ATOM
      1  N1        -3.8850   86.4100   21.6170 N.2   200  FMN200     -0.2887
      2  C2        -4.1020   86.1720   20.2730 C.1   200  FMN200      0.3669
      3  O2        -5.1790   86.4940   19.7750 O.2   200  FMN200     -0.1744
      4  N3        -3.1130   85.5710   19.5120 N.2   200  FMN200     -0.2300
      5  C4        -1.9090   85.2110   20.1020 C.1   200  FMN200      0.2513
      6  O4        -1.0610   84.6040   19.4480 O.2   200  FMN200     -0.2057
      7  C4A       -1.6900   85.4520   21.4610 C.2   200  FMN200      0.2706
      8  N5        -0.4920   85.0920   22.0580 N.2   200  FMN200     -0.3841
      9  C5A       -0.2910   85.3450   23.4050 C.2   200  FMN200      0.1452
     10  C6         0.9220   84.9830   23.9870 C.2   200  FMN200      0.0252
     11  C7         1.1470   85.2230   25.3400 C.2   200  FMN200     -0.0375
     12  C7M        2.5370   85.0130   25.8730 C.3   200  FMN200      0.0268
     13  C8         0.1470   85.8300   26.1120 C.3   200  FMN200      0.0417
     14  C8M        0.3520   86.1140   27.5710 C.3   200  FMN200      0.0091
     15  C9        -1.0680   86.1940   25.5260 C.2   200  FMN200     -0.0049
     16  C9A       -1.2940   85.9530   24.1680 C.2   200  FMN200      0.0795
     17  N10       -2.4960   86.3120   23.5710 N.pl3 200  FMN200     -0.2545
     18  C10       -2.6910   86.0590   22.2190 C.2   200  FMN200      0.2449
     19  C1'       -3.6400   86.8470   24.3940 C.3   200  FMN200      0.1336
     20  C2'       -3.7940   88.3510   24.1680 C.3   200  FMN200      0.2048
     21  O2'       -2.6170   88.9860   24.6200 O.3   200  FMN200     -0.2185
     22  C3'       -5.0490   88.8990   24.8580 C.3   200  FMN200      0.2165
     23  O3'       -6.1810   88.1670   24.4280 O.3   200  FMN200     -0.2175
     24  C4'       -5.2970   90.3780   24.5490 C.3   200  FMN200      0.2147
     25  O4'       -4.3070   91.1670   25.1610 O.3   200  FMN200     -0.2176
     26  C5'       -6.6510   90.8620   25.0600 C.3   200  FMN200      0.1892
     27  O5'       -6.7390   90.6040   26.4450 O.3   200  FMN200     -0.2674
     28  P         -7.8220   91.3520   27.3720 P.3   200  FMN200      0.5327
     29  O1P       -7.3260   92.7560   27.6200 O.3   200  FMN200     -0.1145
     30  O2P       -7.9470   90.6080   28.6820 O.3   200  FMN200     -0.1145
     31  O3P       -9.1640   91.4060   26.6750 O.2   200  FMN200     -0.2224
@<TRIPOS>BOND
     1     6     5    2
     2     4     5    2
     3     4     2    2
     4     3     2    2
     5     5     7    1
     6     2     1    2
     7     7     8    2
     8     7    18    1
     9     1    18    2
    10     8     9    2
    11    18    17    1
    12     9    10    1
    13     9    16    1
    14    17    16    1
    15    17    19    1
    16    10    11    2
    17    16    15    2
    18    20    19    1
    19    20    21    1
    20    20    22    1
    21    23    22    1
    22    24    22    1
    23    24    26    1
    24    24    25    1
    25    26    27    1
    26    11    12    1
    27    11    13    1
    28    15    13    1
    29    13    14    1
    30    27    28    1
    31    31    28    2
    32    28    29    1
    33    28    30    1
