@<TRIPOS>MOLECULE
3cb2_GDP_A_1.pdb
 28 30 0 0 0
SMALL
GASTEIGER

@<TRIPOS>ATOM
      1  PB        12.3370   15.6270   15.2190 P.3   500  GDP500      0.5373
      2  O1B       12.3920   15.9440   13.7420 O.2   500  GDP500     -0.2221
      3  O2B       11.8230   16.8120   15.9940 O.3   500  GDP500     -0.1143
      4  O3B       11.4430   14.4360   15.4330 O.3   500  GDP500     -0.1143
      5  O3A       13.7800   15.1890   15.7900 O.3   500  GDP500     -0.2261
      6  PA        15.1050   16.0870   15.6520 P.3   500  GDP500      0.2231
      7  O1A       14.8750   17.2830   14.7810 O.2   500  GDP500     -0.5169
      8  O2A       15.6380   16.4610   17.0030 O.3   500  GDP500     -0.4370
      9  O5'       16.0620   15.0520   14.8620 O.3   500  GDP500     -0.3111
     10  C5'       17.1120   14.3100   15.4710 C.3   500  GDP500      0.1813
     11  C4'       18.3430   14.5140   14.5950 C.3   500  GDP500      0.1799
     12  O4'       18.5250   15.9060   14.3360 O.3   500  GDP500     -0.3326
     13  C3'       19.6290   14.1030   15.2820 C.3   500  GDP500      0.2158
     14  O3'       20.5300   13.7610   14.2180 O.3   500  GDP500     -0.2175
     15  C2'       20.0680   15.3700   16.0100 C.3   500  GDP500      0.2310
     16  O2'       21.4710   15.4400   16.2290 O.3   500  GDP500     -0.2158
     17  C1'       19.6930   16.4170   14.9900 C.3   500  GDP500      0.2293
     18  N9        19.3530   17.7680   15.5010 N.pl3 500  GDP500     -0.2354
     19  C8        18.3720   18.1050   16.3540 C.3   500  GDP500      0.2246
     20  N7        18.3470   19.4480   16.5490 N.2   500  GDP500     -0.2322
     21  C5        19.3340   19.9860   15.8030 C.2   500  GDP500      0.2182
     22  C6        19.8680   21.3360   15.5140 C.1   500  GDP500      0.2372
     23  O6        19.3580   22.3430   16.0390 O.2   500  GDP500     -0.2069
     24  N1        20.8990   21.4540   14.6570 N.2   500  GDP500     -0.2485
     25  C2        21.4640   20.3890   14.0570 C.1   500  GDP500      0.2531
     26  N2        22.5070   20.5760   13.2120 N.pl3 500  GDP500     -0.0226
     27  N3        21.0240   19.1250   14.2730 N.2   500  GDP500     -0.3074
     28  C4        19.9880   18.8700   15.1120 C.2   500  GDP500      0.2300
@<TRIPOS>BOND
     1    26    25    1
     2     2     1    2
     3    25    27    2
     4    25    24    2
     5    14    13    1
     6    27    28    2
     7    12    11    1
     8    12    17    1
     9    11    13    1
    10    11    10    1
    11    24    22    2
    12     7     6    2
    13     9    10    1
    14     9     6    1
    15    17    18    1
    16    17    15    1
    17    28    18    1
    18    28    21    1
    19     1     4    1
    20     1     5    1
    21     1     3    1
    22    13    15    1
    23    18    19    1
    24    22    21    1
    25    22    23    2
    26     6     5    1
    27     6     8    1
    28    21    20    2
    29    15    16    1
    30    19    20    1
