@<TRIPOS>MOLECULE
3cb3_LGT_A_1.pdb
 14 13 0 0 0
SMALL
GASTEIGER

@<TRIPOS>ATOM
      1  O1A       72.0630   86.2050   13.6330 O.co2 601  LGT601     -0.2427
      2  C1        70.8250   86.3080   13.7520 C.2   601  LGT601      0.3973
      3  O1B       70.2120   86.3000   14.8470 O.co2 601  LGT601     -0.2427
      4  C2        69.9640   86.4640   12.4590 C.3   601  LGT601      0.2865
      5  O2        70.6600   85.8820   11.3390 O.3   601  LGT601     -0.2080
      6  C3        68.5720   85.8170   12.6050 C.3   601  LGT601      0.2266
      7  O3        68.7500   84.4370   12.9090 O.3   601  LGT601     -0.2169
      8  C4        67.6530   85.9350   11.3390 C.3   601  LGT601      0.2266
      9  O4        67.4040   84.6480   10.7510 O.3   601  LGT601     -0.2169
     10  C5        66.2700   86.5920   11.5890 C.3   601  LGT601      0.2865
     11  O5        65.5710   85.8660   12.6150 O.3   601  LGT601     -0.2080
     12  C6        66.4030   88.0780   11.9960 C.2   601  LGT601      0.3973
     13  O6A       66.6340   88.8850   11.0640 O.co2 601  LGT601     -0.2427
     14  O6B       66.2880   88.3900   13.2030 O.co2 601  LGT601     -0.2427
@<TRIPOS>BOND
     1     9     8    1
     2    13    12   ar
     3     5     4    1
     4     8    10    1
     5     8     6    1
     6    10    12    1
     7    10    11    1
     8    12    14   ar
     9     4     6    1
    10     4     2    1
    11     6     7    1
    12     1     2   ar
    13     2     3   ar
