@<TRIPOS>MOLECULE
3cb8_SAM_A_1.pdb
 27 29 0 0 0
SMALL
GASTEIGER

@<TRIPOS>ATOM
      1  N         -7.0900  -33.5970   18.8020 N.3   501  SAM501     -0.1208
      2  CA        -7.1660  -32.2500   18.2110 C.3   501  SAM501      0.1952
      3  C         -6.2700  -31.2810   19.0080 C.2   501  SAM501      0.3819
      4  O         -5.9720  -31.5980   20.1830 O.co2 501  SAM501     -0.2441
      5  OXT       -5.8900  -30.2500   18.4130 O.co2 501  SAM501     -0.2441
      6  CB        -8.6380  -31.7890   18.2040 C.3   501  SAM501      0.0414
      7  CG        -9.3600  -32.2010   19.5050 C.3   501  SAM501      0.0503
      8  SD        -8.7900  -31.2320   20.9310 S.3   501  SAM501     -0.1761
      9  CE        -9.3220  -32.0550   22.4660 C.3   501  SAM501      0.0590
     10  C5'       -9.5160  -29.5480   20.8270 C.3   501  SAM501      0.0806
     11  C4'       -8.7380  -28.4660   21.6190 C.3   501  SAM501      0.1622
     12  O4'       -8.8250  -28.7390   23.0620 O.3   501  SAM501     -0.3153
     13  C3'       -7.2360  -28.4780   21.2720 C.3   501  SAM501      0.2168
     14  O3'       -6.8200  -27.1160   21.0890 O.3   501  SAM501     -0.2175
     15  C2'       -6.6250  -29.1110   22.5150 C.3   501  SAM501      0.2569
     16  O2'       -5.2670  -28.6860   22.6480 O.3   501  SAM501     -0.2130
     17  C1'       -7.5030  -28.4640   23.5890 C.3   501  SAM501      0.3185
     18  N9        -7.3720  -29.1000   24.9530 N.pl3 501  SAM501     -0.1439
     19  C8        -7.4370  -30.4180   25.2190 C.3   501  SAM501      0.3377
     20  N7        -7.3400  -30.6150   26.5370 N.2   501  SAM501     -0.2095
     21  C5        -7.2120  -29.4270   27.1160 C.2   501  SAM501      0.2526
     22  C6        -7.0740  -29.0080   28.4450 C.2   501  SAM501      0.4393
     23  N6        -7.0560  -29.9010   29.4390 N.pl3 501  SAM501      0.2180
     24  N1        -6.9600  -27.6820   28.7150 N.2   501  SAM501      0.0021
     25  C2        -6.9800  -26.7730   27.7320 C.3   501  SAM501      0.5254
     26  N3        -7.1130  -27.1520   26.4520 N.2   501  SAM501     -0.0055
     27  C4        -7.2300  -28.4630   26.1170 C.2   501  SAM501      0.3518
@<TRIPOS>BOND
     1     6     2    1
     2     6     7    1
     3     2     1    1
     4     2     3    1
     5     5     3   ar
     6     3     4   ar
     7     7     8    1
     8    10     8    1
     9    10    11    1
    10     8     9    1
    11    14    13    1
    12    13    11    1
    13    13    15    1
    14    11    12    1
    15    15    16    1
    16    15    17    1
    17    12    17    1
    18    17    18    1
    19    18    19    1
    20    18    27    1
    21    19    20    1
    22    27    26    2
    23    27    21    1
    24    26    25    1
    25    20    21    2
    26    21    22    1
    27    25    24    1
    28    22    24    2
    29    22    23    1
