@<TRIPOS>MOLECULE
3cb8_III_B_1.pdb
 42 42 0 0 0
SMALL
GASTEIGER

@<TRIPOS>ATOM
      1  N        -13.4810  -23.7350   27.8240 N.3   732  VAL732     -0.1231
      2  CA       -14.4820  -24.7320   27.3560 C.3   732  VAL732      0.1692
      3  C        -14.2080  -25.1030   25.8950 C.2   732  VAL732      0.2593
      4  O        -15.0010  -25.7920   25.2570 O.2   732  VAL732     -0.2718
      5  CB       -15.9320  -24.1700   27.5190 C.3   732  VAL732      0.0266
      6  CG1      -16.0980  -22.8810   26.7280 C.3   732  VAL732      0.0020
      7  CG2      -16.9560  -25.2100   27.0920 C.3   732  VAL732      0.0020
      8  N        -13.0620  -24.6560   25.3840 N.am  733  SER733     -0.1938
      9  CA       -12.6610  -24.9160   24.0010 C.3   733  SER733      0.2055
     10  C        -12.3190  -26.3680   23.6820 C.2   733  SER733      0.2644
     11  O        -11.3470  -26.9230   24.1950 O.2   733  SER733     -0.2714
     12  CB       -11.4680  -24.0340   23.6190 C.3   733  SER733      0.2130
     13  OG       -11.8550  -22.6780   23.4740 O.3   733  SER733     -0.2179
     14  N        -13.1260  -26.9670   22.8150 N.am  734  GLY734     -0.1939
     15  CA       -12.9000  -28.3380   22.4130 C.3   734  GLY734      0.2014
     16  C        -13.3540  -29.3800   23.4110 C.2   734  GLY734      0.2639
     17  O        -12.9310  -30.5300   23.3250 O.2   734  GLY734     -0.2714
     18  N        -14.2090  -29.0050   24.3570 N.am  735  TYR735     -0.1959
     19  CA       -14.6720  -29.9770   25.3400 C.3   735  TYR735      0.1771
     20  C        -15.9390  -30.6870   24.8990 C.2   735  TYR735      0.2619
     21  O        -17.0110  -30.0870   24.8200 O.2   735  TYR735     -0.2715
     22  CB       -14.9090  -29.3200   26.7030 C.3   735  TYR735      0.0574
     23  CG       -15.3250  -30.3030   27.7810 C.ar  735  TYR735     -0.0198
     24  CD1      -16.6210  -30.2970   28.2980 C.ar  735  TYR735     -0.0009
     25  CD2      -14.4230  -31.2440   28.2830 C.ar  735  TYR735     -0.0009
     26  CE1      -17.0090  -31.2010   29.2930 C.ar  735  TYR735      0.0417
     27  CE2      -14.8010  -32.1520   29.2770 C.ar  735  TYR735      0.0417
     28  CZ       -16.0930  -32.1230   29.7780 C.ar  735  TYR735      0.1957
     29  OH       -16.4680  -32.9980   30.7750 O.3   735  TYR735     -0.2866
     30  N        -15.7990  -31.9740   24.6050 N.am  736  ALA736     -0.1963
     31  CA       -16.9210  -32.7960   24.1930 C.3   736  ALA736      0.1728
     32  C        -17.5160  -33.3900   25.4570 C.2   736  ALA736      0.2617
     33  O        -16.8140  -34.0180   26.2450 O.2   736  ALA736     -0.2715
     34  CB       -16.4480  -33.9040   23.2690 C.3   736  ALA736      0.0334
     35  N        -18.8070  -33.1800   25.6640 N.am  737  VAL737     -0.1942
     36  CA       -19.4510  -33.7250   26.8440 C.3   737  VAL737      0.1977
     37  C        -19.8710  -35.1730   26.6230 C.2   737  VAL737      0.3842
     38  O        -19.2560  -36.0560   27.2600 O.co2 737  VAL737     -0.2437
     39  CB       -20.6790  -32.9030   27.2320 C.3   737  VAL737      0.0311
     40  CG1      -21.4970  -32.5890   26.0040 C.3   737  VAL737      0.0023
     41  CG2      -21.5050  -33.6730   28.2370 C.3   737  VAL737      0.0023
     42  OXT      -20.7970  -35.4100   25.8170 O.co2 737  VAL737     -0.2437
@<TRIPOS>BOND
     1    15    14    1
     2    15    16    1
     3    14    10   am
     4    34    31    1
     5    17    16    2
     6    16    18   am
     7    13    12    1
     8    12     9    1
     9    10     9    1
    10    10    11    2
    11     9     8    1
    12    31    30    1
    13    31    32    1
    14    18    19    1
    15    30    20   am
    16    21    20    2
    17    20    19    1
    18     4     3    2
    19    19    22    1
    20     8     3   am
    21    32    35   am
    22    32    33    2
    23    35    36    1
    24    42    37   ar
    25     3     2    1
    26    40    39    1
    27    37    36    1
    28    37    38   ar
    29    22    23    1
    30     6     5    1
    31    36    39    1
    32     7     5    1
    33    39    41    1
    34     2     5    1
    35     2     1    1
    36    23    25   ar
    37    23    24   ar
    38    25    27   ar
    39    24    26   ar
    40    27    28   ar
    41    26    28   ar
    42    28    29    1
