@<TRIPOS>MOLECULE
3cbc_DBS_A_1.pdb
 17 17 0 0 0
SMALL
GASTEIGER

@<TRIPOS>ATOM
      1  O4        26.0350   77.7720   62.6130 O.3   301  DBS301     -0.2831
      2  C4        26.4340   79.0300   62.2920 C.ar  301  DBS301      0.2344
      3  C7        25.6540   79.8440   61.4820 C.ar  301  DBS301      0.0454
      4  C1        27.7230   79.5430   62.8120 C.ar  301  DBS301      0.2386
      5  O1        28.4730   78.7280   63.6060 O.3   301  DBS301     -0.2830
      6  C16       28.1260   80.8330   62.4790 C.ar  301  DBS301      0.0971
      7  C13       27.3070   81.6140   61.6590 C.ar  301  DBS301      0.0080
      8  C10       26.0930   81.1270   61.1710 C.ar  301  DBS301      0.0036
      9  C19       29.4330   81.3880   62.9850 C.2   301  DBS301      0.2685
     10  O7        29.7000   82.5640   62.7940 O.2   301  DBS301     -0.2682
     11  N1        30.2630   80.5600   63.6230 N.am  301  DBS301     -0.1890
     12  C22       31.5620   80.9290   64.1730 C.3   301  DBS301      0.2307
     13  C28       31.4150   80.7710   65.6840 C.3   301  DBS301      0.2152
     14  O13       30.4890   81.7400   66.1910 O.3   301  DBS301     -0.2179
     15  C25       32.6610   80.0320   63.6760 C.2   301  DBS301      0.3869
     16  O10       33.8370   80.2990   64.0040 O.co2 301  DBS301     -0.2437
     17  O15       32.3670   79.0480   62.9570 O.co2 301  DBS301     -0.2437
@<TRIPOS>BOND
     1     8     3   ar
     2     8     7   ar
     3     3     2   ar
     4     7     6   ar
     5     2     1    1
     6     2     4   ar
     7     6     4   ar
     8     6     9    1
     9    10     9    2
    10     4     5    1
    11    17    15   ar
    12     9    11   am
    13    11    12    1
    14    15    16   ar
    15    15    12    1
    16    12    13    1
    17    13    14    1
