@<TRIPOS>MOLECULE
3cbd_140_A_1.pdb
 22 21 0 0 0
SMALL
GASTEIGER

@<TRIPOS>ATOM
      1  C1        21.1110   75.9860   67.6440 C.2   500  140500      0.3865
      2  O1        21.3300   74.7670   67.5700 O.co2 500  140500     -0.2437
      3  O2        19.9750   76.4670   67.8360 O.co2 500  140500     -0.2437
      4  C2        22.3060   76.9780   67.4960 C.3   500  140500      0.2284
      5  N         23.5720   76.2640   67.2790 N.am  500  140500     -0.1932
      6  C3        24.2150   76.2720   66.1260 C.2   500  140500      0.2419
      7  O3        23.8180   76.8800   65.1030 O.2   500  140500     -0.2733
      8  C4        25.5130   75.4760   66.0740 C.3   500  140500      0.0868
      9  C5        25.3170   73.9970   65.7750 C.3   500  140500      0.0096
     10  C6        26.3780   73.4930   64.8260 C.3   500  140500      0.0005
     11  C7        26.2040   72.0420   64.5270 C.3   500  140500      0.0000
     12  C8        27.2900   71.6630   63.6010 C.3   500  140500      0.0000
     13  C9        27.2280   70.2420   63.2360 C.3   500  140500      0.0000
     14  C10       28.3510   69.9480   62.3220 C.3   500  140500      0.0000
     15  C11       28.1340   68.6940   61.5400 C.3   500  140500      0.0000
     16  C12       27.9270   68.8060   60.0890 C.3   500  140500      0.0000
     17  C13       26.8180   68.0700   59.3990 C.3   500  140500      0.0000
     18  C14       27.3750   67.0700   58.4610 C.3   500  140500      0.0000
     19  C15       26.2620   66.3160   57.7640 C.3   500  140500      0.0000
     20  C16       26.6890   64.9160   57.5170 C.3   500  140500      0.0000
     21  C17       25.6260   64.1300   56.8280 C.3   500  140500      0.0000
     22  C18       26.0320   62.7450   56.5800 C.3   500  140500      0.0000
@<TRIPOS>BOND
     1    22    21    1
     2    21    20    1
     3    20    19    1
     4    19    18    1
     5    18    17    1
     6    17    16    1
     7    16    15    1
     8    15    14    1
     9    14    13    1
    10    13    12    1
    11    12    11    1
    12    11    10    1
    13    10     9    1
    14     7     6    2
    15     9     8    1
    16     8     6    1
    17     6     5   am
    18     5     4    1
    19     4     1    1
    20     2     1   ar
    21     1     3   ar
