@<TRIPOS>MOLECULE
3cbd_HEM_A_1.pdb
 43 50 0 0 0
SMALL
GASTEIGER

@<TRIPOS>ATOM
      1 FE         33.5930   62.4170   59.8550 Fe    460  HEM460      0.0000
      2  CHA       31.3190   61.4840   62.3070 C.2   460  HEM460      0.0000
      3  CHB       34.1990   65.3620   61.5650 C.2   460  HEM460      0.0000
      4  CHC       35.8370   63.3660   57.4000 C.2   460  HEM460      0.0000
      5  CHD       32.4490   59.8970   57.8390 C.2   460  HEM460      0.0000
      6  NA        32.9670   63.1900   61.5900 N.2   460  HEM460      0.0000
      7  C1A       32.0870   62.6330   62.5310 C.2   460  HEM460      0.0000
      8  C2A       31.9610   63.5050   63.7060 C.2   460  HEM460      0.0000
      9  C3A       32.7600   64.6010   63.4660 C.2   460  HEM460      0.0000
     10  C4A       33.3350   64.4220   62.1540 C.2   460  HEM460      0.0000
     11  CMA       33.0440   65.7580   64.4170 C.3   460  HEM460      0.0000
     12  CAA       31.0550   63.3480   64.9420 C.3   460  HEM460      0.0000
     13  CBA       29.6250   63.8130   64.6590 C.3   460  HEM460      0.0000
     14  CGA       28.7720   63.9320   65.9110 C.2   460  HEM460      0.0000
     15  O1A       27.6000   64.3430   65.7810 O.co2 460  HEM460      0.0000
     16  O2A       29.2700   63.6180   67.0180 O.co2 460  HEM460      0.0000
     17  NB        34.7200   64.0540   59.5090 N.ar  460  HEM460      0.0000
     18  C1B       34.8940   65.1750   60.3480 C.ar  460  HEM460      0.0000
     19  C2B       35.9890   66.0240   59.8920 C.ar  460  HEM460      0.0000
     20  C3B       36.4050   65.4740   58.6910 C.ar  460  HEM460      0.0000
     21  C4B       35.6400   64.2620   58.4690 C.ar  460  HEM460      0.0000
     22  CMB       36.6030   67.2260   60.6350 C.3   460  HEM460      0.0000
     23  CAB       37.3460   65.9900   57.8000 C.2   460  HEM460      0.0000
     24  CBB       38.5810   66.3980   58.2030 C.2   460  HEM460      0.0000
     25  NC        34.0530   61.7680   58.0390 N.2   460  HEM460      0.0000
     26  C1C       35.1060   62.1860   57.2090 C.2   460  HEM460      0.0000
     27  C2C       35.2670   61.2820   56.0740 C.2   460  HEM460      0.0000
     28  C3C       34.2360   60.3760   56.1610 C.2   460  HEM460      0.0000
     29  C4C       33.5150   60.6680   57.3740 C.2   460  HEM460      0.0000
     30  CMC       36.3620   61.3310   54.9950 C.3   460  HEM460      0.0000
     31  CAC       33.8350   59.4470   55.2210 C.2   460  HEM460      0.0000
     32  CBC       34.6200   58.4590   54.7160 C.2   460  HEM460      0.0000
     33  ND        32.1690   61.0090   60.0310 N.ar  460  HEM460      0.0000
     34  C1D       31.7850   60.0750   59.0590 C.ar  460  HEM460      0.0000
     35  C2D       30.6640   59.2610   59.4760 C.ar  460  HEM460      0.0000
     36  C3D       30.3770   59.6570   60.7680 C.ar  460  HEM460      0.0000
     37  C4D       31.3110   60.7440   61.1100 C.ar  460  HEM460      0.0000
     38  CMD       30.0640   58.1240   58.6370 C.3   460  HEM460      0.0000
     39  CAD       29.4230   58.9280   61.7340 C.3   460  HEM460      0.0000
     40  CBD       30.1950   57.9710   62.6560 C.3   460  HEM460      0.0000
     41  CGD       29.2870   57.1330   63.5490 C.2   460  HEM460      0.0000
     42  O1D       28.5150   57.7200   64.3440 O.co2 460  HEM460      0.0000
     43  O2D       29.3560   55.8840   63.4500 O.co2 460  HEM460      0.0000
@<TRIPOS>BOND
     1    32    31    2
     2    30    27    1
     3    31    28    1
     4    27    28    2
     5    27    26    1
     6    28    29    1
     7    26     4    2
     8    26    25    1
     9    29     5    1
    10    29    25    2
    11     4    21    1
    12    23    24    2
    13    23    20    1
    14     5    34    2
    15    25     1    1
    16    21    20   ar
    17    21    17   ar
    18    38    35    1
    19    20    19   ar
    20    34    35   ar
    21    34    33   ar
    22    35    36   ar
    23    17     1    1
    24    17    18   ar
    25     1    33    1
    26     1     6    1
    27    19    18   ar
    28    19    22    1
    29    33    37   ar
    30    18     3    1
    31    36    37   ar
    32    36    39    1
    33    37     2    2
    34     3    10    2
    35     6    10    1
    36     6     7    2
    37    39    40    1
    38    10     9    1
    39     2     7    1
    40     7     8    1
    41    40    41    1
    42    43    41   ar
    43     9     8    2
    44     9    11    1
    45    41    42   ar
    46     8    12    1
    47    13    12    1
    48    13    14    1
    49    15    14   ar
    50    14    16   ar
