@<TRIPOS>MOLECULE
3cbf_N5F_A_1.pdb
 26 26 0 0 0
SMALL
GASTEIGER

@<TRIPOS>ATOM
      1  OAM        3.6160    3.1040  -12.5590 O.3   500  N5F500     -0.1145
      2  PAT        4.3520    1.7860  -12.9590 P.3   500  N5F500      0.5329
      3  OAZ        5.8530    2.0430  -13.3060 O.3   500  N5F500     -0.1145
      4  OAU        3.6100    1.0010  -14.0150 O.2   500  N5F500     -0.2224
      5  OAS        4.2950    1.0350  -11.5490 O.3   500  N5F500     -0.2653
      6  CAR        4.1000   -0.3860  -11.4660 C.3   500  N5F500      0.1816
      7  CAQ        4.9630   -0.9970  -10.3690 C.ar  500  N5F500      0.0275
      8  CAY        6.0250   -1.7900  -10.8010 C.ar  500  N5F500      0.0965
      9  NAX        6.8430   -2.3480   -9.9180 N.ar  500  N5F500     -0.2452
     10  CAW        6.6800   -2.2530   -8.6100 C.ar  500  N5F500      0.0978
     11  CAV        7.6670   -2.9600   -7.6860 C.3   500  N5F500      0.0555
     12  CAO        5.6290   -1.4780   -8.1120 C.ar  500  N5F500      0.2062
     13  OAN        5.4980   -1.3230   -6.7830 O.3   500  N5F500     -0.2856
     14  CAP        4.7430   -0.8140   -8.9870 C.ar  500  N5F500      0.0353
     15  CAK        3.5320    0.0520   -8.5080 C.3   500  N5F500      0.1186
     16  N          3.5820    0.3130   -7.0610 N.3   500  N5F500     -0.2034
     17  CA         2.4480    0.9290   -6.3300 C.3   500  N5F500      0.1760
     18  C          1.7100   -0.0490   -5.4140 C.2   500  N5F500      0.3803
     19  OXT        2.0470   -1.2600   -5.4390 O.co2 500  N5F500     -0.2441
     20  O          0.8050    0.4270   -4.7040 O.co2 500  N5F500     -0.2441
     21  CB         1.5390    1.8420   -7.1900 C.3   500  N5F500      0.0295
     22  CAG        0.3570    1.0880   -7.8540 C.3   500  N5F500      0.0138
     23  CAH       -0.8970    1.9550   -7.7170 C.3   500  N5F500      0.1141
     24  CAI       -2.1420    1.4200   -8.4470 C.2   500  N5F500      0.3649
     25  OAB       -3.1920    2.0800   -8.2620 O.co2 500  N5F500     -0.2457
     26  OAJ       -2.0290    0.3690   -9.1250 O.co2 500  N5F500     -0.2457
@<TRIPOS>BOND
     1     4     2    2
     2     3     2    1
     3     2     1    1
     4     2     5    1
     5     5     6    1
     6     6     7    1
     7     8     7   ar
     8     8     9   ar
     9     7    14   ar
    10     9    10   ar
    11    26    24   ar
    12    14    15    1
    13    14    12   ar
    14    10    12   ar
    15    10    11    1
    16    15    16    1
    17    24    25   ar
    18    24    23    1
    19    12    13    1
    20    22    23    1
    21    22    21    1
    22    21    17    1
    23    16    17    1
    24    17    18    1
    25    19    18   ar
    26    18    20   ar
