@<TRIPOS>MOLECULE
3cbg_4FE_A_1.pdb
 14 14 0 0 0
SMALL
GASTEIGER

@<TRIPOS>ATOM
      1  C8       -33.7540    6.2530    3.9480 C.3   502  4FE502      0.2526
      2  O4       -34.9810    6.1020    4.6530 O.3   502  4FE502     -0.4682
      3  C5       -35.3380    4.7970    4.5510 C.ar  502  4FE502      0.1774
      4  C6       -34.6710    3.8340    5.3050 C.ar  502  4FE502      0.0402
      5  C7       -35.0320    2.5070    5.2060 C.ar  502  4FE502      0.0033
      6  C2       -36.0680    2.1240    4.3480 C.ar  502  4FE502      0.0036
      7  C3       -36.7400    3.0940    3.5890 C.ar  502  4FE502      0.0452
      8  O3       -36.9930    5.4050    2.9800 O.3   502  4FE502     -0.2833
      9  C1       -36.3520    4.4490    3.7090 C.ar  502  4FE502      0.2293
     10  C10      -36.4450    0.7250    4.2440 C.2   502  4FE502      0.0069
     11  C4       -37.4390    0.3370    3.4160 C.2   502  4FE502      0.0861
     12  C9       -37.7910   -1.0390    3.3390 C.2   502  4FE502      0.3880
     13  O2       -38.7810   -1.4450    2.5120 O.co2 502  4FE502     -0.2405
     14  O1       -37.1970   -1.8530    4.0230 O.co2 502  4FE502     -0.2405
@<TRIPOS>BOND
     1    13    12   ar
     2     8     9    1
     3    12    11    1
     4    12    14   ar
     5    11    10    2
     6     7     9   ar
     7     7     6   ar
     8     9     3   ar
     9     1     2    1
    10    10     6    1
    11     6     5   ar
    12     3     2    1
    13     3     4   ar
    14     5     4   ar
