@<TRIPOS>MOLECULE
3cbg_FER_A_1.pdb
 14 14 0 0 0
SMALL
GASTEIGER

@<TRIPOS>ATOM
      1  C4       -35.1740    4.8110    4.5340 C.ar  501  FER501      0.2293
      2  C5       -36.1140    4.4860    3.5630 C.ar  501  FER501      0.0452
      3  C6       -36.5360    3.1700    3.4160 C.ar  501  FER501      0.0035
      4  C3       -34.6560    3.8200    5.3590 C.ar  501  FER501      0.1774
      5  C2       -35.0790    2.5040    5.2130 C.ar  501  FER501      0.0402
      6  C1       -36.0180    2.1780    4.2400 C.ar  501  FER501      0.0034
      7  C10      -32.8690    3.0210    6.5300 C.3   501  FER501      0.2526
      8  C7       -36.4340    0.8610    4.0900 C.2   501  FER501      0.0069
      9  C8       -37.3690    0.5310    3.1150 C.2   501  FER501      0.0861
     10  C9       -37.7820   -0.7880    2.9700 C.2   501  FER501      0.3880
     11  O1       -37.4020   -1.6150    3.8270 O.co2 501  FER501     -0.2405
     12  O2       -38.4980   -1.0740    1.9860 O.co2 501  FER501     -0.2405
     13  O4       -34.7570    6.0980    4.6720 O.3   501  FER501     -0.2833
     14  O3       -33.7330    4.1380    6.3060 O.3   501  FER501     -0.4682
@<TRIPOS>BOND
     1    12    10   ar
     2    10     9    1
     3    10    11   ar
     4     9     8    2
     5     3     2   ar
     6     3     6   ar
     7     2     1   ar
     8     8     6    1
     9     6     5   ar
    10     1    13    1
    11     1     4   ar
    12     5     4   ar
    13     4    14    1
    14    14     7    1
