@<TRIPOS>MOLECULE
3cbg_SAH_A_1.pdb
 26 28 0 0 0
SMALL
GASTEIGER

@<TRIPOS>ATOM
      1  N        -31.6480   10.2820    1.0540 N.3   301  SAH301     -0.1208
      2  CA       -31.1540    9.2600    0.1210 C.3   301  SAH301      0.1952
      3  CB       -31.3260    7.8720    0.7400 C.3   301  SAH301      0.0422
      4  CG       -30.5870    7.7350    2.0730 C.3   301  SAH301      0.0597
      5  SD       -30.6350    6.0120    2.6850 S.3   301  SAH301     -0.1375
      6  C        -31.9630    9.3090   -1.1770 C.2   301  SAH301      0.3819
      7  O        -31.3450    9.1100   -2.2460 O.co2 301  SAH301     -0.2441
      8  OXT      -33.1890    9.5250   -1.0710 O.co2 301  SAH301     -0.2441
      9  C5'      -30.1890    6.2610    4.4410 C.3   301  SAH301      0.0899
     10  C4'      -28.6970    6.5090    4.6670 C.3   301  SAH301      0.1630
     11  O4'      -28.4530    6.6920    6.0690 O.3   301  SAH301     -0.3153
     12  C3'      -27.8370    5.3120    4.2490 C.3   301  SAH301      0.2168
     13  O3'      -27.0360    5.6580    3.1160 O.3   301  SAH301     -0.2175
     14  C2'      -26.9410    5.0720    5.4660 C.3   301  SAH301      0.2569
     15  O2'      -25.5890    4.8900    5.0360 O.3   301  SAH301     -0.2130
     16  C1'      -27.0560    6.4040    6.2090 C.3   301  SAH301      0.3185
     17  N9       -26.7590    6.2350    7.6480 N.pl3 301  SAH301     -0.1439
     18  C8       -27.3360    5.3420    8.4490 C.3   301  SAH301      0.3377
     19  N7       -26.9140    5.5230    9.6980 N.2   301  SAH301     -0.2095
     20  C5       -26.0570    6.5390    9.6910 C.2   301  SAH301      0.2526
     21  C6       -25.3300    7.1920   10.6770 C.2   301  SAH301      0.4393
     22  N6       -25.4180    6.8030   11.9460 N.pl3 301  SAH301      0.2180
     23  N1       -24.5530    8.2270   10.3270 N.2   301  SAH301      0.0021
     24  C2       -24.4710    8.6270    9.0700 C.3   301  SAH301      0.5254
     25  N3       -25.1500    8.0300    8.1060 N.2   301  SAH301     -0.0055
     26  C4       -25.9490    6.9910    8.3830 C.2   301  SAH301      0.3518
@<TRIPOS>BOND
     1     7     6   ar
     2     6     8   ar
     3     6     2    1
     4     2     3    1
     5     2     1    1
     6     3     4    1
     7     4     5    1
     8     5     9    1
     9    13    12    1
    10    12    10    1
    11    12    14    1
    12     9    10    1
    13    10    11    1
    14    15    14    1
    15    14    16    1
    16    11    16    1
    17    16    17    1
    18    17    26    1
    19    17    18    1
    20    25    26    2
    21    25    24    1
    22    26    20    1
    23    18    19    1
    24    24    23    1
    25    20    19    2
    26    20    21    1
    27    23    21    2
    28    21    22    1
