@<TRIPOS>MOLECULE
3cbi_ANN_A_1.pdb
 11 11 0 0 0
SMALL
GASTEIGER

@<TRIPOS>ATOM
      1  C8       -25.5130  -21.7600   23.1100 C.3   349  ANN349      0.2525
      2  O3       -25.0960  -22.4700   24.2740 O.3   349  ANN349     -0.4714
      3  C5       -24.1870  -23.4630   23.9860 C.ar  349  ANN349      0.1387
      4  C6       -23.7540  -24.3420   25.1500 C.ar  349  ANN349      0.0371
      5  C7       -22.9070  -25.4000   24.9170 C.ar  349  ANN349      0.0097
      6  C2       -22.4220  -25.6730   23.5940 C.ar  349  ANN349      0.0800
      7  C3       -22.7800  -24.8290   22.4920 C.ar  349  ANN349      0.0097
      8  C4       -23.6540  -23.7410   22.6690 C.ar  349  ANN349      0.0371
      9  C1       -21.5830  -26.8790   23.3580 C.2   349  ANN349      0.3878
     10  O1       -21.1540  -27.1650   22.1100 O.co2 349  ANN349     -0.2406
     11  O2       -21.3240  -27.6390   24.2940 O.co2 349  ANN349     -0.2406
@<TRIPOS>BOND
     1    10     9   ar
     2     7     8   ar
     3     7     6   ar
     4     8     3   ar
     5     1     2    1
     6     9     6    1
     7     9    11   ar
     8     6     5   ar
     9     3     2    1
    10     3     4   ar
    11     5     4   ar
