@<TRIPOS>MOLECULE
3cbi_AJM_A_1.pdb
 22 27 0 0 0
SMALL
GASTEIGER

@<TRIPOS>ATOM
      1  O1       -27.7840  -24.0680   11.3710 O.3   203  AJM203     -0.2227
      2  C15      -27.6580  -25.3310   12.0410 C.3   203  AJM203      0.1585
      3  C5       -26.5190  -26.1890   11.4570 C.3   203  AJM203      0.0674
      4  C4       -25.2890  -25.5510   12.1060 C.3   203  AJM203      0.0243
      5  C6       -26.2250  -26.2570   10.0170 C.ar  203  AJM203     -0.0054
      6  C7       -26.2990  -25.3160    8.9670 C.ar  203  AJM203     -0.0029
      7  C8       -25.9190  -25.7130    7.6750 C.ar  203  AJM203     -0.0002
      8  C9       -25.4850  -27.0270    7.4170 C.ar  203  AJM203      0.0012
      9  C11      -25.7850  -27.6190    9.7620 C.ar  203  AJM203      0.0439
     10  C10      -25.4010  -28.0000    8.4420 C.ar  203  AJM203      0.0142
     11  C14      -27.2260  -25.1690   13.5240 C.3   203  AJM203      0.0457
     12  C13      -28.0020  -26.1480   14.4730 C.3   203  AJM203      0.0091
     13  C16      -27.2040  -26.2390   15.8200 C.3   203  AJM203      0.0503
     14  C3       -25.6890  -25.5550   13.6030 C.3   203  AJM203      0.0626
     15  N2       -25.5520  -27.0120   14.0860 N.3   203  AJM203     -0.2493
     16  C17      -25.8550  -27.0010   15.5550 C.3   203  AJM203      0.2126
     17  O2       -24.8470  -26.2850   16.2580 O.3   203  AJM203     -0.2050
     18  C2       -26.5680  -27.8960   13.3740 C.3   203  AJM203      0.0780
     19  C12      -28.0080  -27.6110   13.9200 C.3   203  AJM203      0.0180
     20  C1       -26.7090  -27.7000   11.8770 C.3   203  AJM203      0.0935
     21  N1       -25.7880  -28.3930   10.9620 N.pl3 203  AJM203     -0.3059
     22  C18      -26.3470  -29.7370   10.6960 C.3   203  AJM203      0.1122
@<TRIPOS>BOND
     1     8     7   ar
     2     8    10   ar
     3     7     6   ar
     4    10     9   ar
     5     6     5   ar
     6     9     5   ar
     7     9    21    1
     8     5     3    1
     9    22    21    1
    10    21    20    1
    11     1     2    1
    12     3    20    1
    13     3     2    1
    14     3     4    1
    15    20    18    1
    16     2    11    1
    17     4    14    1
    18    18    19    1
    19    18    15    1
    20    11    14    1
    21    11    12    1
    22    14    15    1
    23    19    12    1
    24    15    16    1
    25    12    13    1
    26    16    13    1
    27    16    17    1
