@<TRIPOS>MOLECULE
3cbl_STU_A_1.pdb
 35 42 0 0 0
SMALL
GASTEIGER

@<TRIPOS>ATOM
      1  O4        22.4530   22.4420   22.4690 O.3   901  STU901     -0.3186
      2  C25       22.4990   23.8970   22.4700 C.3   901  STU901      0.2078
      3  C24       22.2690   24.4890   23.8930 C.3   901  STU901      0.0739
      4  C23       21.9110   23.3740   24.8940 C.3   901  STU901      0.1086
      5  C22       20.7930   22.5320   24.2530 C.3   901  STU901      0.1761
      6  C21       21.3540   21.7270   23.0400 C.3   901  STU901      0.1915
      7  C26       21.9240   20.3940   23.5530 C.3   901  STU901      0.0566
      8  N2        20.2580   21.6390   21.9990 N.ar  901  STU901     -0.3054
      9  C18       19.9670   22.6180   21.1170 C.ar  901  STU901      0.0774
     10  C19       20.6200   23.8420   20.8400 C.ar  901  STU901      0.0783
     11  C6        20.1520   24.7000   19.8500 C.ar  901  STU901      0.0293
     12  C7        19.0660   24.3120   19.0720 C.ar  901  STU901      0.0822
     13  C10       18.4410   23.0750   19.3250 C.ar  901  STU901      0.0154
     14  C11       18.8690   22.2250   20.3410 C.ar  901  STU901      0.0173
     15  C12       18.4400   21.0200   20.8430 C.ar  901  STU901      0.0171
     16  C17       19.2950   20.6880   21.9100 C.ar  901  STU901      0.0617
     17  C16       19.1120   19.4370   22.5320 C.ar  901  STU901      0.0172
     18  C15       18.0580   18.6040   22.1830 C.ar  901  STU901      0.0015
     19  C14       17.1860   18.9800   21.1390 C.ar  901  STU901      0.0001
     20  C13       17.3950   20.1790   20.4590 C.ar  901  STU901      0.0015
     21  C9        17.2350   22.9360   18.4120 C.3   901  STU901      0.1650
     22  N1        17.2980   24.1930   17.7030 N.2   901  STU901     -0.1976
     23  C8        18.3470   24.9360   18.0340 C.1   901  STU901      0.1501
     24  O5        18.6180   26.0360   17.5050 O.2   901  STU901     -0.2222
     25  C5        21.0310   25.8080   19.8420 C.ar  901  STU901      0.0180
     26  C20       21.9820   25.5840   20.8330 C.ar  901  STU901      0.0618
     27  C1        22.9860   26.5270   21.0900 C.ar  901  STU901      0.0172
     28  C2        23.0880   27.7050   20.3330 C.ar  901  STU901      0.0015
     29  C3        22.1380   27.9450   19.3330 C.ar  901  STU901      0.0001
     30  C4        21.1230   26.9850   19.0930 C.ar  901  STU901      0.0015
     31  N3        21.7100   24.4110   21.4130 N.ar  901  STU901     -0.3039
     32  O6        19.7980   23.5420   23.9440 O.3   901  STU901     -0.3478
     33  C27       18.4280   23.0910   24.1720 C.3   901  STU901      0.1743
     34  N4        21.4670   23.8840   26.2150 N.3   901  STU901     -0.2152
     35  C28       22.4380   24.5430   27.1070 C.3   901  STU901      0.1075
@<TRIPOS>BOND
     1    24    23    2
     2    22    23    2
     3    22    21    1
     4    23    12    1
     5    21    13    1
     6    12    13   ar
     7    12    11   ar
     8    30    29   ar
     9    30    25   ar
    10    13    14   ar
    11    29    28   ar
    12    25    11   ar
    13    25    26   ar
    14    11    10   ar
    15    28    27   ar
    16    14    15   ar
    17    14     9   ar
    18    20    15   ar
    19    20    19   ar
    20    26    27   ar
    21    26    31   ar
    22    10     9   ar
    23    10    31   ar
    24    15    16   ar
    25     9     8   ar
    26    19    18   ar
    27    31     2    1
    28    16     8   ar
    29    16    17   ar
    30     8     6    1
    31    18    17   ar
    32     1     2    1
    33     1     6    1
    34     2     3    1
    35     6     7    1
    36     6     5    1
    37     3     4    1
    38    32    33    1
    39    32     5    1
    40     5     4    1
    41     4    34    1
    42    34    35    1
