@<TRIPOS>MOLECULE
3cbl_III_B_1.pdb
 47 47 0 0 0
SMALL
GASTEIGER

@<TRIPOS>ATOM
      1  C         24.3380   18.3760   38.6180 C.2     0  ACE0        0.2423
      2  O         23.7270   18.0460   39.6210 O.2     0  ACE0       -0.2733
      3  CH3       25.8400   18.1710   38.5410 C.3     0  ACE0        0.0964
      4  N         23.7300   18.9190   37.5280 N.am    1  ILE1       -0.1978
      5  CA        22.2590   19.1720   37.4380 C.3     1  ILE1        0.1726
      6  C         21.4460   17.9040   37.3880 C.2     1  ILE1        0.2616
      7  O         20.3660   17.8120   38.0070 O.2     1  ILE1       -0.2715
      8  CB        21.9950   19.9380   36.1460 C.3     1  ILE1        0.0290
      9  CG1       22.4910   21.3770   36.3050 C.3     1  ILE1        0.0022
     10  CG2       20.4920   19.9090   35.8140 C.3     1  ILE1        0.0023
     11  CD1       22.8040   22.0650   35.0010 C.3     1  ILE1        0.0001
     12  N         21.9340   16.9360   36.6350 N.am    2  TYR2       -0.1960
     13  CA        21.2080   15.6850   36.4440 C.3     2  TYR2        0.1771
     14  C         21.8110   14.5940   37.3170 C.2     2  TYR2        0.2619
     15  O         23.0320   14.5130   37.4310 O.2     2  TYR2       -0.2715
     16  CB        21.2420   15.2640   34.9930 C.3     2  TYR2        0.0574
     17  CG        20.4920   16.1990   34.0340 C.ar    2  TYR2       -0.0198
     18  CD1       21.1600   17.2450   33.4410 C.ar    2  TYR2       -0.0009
     19  CD2       19.1400   16.0270   33.7360 C.ar    2  TYR2       -0.0009
     20  CE1       20.5310   18.1170   32.5630 C.ar    2  TYR2        0.0417
     21  CE2       18.4850   16.9030   32.8310 C.ar    2  TYR2        0.0417
     22  CZ        19.2050   17.9460   32.2700 C.ar    2  TYR2        0.1957
     23  OH        18.6460   18.8370   31.3670 O.3     2  TYR2       -0.2866
     24  N         20.9380   13.8040   37.9250 N.am    3  GLU3       -0.1963
     25  CA        21.3130   12.6500   38.7530 C.3     3  GLU3        0.1733
     26  C         20.6680   11.4160   38.1730 C.2     3  GLU3        0.2617
     27  O         19.4870   11.4470   37.8630 O.2     3  GLU3       -0.2715
     28  CB        20.7790   12.8360   40.1700 C.3     3  GLU3        0.0429
     29  CG        21.6040   12.0900   41.2190 C.3     3  GLU3        0.1163
     30  CD        21.8080   12.9030   42.4700 C.2     3  GLU3        0.3649
     31  OE1       21.4100   12.4200   43.5570 O.co2   3  GLU3       -0.2457
     32  OE2       22.3460   14.0310   42.3580 O.co2   3  GLU3       -0.2457
     33  N         21.4210   10.3120   38.0120 N.am    4  SER4       -0.1936
     34  CA        20.8120    9.0460   37.6170 C.3     4  SER4        0.2055
     35  C         20.2250    8.3790   38.8680 C.2     4  SER4        0.2644
     36  O         20.9500    8.1230   39.8440 O.2     4  SER4       -0.2714
     37  CB        21.8200    8.1000   36.9450 C.3     4  SER4        0.2130
     38  OG        22.4250    8.7330   35.8320 O.3     4  SER4       -0.2179
     39  N         18.9240    8.1320   38.8390 N.am    5  LEU5       -0.1941
     40  CA        18.1550    7.6650   40.0150 C.3     5  LEU5        0.1978
     41  C         17.2760    6.4630   39.7030 C.2     5  LEU5        0.3842
     42  O         16.7000    6.4030   38.6030 O.co2   5  LEU5       -0.2437
     43  CB        17.2560    8.7780   40.5390 C.3     5  LEU5        0.0333
     44  CG        17.9520   10.0250   41.0480 C.3     5  LEU5        0.0023
     45  CD1       16.8960   11.0680   41.4410 C.3     5  LEU5        0.0001
     46  CD2       18.8610    9.6740   42.2160 C.3     5  LEU5        0.0001
     47  OXT       17.0650    5.5650   40.5670 O.co2   5  LEU5       -0.2437
@<TRIPOS>BOND
     1    23    22    1
     2    22    20   ar
     3    22    21   ar
     4    20    18   ar
     5    21    19   ar
     6    18    17   ar
     7    19    17   ar
     8    17    16    1
     9    16    13    1
    10    11     9    1
    11    10     8    1
    12    38    37    1
    13     8     9    1
    14     8     5    1
    15    13    12    1
    16    13    14    1
    17    12     6   am
    18    37    34    1
    19    14    15    2
    20    14    24   am
    21     6     5    1
    22     6     7    2
    23     5     4    1
    24     4     1   am
    25    34    33    1
    26    34    35    1
    27    27    26    2
    28    24    25    1
    29    33    26   am
    30    26    25    1
    31     3     1    1
    32    42    41   ar
    33     1     2    2
    34    25    28    1
    35    39    35   am
    36    39    40    1
    37    35    36    2
    38    41    40    1
    39    41    47   ar
    40    40    43    1
    41    28    29    1
    42    43    44    1
    43    44    45    1
    44    44    46    1
    45    29    30    1
    46    32    30   ar
    47    30    31   ar
