@<TRIPOS>MOLECULE
3cbm_SAH_A_1.pdb
 26 28 0 0 0
SMALL
GASTEIGER

@<TRIPOS>ATOM
      1  N         12.3160    3.5070   10.3940 N.3     1  SAH1       -0.1208
      2  CA        12.8660    4.0880   11.6910 C.3     1  SAH1        0.1952
      3  CB        14.2520    3.6990   12.1040 C.3     1  SAH1        0.0422
      4  CG        14.5220    2.2530   12.4320 C.3     1  SAH1        0.0597
      5  SD        13.9310    2.2520   14.1660 S.3     1  SAH1       -0.1375
      6  C         12.7480    5.6520   11.5650 C.2     1  SAH1        0.3819
      7  O         12.2600    6.1760   10.5480 O.co2   1  SAH1       -0.2441
      8  OXT       13.1680    6.2900   12.6050 O.co2   1  SAH1       -0.2441
      9  C5'       12.8380    0.8780   14.2160 C.3     1  SAH1        0.0899
     10  C4'       11.3730    1.1790   13.6930 C.3     1  SAH1        0.1630
     11  O4'       11.4030    1.2320   12.2660 O.3     1  SAH1       -0.3153
     12  C3'       10.3270    0.1590   14.0030 C.3     1  SAH1        0.2168
     13  O3'        9.6620    0.4960   15.2090 O.3     1  SAH1       -0.2175
     14  C2'        9.4070    0.1960   12.7270 C.3     1  SAH1        0.2569
     15  O2'        8.4130    1.2140   12.8210 O.3     1  SAH1       -0.2130
     16  C1'       10.3770    0.4330   11.5660 C.3     1  SAH1        0.3185
     17  N9        10.9130   -0.6430   10.9690 N.pl3   1  SAH1       -0.1439
     18  C8        12.1670   -1.2340   10.9870 C.3     1  SAH1        0.3377
     19  N7        12.3190   -2.2730   10.2380 N.2     1  SAH1       -0.2095
     20  C5        11.0380   -2.4360    9.6360 C.2     1  SAH1        0.2526
     21  C6        10.5440   -3.4070    8.6930 C.2     1  SAH1        0.4393
     22  N6        11.3000   -4.3940    8.1960 N.pl3   1  SAH1        0.2180
     23  N1         9.2240   -3.2660    8.3330 N.2     1  SAH1        0.0021
     24  C2         8.4130   -2.2730    8.8070 C.3     1  SAH1        0.5254
     25  N3         8.8560   -1.3200    9.6990 N.2     1  SAH1       -0.0055
     26  C4        10.1700   -1.4610   10.0710 C.2     1  SAH1        0.3518
@<TRIPOS>BOND
     1    22    21    1
     2    23    21    2
     3    23    24    1
     4    21    20    1
     5    24    25    1
     6    20    26    1
     7    20    19    2
     8    25    26    2
     9    26    17    1
    10    19    18    1
    11     1     2    1
    12     7     6   ar
    13    17    18    1
    14    17    16    1
    15     6     2    1
    16     6     8   ar
    17    16    11    1
    18    16    14    1
    19     2     3    1
    20     3     4    1
    21    11    10    1
    22     4     5    1
    23    14    15    1
    24    14    12    1
    25    10    12    1
    26    10     9    1
    27    12    13    1
    28     5     9    1
