@<TRIPOS>MOLECULE
3cbo_SAH_A_1.pdb
 26 28 0 0 0
SMALL
GASTEIGER

@<TRIPOS>ATOM
      1  N         11.9650    3.1200   10.2120 N.3     1  SAH1       -0.1208
      2  CA        12.5560    3.7760   11.4620 C.3     1  SAH1        0.1952
      3  CB        13.9530    3.4240   11.8620 C.3     1  SAH1        0.0422
      4  CG        14.2640    1.9970   12.2370 C.3     1  SAH1        0.0597
      5  SD        13.6830    2.0130   13.9840 S.3     1  SAH1       -0.1375
      6  C         12.4140    5.3330   11.2700 C.2     1  SAH1        0.3819
      7  O         11.8740    5.8060   10.2540 O.co2   1  SAH1       -0.2441
      8  OXT       12.8790    6.0280   12.2500 O.co2   1  SAH1       -0.2441
      9  C5'       12.6420    0.6160   14.0880 C.3     1  SAH1        0.0899
     10  C4'       11.1810    0.9280   13.5730 C.3     1  SAH1        0.1630
     11  O4'       11.1720    0.9370   12.1460 O.3     1  SAH1       -0.3153
     12  C3'       10.1450   -0.0650   13.9660 C.3     1  SAH1        0.2168
     13  O3'        9.5300    0.3530   15.1790 O.3     1  SAH1       -0.2175
     14  C2'        9.1970   -0.0980   12.7070 C.3     1  SAH1        0.2569
     15  O2'        8.1860    0.9010   12.8030 O.3     1  SAH1       -0.2130
     16  C1'       10.1290    0.1170   11.5000 C.3     1  SAH1        0.3185
     17  N9        10.6660   -0.9660   10.9230 N.pl3   1  SAH1       -0.1439
     18  C8        11.9130   -1.5690   10.9560 C.3     1  SAH1        0.3377
     19  N7        12.0500   -2.6290   10.2220 N.2     1  SAH1       -0.2095
     20  C5        10.7730   -2.7830    9.6170 C.2     1  SAH1        0.2526
     21  C6        10.2620   -3.7610    8.6880 C.2     1  SAH1        0.4393
     22  N6        10.9930   -4.7750    8.2100 N.pl3   1  SAH1        0.2180
     23  N1         8.9450   -3.5930    8.3180 N.2     1  SAH1        0.0021
     24  C2         8.1560   -2.5760    8.7700 C.3     1  SAH1        0.5254
     25  N3         8.6170   -1.6250    9.6490 N.2     1  SAH1       -0.0055
     26  C4         9.9220   -1.7870   10.0300 C.2     1  SAH1        0.3518
@<TRIPOS>BOND
     1    22    21    1
     2    23    21    2
     3    23    24    1
     4    21    20    1
     5    24    25    1
     6    20    26    1
     7    20    19    2
     8    25    26    2
     9    26    17    1
    10     1     2    1
    11    19    18    1
    12     7     6   ar
    13    17    18    1
    14    17    16    1
    15     6     2    1
    16     6     8   ar
    17     2     3    1
    18    16    11    1
    19    16    14    1
    20     3     4    1
    21    11    10    1
    22     4     5    1
    23    14    15    1
    24    14    12    1
    25    10    12    1
    26    10     9    1
    27    12    13    1
    28     5     9    1
