@<TRIPOS>MOLECULE
3cbo_III_B_1.pdb
 37 36 0 0 0
SMALL
GASTEIGER

@<TRIPOS>ATOM
      1  N         14.3090   -8.2880   27.0130 N.3   299  LYS299     -0.1231
      2  CA        13.5500   -9.0830   26.0470 C.3   299  LYS299      0.1694
      3  C         12.8320   -8.1910   25.0420 C.2   299  LYS299      0.2592
      4  O         12.4130   -8.6490   23.9730 O.2   299  LYS299     -0.2718
      5  CB        12.5550   -9.9760   26.7710 C.3   299  LYS299      0.0304
      6  N         12.6830   -6.9130   25.3770 N.am  300  ARG300     -0.1966
      7  CA        12.0220   -5.9680   24.4850 C.3   300  ARG300      0.1729
      8  C         13.0370   -5.0030   23.8880 C.2   300  ARG300      0.2617
      9  O         12.8160   -3.7920   23.8290 O.2   300  ARG300     -0.2715
     10  CB        10.9260   -5.2050   25.2330 C.3   300  ARG300      0.0348
     11  CG         9.8210   -6.1180   25.7410 C.3   300  ARG300      0.0492
     12  CD         8.6090   -5.3520   26.2350 C.3   300  ARG300      0.2205
     13  NE         7.5520   -6.2690   26.6550 N.pl3 300  ARG300     -0.0865
     14  CZ         6.3650   -5.8900   27.1150 C.cat 300  ARG300      0.5346
     15  NH1        6.0700   -4.6030   27.2190 N.pl3 300  ARG300      0.1354
     16  NH2        5.4710   -6.8020   27.4730 N.pl3 300  ARG300      0.1354
     17  N         14.1570   -5.5640   23.4480 N.am  301  SER301     -0.1936
     18  CA        15.2280   -4.7930   22.8370 C.3   301  SER301      0.2055
     19  C         15.9120   -5.6700   21.7980 C.2   301  SER301      0.2643
     20  O         15.8560   -6.8960   21.8780 O.2   301  SER301     -0.2714
     21  CB        16.2370   -4.3540   23.8990 C.3   301  SER301      0.2130
     22  OG        16.7740   -5.4720   24.5820 O.3   301  SER301     -0.2179
     23  N         16.5480   -5.0400   20.8180 N.am  302  LYS302     -0.1963
     24  CA        17.2410   -5.7760   19.7670 C.3   302  LYS302      0.1728
     25  CB        17.7700   -4.8010   18.7180 C.3   302  LYS302      0.0311
     26  CG        16.7080   -3.8710   18.1550 C.3   302  LYS302      0.0038
     27  CD        17.3500   -2.7420   17.3770 C.3   302  LYS302      0.0189
     28  CE        16.3130   -1.7910   16.8210 C.3   302  LYS302      0.0888
     29  NZ        16.9420   -0.7150   16.0650 N.3   302  LYS302     -0.2165
     30  CM        15.9370    0.2700   15.5930 C.3   302  LYS302      0.1075
     31  C         18.3990   -6.5580   20.3780 C.2   302  LYS302      0.2616
     32  O         19.0340   -6.0970   21.3270 O.2   302  LYS302     -0.2715
     33  N         18.6660   -7.7420   19.8350 N.am  303  LYS303     -0.1977
     34  CA        19.7510   -8.5800   20.3250 C.3   303  LYS303      0.1597
     35  C         20.5810   -9.1360   19.1760 C.2   303  LYS303      0.2287
     36  O         20.2060   -8.8910   18.0080 O.2   303  LYS303     -0.2864
     37  CB        19.1960   -9.7150   21.1740 C.3   303  LYS303      0.0319
@<TRIPOS>BOND
     1    30    29    1
     2    29    28    1
     3    28    27    1
     4    27    26    1
     5    36    35    2
     6    26    25    1
     7    25    24    1
     8    35    34    1
     9    24    31    1
    10    24    23    1
    11    33    34    1
    12    33    31   am
    13    34    37    1
    14    31    32    2
    15    23    19   am
    16    19    20    2
    17    19    18    1
    18    18    17    1
    19    18    21    1
    20    17     8   am
    21     9     8    2
    22     8     7    1
    23    21    22    1
    24     4     3    2
    25     7    10    1
    26     7     6    1
    27     3     6   am
    28     3     2    1
    29    10    11    1
    30    11    12    1
    31     2     5    1
    32     2     1    1
    33    12    13    1
    34    13    14    2
    35    14    15    1
    36    14    16    1
