@<TRIPOS>MOLECULE
3cbp_III_B_1.pdb
 31 30 0 0 0
SMALL
GASTEIGER

@<TRIPOS>ATOM
      1  N         14.8440   -8.3920   26.8360 N.3   299  LYS299     -0.1231
      2  CA        13.7840   -9.1530   26.1120 C.3   299  LYS299      0.1694
      3  C         13.0630   -8.2680   25.1000 C.2   299  LYS299      0.2592
      4  O         12.5220   -8.7600   24.1100 O.2   299  LYS299     -0.2718
      5  CB        12.7810   -9.7290   27.1090 C.3   299  LYS299      0.0304
      6  N         13.0560   -6.9620   25.3530 N.am  300  ARG300     -0.1966
      7  CA        12.4000   -6.0150   24.4590 C.3   300  ARG300      0.1729
      8  C         13.4060   -5.0380   23.8690 C.2   300  ARG300      0.2617
      9  O         13.2480   -3.8180   23.9520 O.2   300  ARG300     -0.2715
     10  CB        11.2990   -5.2610   25.2040 C.3   300  ARG300      0.0348
     11  CG        10.2330   -6.1860   25.7520 C.3   300  ARG300      0.0492
     12  CD         8.9690   -5.4450   26.1290 C.3   300  ARG300      0.2205
     13  NE         7.8970   -6.3790   26.4590 N.pl3 300  ARG300     -0.0865
     14  CZ         6.6400   -6.0220   26.6970 C.cat 300  ARG300      0.5346
     15  NH1        6.2880   -4.7450   26.6440 N.pl3 300  ARG300      0.1354
     16  NH2        5.7310   -6.9450   26.9850 N.pl3 300  ARG300      0.1354
     17  N         14.4460   -5.5980   23.2690 N.am  301  SER301     -0.1936
     18  CA        15.5000   -4.8150   22.6530 C.3   301  SER301      0.2055
     19  C         16.2120   -5.7140   21.6570 C.2   301  SER301      0.2642
     20  O         16.2440   -6.9370   21.8230 O.2   301  SER301     -0.2714
     21  CB        16.4810   -4.3180   23.7190 C.3   301  SER301      0.2130
     22  OG        16.9680   -5.3910   24.5070 O.3   301  SER301     -0.2179
     23  N         16.7710   -5.1130   20.6150 N.am  302  LYS302     -0.1977
     24  CA        17.4720   -5.8870   19.6040 C.3   302  LYS302      0.1596
     25  C         18.6130   -6.6430   20.2800 C.2   302  LYS302      0.2287
     26  O         19.0650   -6.1780   21.3500 O.2   302  LYS302     -0.2864
     27  CB        17.9930   -4.9420   18.5220 C.3   302  LYS302      0.0298
     28  CG        16.9020   -3.9950   18.0340 C.3   302  LYS302      0.0038
     29  CD        17.4320   -2.8120   17.2540 C.3   302  LYS302      0.0206
     30  CE        16.3200   -1.7830   17.0720 C.3   302  LYS302      0.1093
     31  NZ        16.7410   -0.5870   16.2860 N.3   302  LYS302     -0.1314
@<TRIPOS>BOND
     1    31    30    1
     2    30    29    1
     3    29    28    1
     4    28    27    1
     5    27    24    1
     6    24    25    1
     7    24    23    1
     8    25    26    2
     9    23    19   am
    10    19    20    2
    11    19    18    1
    12    18    17    1
    13    18    21    1
    14    17     8   am
    15    21    22    1
    16     8     9    2
    17     8     7    1
    18     4     3    2
    19     7    10    1
    20     7     6    1
    21     3     6   am
    22     3     2    1
    23    10    11    1
    24    11    12    1
    25     2     1    1
    26     2     5    1
    27    12    13    1
    28    13    14    2
    29    15    14    1
    30    14    16    1
