@<TRIPOS>MOLECULE
3cbp_SFG_A_1.pdb
 27 29 0 0 0
SMALL
GASTEIGER

@<TRIPOS>ATOM
      1  N         12.3570    3.3160   10.4580 N.3   1501  SFG1501    -0.1208
      2  CA        12.9460    3.9590   11.6420 C.3   1501  SFG1501     0.1944
      3  C         12.7940    5.4900   11.6720 C.2   1501  SFG1501     0.3819
      4  O         12.1760    6.0380   10.7230 O.co2 1501  SFG1501    -0.2441
      5  OXT       13.2370    6.1120   12.6700 O.co2 1501  SFG1501    -0.2441
      6  CB        14.3940    3.4480   11.9670 C.3   1501  SFG1501     0.0321
      7  CG        14.2410    1.9850   12.5030 C.3   1501  SFG1501     0.0212
      8  CD        13.8640    1.9000   14.0030 C.3   1501  SFG1501     0.0944
      9  NE        15.0370    1.5680   14.8780 N.3   1501  SFG1501    -0.1328
     10  C5'       12.9270    0.6890   14.1460 C.3   1501  SFG1501     0.0514
     11  C4'       11.4730    1.0390   13.7060 C.3   1501  SFG1501     0.1537
     12  O4'       11.3750    1.0900   12.2760 O.3   1501  SFG1501    -0.3161
     13  C3'       10.3500    0.0840   14.1560 C.3   1501  SFG1501     0.2159
     14  O3'        9.8220    0.5000   15.4040 O.3   1501  SFG1501    -0.2175
     15  C2'        9.3920    0.1270   12.9660 C.3   1501  SFG1501     0.2569
     16  O2'        8.4770    1.2400   13.0310 O.3   1501  SFG1501    -0.2130
     17  C1'       10.3000    0.3080   11.7410 C.3   1501  SFG1501     0.3185
     18  N9        10.8740   -0.8740   11.0440 N.pl3 1501  SFG1501    -0.1439
     19  C8        12.1130   -1.4550   11.0400 C.3   1501  SFG1501     0.3377
     20  N7        12.2850   -2.5030   10.2220 N.2   1501  SFG1501    -0.2095
     21  C5        11.0340   -2.6530    9.6380 C.2   1501  SFG1501     0.2526
     22  C6        10.4370   -3.5210    8.7010 C.2   1501  SFG1501     0.4393
     23  N6        11.1860   -4.5100    8.1500 N.pl3 1501  SFG1501     0.2180
     24  N1         9.1000   -3.3890    8.3390 N.2   1501  SFG1501     0.0021
     25  C2         8.3070   -2.3970    8.8650 C.3   1501  SFG1501     0.5254
     26  N3         8.8290   -1.5060    9.7690 N.2   1501  SFG1501    -0.0055
     27  C4        10.1560   -1.6470   10.1450 C.2   1501  SFG1501     0.3518
@<TRIPOS>BOND
     1    23    22    1
     2    24    22    2
     3    24    25    1
     4    22    21    1
     5    25    26    1
     6    21    27    1
     7    21    20    2
     8    26    27    2
     9    27    18    1
    10    20    19    1
    11     1     2    1
    12     4     3   ar
    13    19    18    1
    14    18    17    1
    15     2     3    1
    16     2     6    1
    17     3     5   ar
    18    17    12    1
    19    17    15    1
    20     6     7    1
    21    12    11    1
    22     7     8    1
    23    15    16    1
    24    15    13    1
    25    11    10    1
    26    11    13    1
    27     8    10    1
    28     8     9    1
    29    13    14    1
