@<TRIPOS>MOLECULE
3cbq_GDP_A_1.pdb
 28 30 0 0 0
SMALL
GASTEIGER

@<TRIPOS>ATOM
      1  PB        11.0710   26.1180    0.7850 P.3   302  GDP302      0.5373
      2  O1B       10.5790   26.0660    2.2150 O.3   302  GDP302     -0.1143
      3  O2B       12.2850   26.9960    0.7820 O.3   302  GDP302     -0.1143
      4  O3B       11.3510   24.8010    0.1030 O.2   302  GDP302     -0.2221
      5  O3A        9.9460   26.8550   -0.1340 O.3   302  GDP302     -0.2261
      6  PA         8.6530   27.6770    0.3460 P.3   302  GDP302      0.2231
      7  O1A        9.0200   28.7780    1.3010 O.3   302  GDP302     -0.4370
      8  O2A        7.5840   26.7320    0.8800 O.2   302  GDP302     -0.5169
      9  O5'        8.1620   28.1590   -1.0630 O.3   302  GDP302     -0.3111
     10  C5'        8.9020   29.1550   -1.7650 C.3   302  GDP302      0.1813
     11  C4'        7.9310   30.0470   -2.5060 C.3   302  GDP302      0.1799
     12  O4'        7.2530   29.2190   -3.4480 O.3   302  GDP302     -0.3326
     13  C3'        6.8800   30.6810   -1.6050 C.3   302  GDP302      0.2158
     14  O3'        6.5750   32.0110   -2.0730 O.3   302  GDP302     -0.2175
     15  C2'        5.6680   29.8080   -1.7850 C.3   302  GDP302      0.2310
     16  O2'        4.4300   30.4920   -1.6010 O.3   302  GDP302     -0.2158
     17  C1'        5.8420   29.3630   -3.2130 C.3   302  GDP302      0.2293
     18  N9         5.2450   28.0600   -3.4570 N.pl3 302  GDP302     -0.2354
     19  C8         5.4770   26.9540   -2.7240 C.3   302  GDP302      0.2246
     20  N7         4.8110   25.9140   -3.2450 N.2   302  GDP302     -0.2322
     21  C5         4.1460   26.3580   -4.3330 C.2   302  GDP302      0.2182
     22  C6         3.2450   25.7790   -5.3370 C.1   302  GDP302      0.2372
     23  O6         2.9040   24.5880   -5.3140 O.2   302  GDP302     -0.2069
     24  N1         2.7730   26.5750   -6.2960 N.2   302  GDP302     -0.2485
     25  C2         3.1010   27.8790   -6.3870 C.1   302  GDP302      0.2531
     26  N2         2.5970   28.6220   -7.3910 N.pl3 302  GDP302     -0.0226
     27  N3         3.9220   28.4750   -5.5040 N.2   302  GDP302     -0.3074
     28  C4         4.4520   27.7780   -4.4790 C.2   302  GDP302      0.2300
@<TRIPOS>BOND
     1    26    25    1
     2    25    24    2
     3    25    27    2
     4    24    22    2
     5    27    28    2
     6    22    23    2
     7    22    21    1
     8    28    21    1
     9    28    18    1
    10    21    20    2
    11    18    17    1
    12    18    19    1
    13    12    17    1
    14    12    11    1
    15    20    19    1
    16    17    15    1
    17    11    10    1
    18    11    13    1
    19    14    13    1
    20    15    13    1
    21    15    16    1
    22    10     9    1
    23     9     6    1
    24     5     6    1
    25     5     1    1
    26     4     1    2
    27     6     8    2
    28     6     7    1
    29     3     1    1
    30     1     2    1
