@<TRIPOS>MOLECULE
3cbs_R12_A_1.pdb
 22 22 0 0 0
SMALL
GASTEIGER

@<TRIPOS>ATOM
      1  C1        15.5890   -7.1790   23.5720 C.ar  200  R12200      0.1951
      2  C2        15.4840   -5.8180   23.4830 C.ar  200  R12200      0.0378
      3  C3        16.5070   -5.0470   22.9230 C.ar  200  R12200     -0.0190
      4  C4        17.6720   -5.7000   22.4500 C.ar  200  R12200     -0.0077
      5  C5        17.7860   -7.1090   22.5390 C.ar  200  R12200     -0.0190
      6  C6        16.7270   -7.8640   23.1130 C.ar  200  R12200      0.0378
      7  C7        18.7790   -4.9130   21.8530 C.2   200  R12200     -0.0009
      8  C8        18.6960   -4.0740   20.8240 C.2   200  R12200     -0.0043
      9  C9        19.7380   -3.2840   20.2720 C.2   200  R12200     -0.0218
     10  C10       19.3800   -2.3710   19.3620 C.2   200  R12200     -0.0043
     11  C11       20.2460   -1.5690   18.5690 C.2   200  R12200     -0.0006
     12  C12       19.7930   -0.6850   17.6860 C.2   200  R12200     -0.0041
     13  C13       20.5770    0.1430   16.8490 C.2   200  R12200     -0.0153
     14  C14       19.9240    1.0370   15.9520 C.2   200  R12200      0.0819
     15  C15       20.4470    1.9820   14.9870 C.2   200  R12200      0.3876
     16  C18       22.0680    0.0670   16.9040 C.3   200  R12200      0.0312
     17  C19       21.1720   -3.4860   20.7020 C.3   200  R12200      0.0310
     18  C20       19.0290   -7.8050   22.0300 C.3   200  R12200      0.0311
     19  C23       16.3180   -3.5520   22.8600 C.3   200  R12200      0.0311
     20  O1        14.6070   -7.9540   24.1150 O.3   200  R12200     -0.2866
     21  O2        19.9370    2.1350   13.9050 O.co2 200  R12200     -0.2406
     22  O3        21.5170    2.6500   15.3770 O.co2 200  R12200     -0.2406
@<TRIPOS>BOND
     1    21    15   ar
     2    15    22   ar
     3    15    14    1
     4    14    13    2
     5    13    16    1
     6    13    12    1
     7    12    11    2
     8    11    10    1
     9    10     9    2
    10     9    17    1
    11     9     8    1
    12     8     7    2
    13     7     4    1
    14    18     5    1
    15     4     5   ar
    16     4     3   ar
    17     5     6   ar
    18    19     3    1
    19     3     2   ar
    20     6     1   ar
    21     2     1   ar
    22     1    20    1
