@<TRIPOS>MOLECULE
3cc9_GRG_A_1.pdb
 29 28 0 0 0
SMALL
GASTEIGER

@<TRIPOS>ATOM
      1  C20      -22.9300   13.1090    9.5580 C.3   501  GRG501      0.0347
      2  C19      -22.8770   10.5750   10.0830 C.3   501  GRG501      0.0347
      3  C18      -22.1440   11.8430    9.7550 C.2   501  GRG501     -0.0096
      4  C17      -20.8760   11.8580    9.5790 C.1   501  GRG501     -0.1140
      5  C16      -19.6680   12.2800    9.3820 C.2   501  GRG501      0.0195
      6  C14      -19.6250   14.2480   11.8430 C.3   501  GRG501      0.0351
      7  C13      -18.9950   12.8900   11.7690 C.2   501  GRG501     -0.0049
      8  C15      -18.5750   12.2980   10.4440 C.3   501  GRG501      0.0640
      9  C12      -18.8060   12.2630   12.8420 C.1   501  GRG501     -0.1137
     10  C11      -18.7660   11.6610   13.9460 C.2   501  GRG501      0.0195
     11  C9       -17.9750   12.2540   15.0910 C.3   501  GRG501      0.0640
     12  C8       -18.6050   11.9140   16.4260 C.2   501  GRG501     -0.0049
     13  C10      -19.7780   12.6940   16.9250 C.3   501  GRG501      0.0351
     14  C7       -18.1590   10.9860   17.1470 C.1   501  GRG501     -0.1137
     15  C6       -17.9140    9.9550   17.8390 C.2   501  GRG501      0.0195
     16  C5       -18.3920    9.9320   19.2720 C.3   501  GRG501      0.0641
     17  C3       -18.8530    8.5570   19.7130 C.2   501  GRG501     -0.0016
     18  C4       -19.1540    7.4770   18.7110 C.3   501  GRG501      0.0352
     19  C2       -18.9910    8.3170   20.9410 C.1   501  GRG501     -0.0697
     20  C1       -19.1100    8.0670   22.1680 C.2   501  GRG501      0.2203
     21  O1       -20.4130    8.1900   22.8040 O.2   501  GRG501     -0.4283
     22  PA       -20.8630    7.1870   23.9670 P.3   501  GRG501      0.2785
     23  O1A      -19.7750    7.2190   25.0180 O.3   501  GRG501     -0.4271
     24  O3A      -20.8300    5.7520   23.2000 O.3   501  GRG501     -0.2159
     25  O2A      -22.2620    7.5170   24.3920 O.2   501  GRG501     -0.5079
     26  PB       -21.9910    4.6170   23.2110 P.3   501  GRG501      0.5380
     27  O1B      -23.0240    5.0240   22.1940 O.2   501  GRG501     -0.2221
     28  O2B      -21.2730    3.3640   22.8050 O.3   501  GRG501     -0.1143
     29  O3B      -22.5070    4.6250   24.6220 O.3   501  GRG501     -0.1143
@<TRIPOS>BOND
     1     5     4    2
     2     5     8    1
     3     1     3    1
     4     4     3    2
     5     3     2    1
     6     8     7    1
     7     7     6    1
     8     7     9    2
     9     9    10    2
    10    10    11    1
    11    11    12    1
    12    12    13    1
    13    12    14    2
    14    14    15    2
    15    15    16    1
    16    18    17    1
    17    16    17    1
    18    17    19    2
    19    19    20    2
    20    20    21    1
    21    27    26    2
    22    21    22    1
    23    28    26    1
    24    24    26    1
    25    24    22    1
    26    26    29    1
    27    22    25    2
    28    22    23    1
