@<TRIPOS>MOLECULE
3ccb_B2Y_A_1.pdb
 14 15 0 0 0
SMALL
GASTEIGER

@<TRIPOS>ATOM
      1  N1        41.6190    3.4230   18.0610 N.3   800  B2Y800     -0.1262
      2  C4        44.1900    1.3830   17.1900 C.ar  800  B2Y800     -0.0028
      3  C5        44.5140    0.0750   16.8530 C.ar  800  B2Y800     -0.0003
      4  C6        43.6580   -0.6500   16.0330 C.ar  800  B2Y800     -0.0000
      5  C7        42.4830   -0.0740   15.5460 C.ar  800  B2Y800     -0.0003
      6  C8        42.1530    1.2480   15.8900 C.ar  800  B2Y800     -0.0026
      7  C10       39.6450    1.3740   15.7200 C.ar  800  B2Y800     -0.0000
      8  C13       39.8530    3.4480   13.8320 C.ar  800  B2Y800     -0.0000
      9  C2        42.7350    3.4040   17.1180 C.3   800  B2Y800      0.1356
     10  C3        43.0260    1.9780   16.7160 C.ar  800  B2Y800     -0.0032
     11  C9        40.9030    1.8440   15.3360 C.ar  800  B2Y800     -0.0003
     12  C11       38.5150    1.9680   15.1550 C.ar  800  B2Y800     -0.0000
     13  C12       38.6090    2.9990   14.2260 C.ar  800  B2Y800     -0.0000
     14  C14       40.9840    2.8710   14.3780 C.ar  800  B2Y800     -0.0000
@<TRIPOS>BOND
     1     8    13   ar
     2     8    14   ar
     3    13    12   ar
     4    14    11   ar
     5    12     7   ar
     6    11     7   ar
     7    11     6    1
     8     5     6   ar
     9     5     4   ar
    10     6    10   ar
    11     4     3   ar
    12    10     9    1
    13    10     2   ar
    14     3     2   ar
    15     9     1    1
