@<TRIPOS>MOLECULE
3ccc_7AC_A_1.pdb
 21 23 0 0 0
SMALL
GASTEIGER

@<TRIPOS>ATOM
      1  C5        -1.0540   -2.6450   20.7050 C.2   800  7AC800      0.0744
      2  C6        -0.3400   -3.5850   19.9570 C.2   800  7AC800      0.0262
      3  C7         0.7260   -4.2680   20.5310 C.2   800  7AC800      0.0692
      4  C8         1.4770   -5.2410   19.7760 C.1   800  7AC800      0.1004
      5  C10        1.0700   -4.0240   21.8730 C.2   800  7AC800      0.0056
      6  C13        3.4610   -6.6190   23.2090 C.ar  800  7AC800      0.0001
      7  C15        4.6480   -4.5840   22.7660 C.ar  800  7AC800      0.0114
      8  C21       -0.6940   -2.3870   22.0520 C.3   800  7AC800      0.1195
      9  C1        -1.6740   -0.7930   23.8110 C.3   800  7AC800      0.0918
     10  N2        -1.5960   -1.4130   22.4870 N.3   800  7AC800     -0.2437
     11  C3        -2.4220   -1.1200   21.4430 C.3   800  7AC800      0.2011
     12  N4        -2.1140   -1.8440   20.4060 N.2   800  7AC800     -0.2549
     13  N9         2.0880   -6.0180   19.2040 N.1   800  7AC800     -0.1908
     14  C11        2.2560   -4.7400   22.3780 C.ar  800  7AC800      0.0107
     15  C12        2.2570   -6.0630   22.7960 C.ar  800  7AC800      0.0008
     16  C14        4.6470   -5.8900   23.2010 C.ar  800  7AC800      0.0009
     17  C16        3.4630   -4.0200   22.3480 C.ar  800  7AC800      0.0576
     18 CL17        3.4820   -2.3680   21.8110 Cl    800  7AC800     -0.0822
     19  C18        0.3800   -3.0860   22.6270 C.2   800  7AC800     -0.0046
     20  C19        0.7980   -2.8280   24.0540 C.3   800  7AC800      0.1331
     21  N20        1.6530   -1.6340   24.0550 N.3   800  7AC800     -0.1265
@<TRIPOS>BOND
     1    13     4    3
     2     4     3    1
     3     2     3    2
     4     2     1    1
     5    12     1    2
     6    12    11    1
     7     3     5    1
     8     1     8    1
     9    11    10    1
    10    18    17    1
    11     5    14    1
    12     5    19    2
    13     8    10    1
    14     8    19    1
    15    17    14   ar
    16    17     7   ar
    17    14    15   ar
    18    10     9    1
    19    19    20    1
    20     7    16   ar
    21    15     6   ar
    22    16     6   ar
    23    20    21    1
