@<TRIPOS>MOLECULE
3ccn_LKG_A_1.pdb
 23 26 0 0 0
SMALL
GASTEIGER

@<TRIPOS>ATOM
      1  N1        19.8940   14.0380   56.7370 N.ar    1  LKG1       -0.1948
      2  N3        20.8490   15.9900   56.4400 N.ar    1  LKG1       -0.1273
      3  C4        17.3070   12.5760   58.6220 C.ar    1  LKG1        0.0194
      4  C5        17.6150   11.2230   58.4810 C.ar    1  LKG1        0.0016
      5  C6        16.7470   10.2460   58.9650 C.ar    1  LKG1        0.0000
      6  C7        18.1810   13.5470   58.1280 C.ar    1  LKG1        0.1015
      7  C8        18.0960   14.8680   58.5830 C.ar    1  LKG1        0.0241
      8  C10       19.8850   15.3840   57.1250 C.ar    1  LKG1        0.1863
      9  C13       22.0550   11.7230   55.9930 C.ar    1  LKG1       -0.0143
     10  C15       24.0510   11.0370   57.1590 C.ar    1  LKG1        0.0417
     11  C17       22.0290    9.7090   57.3190 C.ar    1  LKG1        0.0417
     12  C14       23.3950   11.9410   56.3180 C.ar    1  LKG1       -0.0006
     13  C16       23.3660    9.9290   57.6550 C.ar    1  LKG1        0.1957
     14  O1        24.0000    9.0420   58.4670 O.3     1  LKG1       -0.2866
     15  C18       21.3730   10.6120   56.4840 C.ar    1  LKG1       -0.0006
     16  C12       21.3200   12.6980   55.0700 C.3     1  LKG1        0.0939
     17  C11       20.9240   13.9780   55.8110 C.ar    1  LKG1        0.1681
     18  N2        19.1050   13.2070   57.2030 N.ar    1  LKG1       -0.1626
     19  N4        21.4420   15.1960   55.6920 N.ar    1  LKG1       -0.1312
     20  C9        18.9680   15.8210   58.0750 C.ar    1  LKG1        0.0422
     21  C3        16.1160   12.9460   59.2540 C.ar    1  LKG1        0.0016
     22  C2        15.2430   11.9730   59.7380 C.ar    1  LKG1        0.0000
     23  C1        15.5580   10.6250   59.5960 C.ar    1  LKG1        0.0000
@<TRIPOS>BOND
     1    16    17    1
     2    16     9    1
     3    19    17   ar
     4    19     2   ar
     5    17     1   ar
     6     9    12   ar
     7     9    15   ar
     8    12    10   ar
     9     2     8   ar
    10    15    11   ar
    11     1     8   ar
    12     1    18   ar
    13     8    20   ar
    14    10    13   ar
    15    18     6   ar
    16    11    13   ar
    17    13    14    1
    18    20     7   ar
    19     6     7   ar
    20     6     3    1
    21     4     3   ar
    22     4     5   ar
    23     3    21   ar
    24     5    23   ar
    25    21    22   ar
    26    23    22   ar
