@<TRIPOS>MOLECULE
3ccp_HEM_A_1.pdb
 43 50 0 0 0
SMALL
GASTEIGER

@<TRIPOS>ATOM
      1  CHA       -5.3090   54.0430   22.2240 C.2   296  HEM296      0.0000
      2  CHB       -7.2680   58.2290   23.7850 C.2   296  HEM296      0.0000
      3  CHC       -5.8380   60.2890   19.6140 C.2   296  HEM296      0.0000
      4  CHD       -3.3250   56.3470   18.4680 C.2   296  HEM296      0.0000
      5  C1A       -5.9380   54.9950   22.9850 C.2   296  HEM296      0.0000
      6  C2A       -6.4890   54.7710   24.3030 C.2   296  HEM296      0.0000
      7  C3A       -7.0480   55.9170   24.7150 C.2   296  HEM296      0.0000
      8  C4A       -6.8300   56.9090   23.6730 C.2   296  HEM296      0.0000
      9  CMA       -7.7900   56.2460   26.0340 C.3   296  HEM296      0.0000
     10  CAA       -6.4280   53.3940   25.0150 C.3   296  HEM296      0.0000
     11  CBA       -5.1020   53.1100   25.7760 C.3   296  HEM296      0.0000
     12  CGA       -5.1390   51.8960   26.6700 C.2   296  HEM296      0.0000
     13  O1A       -6.0160   51.7620   27.5650 O.co2 296  HEM296      0.0000
     14  O2A       -4.2260   51.0590   26.4410 O.co2 296  HEM296      0.0000
     15  C1B       -7.1010   59.1140   22.7450 C.ar  296  HEM296      0.0000
     16  C2B       -7.6770   60.4440   22.6850 C.ar  296  HEM296      0.0000
     17  C3B       -7.2620   61.0160   21.5550 C.ar  296  HEM296      0.0000
     18  C4B       -6.4400   60.0610   20.8380 C.ar  296  HEM296      0.0000
     19  CMB       -8.5890   61.0270   23.7920 C.3   296  HEM296      0.0000
     20  CAB       -7.6020   62.4010   20.9940 C.2   296  HEM296      0.0000
     21  CBB       -8.7310   62.9790   21.3980 C.2   296  HEM296      0.0000
     22  C1C       -4.9420   59.4730   18.9730 C.2   296  HEM296      0.0000
     23  C2C       -4.0750   59.8140   17.8810 C.2   296  HEM296      0.0000
     24  C3C       -3.3700   58.7190   17.5940 C.2   296  HEM296      0.0000
     25  C4C       -3.7910   57.6640   18.4910 C.2   296  HEM296      0.0000
     26  CMC       -3.9890   61.2080   17.2330 C.3   296  HEM296      0.0000
     27  CAC       -2.2870   58.5050   16.4920 C.3   296  HEM296      0.0000
     28  CBC       -2.4270   59.3210   15.4350 C.3   296  HEM296      0.0000
     29  C1D       -3.7460   55.3350   19.3170 C.ar  296  HEM296      0.0000
     30  C2D       -3.5090   53.8960   19.1440 C.ar  296  HEM296      0.0000
     31  C3D       -4.0370   53.2920   20.1900 C.ar  296  HEM296      0.0000
     32  C4D       -4.6530   54.2740   21.0420 C.ar  296  HEM296      0.0000
     33  CMD       -2.8100   53.3240   17.9120 C.3   296  HEM296      0.0000
     34  CAD       -4.1050   51.7580   20.4920 C.3   296  HEM296      0.0000
     35  CBD       -2.9800   51.3720   21.4330 C.3   296  HEM296      0.0000
     36  CGD       -2.8970   49.9490   21.9240 C.2   296  HEM296      0.0000
     37  O1D       -2.1310   49.8570   22.9380 O.co2 296  HEM296      0.0000
     38  O2D       -3.5420   49.0550   21.3370 O.co2 296  HEM296      0.0000
     39  NA        -6.1330   56.3270   22.6250 N.2   296  HEM296      0.0000
     40  NB        -6.3690   58.9150   21.5890 N.ar  296  HEM296      0.0000
     41  NC        -4.7380   58.1410   19.3380 N.2   296  HEM296      0.0000
     42  ND        -4.4410   55.5310   20.4850 N.ar  296  HEM296      0.0000
     43 FE         -5.5760   57.1560   20.9240 Fe    296  HEM296      0.0000
@<TRIPOS>BOND
     1    28    27    1
     2    27    24    1
     3    26    23    1
     4    24    23    2
     5    24    25    1
     6    23    22    1
     7    33    30    1
     8     4    25    1
     9     4    29    2
    10    25    41    2
    11    22    41    1
    12    22     3    2
    13    30    29   ar
    14    30    31   ar
    15    29    42   ar
    16    41    43    1
    17     3    18    1
    18    31    34    1
    19    31    32   ar
    20    42    43    1
    21    42    32   ar
    22    34    35    1
    23    18    17   ar
    24    18    40   ar
    25    43    40    1
    26    43    39    1
    27    20    21    2
    28    20    17    1
    29    32     1    2
    30    38    36   ar
    31    35    36    1
    32    17    16   ar
    33    40    15   ar
    34    36    37   ar
    35     1     5    1
    36    39     5    2
    37    39     8    1
    38    16    15   ar
    39    16    19    1
    40    15     2    1
    41     5     6    1
    42     8     2    2
    43     8     7    1
    44     6     7    2
    45     6    10    1
    46     7     9    1
    47    10    11    1
    48    11    12    1
    49    14    12   ar
    50    12    13   ar
