@<TRIPOS>MOLECULE
3cct_3HI_B_1.pdb
 42 45 0 0 0
SMALL
GASTEIGER

@<TRIPOS>ATOM
      1  N1        32.8920   -7.2870  -12.0660 N.ar    1  3HI1       -0.3304
      2  C5        33.0760   -6.0490  -12.5300 C.ar    1  3HI1        0.0597
      3  C6        34.1110   -9.5350  -12.2220 C.3     1  3HI1        0.0385
      4  C7        31.7240   -7.6330  -11.2460 C.3     1  3HI1        0.1083
      5  C8        32.0380   -7.3870   -9.7740 C.3     1  3HI1        0.0574
      6  C10       31.1150   -6.9110   -7.5240 C.3     1  3HI1        0.0664
      7  C13       32.9010  -10.3690  -12.6390 C.3     1  3HI1        0.0062
      8  C15       30.7320   -3.1220  -13.0870 C.ar    1  3HI1        0.0297
      9  C17       38.3560   -8.9490  -15.4550 C.ar    1  3HI1        0.0199
     10  C20       39.5610   -9.1470  -16.1190 C.ar    1  3HI1        0.0015
     11  C21       32.6290   -3.9970  -11.2620 C.ar    1  3HI1        0.0037
     12  C22       36.0060   -2.7410  -13.9460 C.ar    1  3HI1        0.0000
     13  C24       31.9750   -2.7930  -11.0480 C.ar    1  3HI1        0.0297
     14  C26       37.8090   -7.1590  -16.9770 C.ar    1  3HI1        0.2109
     15  C28       35.8300   -2.6200  -15.3180 C.ar    1  3HI1        0.0000
     16  O7        33.3420   -3.2190   -6.7120 O.co2   1  3HI1       -0.2456
     17  C36       32.2940   -3.5660   -6.1270 C.2     1  3HI1        0.3674
     18  O6        31.5610   -2.7490   -5.5180 O.co2   1  3HI1       -0.2456
     19  C35       31.9170   -5.0200   -6.1750 C.3     1  3HI1        0.1469
     20  C11       31.2690   -5.3980   -7.5090 C.3     1  3HI1        0.1658
     21  O3        29.9880   -4.7970   -7.6710 O.3     1  3HI1       -0.2225
     22  C9        30.7920   -7.4770   -8.8950 C.3     1  3HI1        0.1565
     23  O4        30.3900   -8.8290   -8.7220 O.3     1  3HI1       -0.2230
     24  C27       32.3410   -4.7660  -12.3820 C.ar    1  3HI1        0.0159
     25  C30       31.0300   -2.3610  -11.9630 C.ar    1  3HI1        0.1401
     26  F1        30.4070   -1.1990  -11.7500 F       1  3HI1       -0.2042
     27  C18       31.3910   -4.3320  -13.2990 C.ar    1  3HI1        0.0037
     28  C12       33.9170   -8.0850  -12.4920 C.ar    1  3HI1        0.0411
     29  C14       34.5000   -9.7380  -10.7640 C.3     1  3HI1        0.0062
     30  C2        34.8110   -7.3240  -13.2660 C.ar    1  3HI1        0.0684
     31  C1        34.3200   -6.0470  -13.2890 C.ar    1  3HI1        0.0213
     32  C31       34.8630   -4.8510  -13.9820 C.ar    1  3HI1        0.0016
     33  C25       35.5180   -3.8540  -13.2750 C.ar    1  3HI1        0.0000
     34  C19       35.1710   -3.6190  -16.0340 C.ar    1  3HI1        0.0000
     35  C16       34.6740   -4.7300  -15.3560 C.ar    1  3HI1        0.0000
     36  C3        36.0680   -7.8270  -13.8970 C.2     1  3HI1        0.2702
     37  O1        36.8770   -8.4050  -13.1760 O.2     1  3HI1       -0.2680
     38  N2        36.2350   -7.7300  -15.2130 N.am    1  3HI1       -0.1722
     39  C32       37.4700   -7.9510  -15.8710 C.ar    1  3HI1        0.1125
     40  O2        36.9850   -6.2000  -17.4100 O.3     1  3HI1       -0.2852
     41  C23       39.0180   -7.3580  -17.6510 C.ar    1  3HI1        0.0434
     42  C29       39.8920   -8.3530  -17.2180 C.ar    1  3HI1        0.0034
@<TRIPOS>BOND
     1    41    42   ar
     2    41    14   ar
     3    40    14    1
     4    42    10   ar
     5    14    39   ar
     6    10     9   ar
     7    34    35   ar
     8    34    15   ar
     9    39     9   ar
    10    39    38    1
    11    35    32   ar
    12    15    12   ar
    13    38    36   am
    14    32    31    1
    15    32    33   ar
    16    12    33   ar
    17    36    30    1
    18    36    37    2
    19    27     8   ar
    20    27    24   ar
    21    31    30   ar
    22    31     2   ar
    23    30    28   ar
    24     8    25   ar
    25     7     3    1
    26     2    24    1
    27     2     1   ar
    28    28     3    1
    29    28     1   ar
    30    24    11   ar
    31     3    29    1
    32     1     4    1
    33    25    26    1
    34    25    13   ar
    35    11    13   ar
    36     4     5    1
    37     5    22    1
    38    22    23    1
    39    22     6    1
    40    21    20    1
    41     6    20    1
    42    20    19    1
    43    16    17   ar
    44    19    17    1
    45    17    18   ar
