@<TRIPOS>MOLECULE
3ccw_4HI_B_1.pdb
 36 38 0 0 0
SMALL
GASTEIGER

@<TRIPOS>ATOM
      1  N1       -14.2130    7.4770   45.5500 N.pl3   1  4HI1       -0.2787
      2  N3       -15.7600    8.5480   46.7000 N.2     1  4HI1       -0.3850
      3  C4       -19.3110    6.9570   48.5760 C.3     1  4HI1        0.1419
      4  C5       -14.5490    8.6500   46.1400 C.2     1  4HI1        0.1833
      5  C6       -15.3620    5.2000   45.2940 C.3     1  4HI1        0.0252
      6  C7       -12.9650    7.2210   44.8150 C.3     1  4HI1        0.0961
      7  C8       -13.1670    7.7950   43.4070 C.3     1  4HI1        0.0544
      8  C10      -12.5560    7.9950   40.9970 C.3     1  4HI1        0.0664
      9  C13      -14.3070    4.3850   46.0420 C.3     1  4HI1        0.0021
     10  C15      -11.8250   11.1370   46.9350 C.ar    1  4HI1        0.0298
     11  C17      -20.6090    4.9650   49.3150 C.ar    1  4HI1       -0.0026
     12  C20      -20.7300    3.7310   49.9480 C.ar    1  4HI1       -0.0003
     13  C21      -14.3100   11.0670   45.6570 C.ar    1  4HI1        0.0062
     14  C24      -13.5910   12.2590   45.7270 C.ar    1  4HI1        0.0298
     15  C26      -18.2710    5.0400   49.8760 C.ar    1  4HI1       -0.0026
     16  O2       -18.1900    6.1200   46.0850 O.2     1  4HI1       -0.2658
     17  C3       -17.4980    6.7430   46.8860 C.2     1  4HI1        0.2923
     18  N2       -17.9750    7.1730   48.0490 N.am    1  4HI1       -0.1949
     19  C32      -19.3870    5.6160   49.2710 C.ar    1  4HI1       -0.0006
     20  C23      -18.3900    3.8070   50.5130 C.ar    1  4HI1       -0.0003
     21  C29      -19.6170    3.1510   50.5480 C.ar    1  4HI1       -0.0000
     22  C2       -16.1990    7.3140   46.4610 C.2     1  4HI1        0.1830
     23  C12      -15.2460    6.6210   45.7200 C.3     1  4HI1        0.1319
     24  C14      -15.2970    5.0090   43.7820 C.3     1  4HI1        0.0021
     25  C27      -13.7730    9.9080   46.2130 C.ar    1  4HI1        0.0441
     26  C30      -12.3500   12.2960   46.3670 C.ar    1  4HI1        0.1401
     27  F1       -11.6550   13.4490   46.4290 F       1  4HI1       -0.2042
     28  C18      -12.5420    9.9450   46.8700 C.ar    1  4HI1        0.0062
     29  C9       -12.0800    7.5030   42.3610 C.3     1  4HI1        0.1563
     30  O4       -11.8150    6.1130   42.2140 O.3     1  4HI1       -0.2230
     31  C11      -12.6680    9.5140   40.8890 C.3     1  4HI1        0.1658
     32  O3       -11.4080   10.0990   41.1230 O.3     1  4HI1       -0.2225
     33  C35      -13.1250    9.8910   39.4840 C.3     1  4HI1        0.1469
     34  C36      -13.5930   11.3300   39.4420 C.2     1  4HI1        0.3674
     35  O6       -12.8540   12.1870   38.8910 O.co2   1  4HI1       -0.2456
     36  O7       -14.7000   11.5990   39.9710 O.co2   1  4HI1       -0.2456
@<TRIPOS>BOND
     1    35    34   ar
     2    34    33    1
     3    34    36   ar
     4    33    31    1
     5    31     8    1
     6    31    32    1
     7     8    29    1
     8    30    29    1
     9    29     7    1
    10     7     6    1
    11    24     5    1
    12     6     1    1
    13     5    23    1
    14     5     9    1
    15     1    23    1
    16     1     4    1
    17    13    14   ar
    18    13    25   ar
    19    23    22    1
    20    14    26   ar
    21    16    17    2
    22     4    25    1
    23     4     2    2
    24    25    28   ar
    25    26    27    1
    26    26    10   ar
    27    22     2    2
    28    22    17    1
    29    28    10   ar
    30    17    18   am
    31    18     3    1
    32     3    19    1
    33    19    11   ar
    34    19    15   ar
    35    11    12   ar
    36    15    20   ar
    37    12    21   ar
    38    20    21   ar
