@<TRIPOS>MOLECULE
3ccx_HEM_A_1.pdb
 43 50 0 0 0
SMALL
GASTEIGER

@<TRIPOS>ATOM
      1 FE         -5.7250   57.0660  111.5360 Fe    295  HEM295      0.0000
      2  CHA       -5.1750   54.0160  112.9220 C.2   295  HEM295      0.0000
      3  CHB       -7.3550   58.0670  114.3280 C.2   295  HEM295      0.0000
      4  CHC       -5.7630   60.2490  110.4460 C.2   295  HEM295      0.0000
      5  CHD       -3.3890   56.3110  109.1730 C.2   295  HEM295      0.0000
      6  NA        -6.2010   56.2040  113.3260 N.2   295  HEM295      0.0000
      7  C1A       -5.9130   54.9380  113.6970 C.2   295  HEM295      0.0000
      8  C2A       -6.4320   54.6540  114.9420 C.2   295  HEM295      0.0000
      9  C3A       -7.0650   55.8340  115.3520 C.2   295  HEM295      0.0000
     10  C4A       -6.8780   56.7450  114.3270 C.2   295  HEM295      0.0000
     11  CMA       -7.9190   56.0630  116.5900 C.3   295  HEM295      0.0000
     12  CAA       -6.3780   53.2860  115.6340 C.3   295  HEM295      0.0000
     13  CBA       -5.2950   53.1310  116.7010 C.3   295  HEM295      0.0000
     14  CGA       -5.2360   51.7550  117.3640 C.2   295  HEM295      0.0000
     15  O1A       -6.1030   51.4320  118.1700 O.co2 295  HEM295      0.0000
     16  O2A       -4.3350   50.9620  117.0950 O.co2 295  HEM295      0.0000
     17  NB        -6.5590   58.8360  112.2160 N.ar  295  HEM295      0.0000
     18  C1B       -7.2410   59.0450  113.3390 C.ar  295  HEM295      0.0000
     19  C2B       -7.8300   60.3150  113.3740 C.ar  295  HEM295      0.0000
     20  C3B       -7.3430   60.9480  112.2340 C.ar  295  HEM295      0.0000
     21  C4B       -6.5300   60.0090  111.5920 C.ar  295  HEM295      0.0000
     22  CMB       -8.7770   60.8360  114.4490 C.3   295  HEM295      0.0000
     23  CAB       -7.5910   62.2250  111.7160 C.3   295  HEM295      0.0000
     24  CBB       -8.5950   63.1520  112.1350 C.3   295  HEM295      0.0000
     25  NC        -4.6850   58.1270  110.1030 N.2   295  HEM295      0.0000
     26  C1C       -4.8930   59.4000  109.7520 C.2   295  HEM295      0.0000
     27  C2C       -4.1450   59.7780  108.6420 C.2   295  HEM295      0.0000
     28  C3C       -3.3870   58.6430  108.3360 C.2   295  HEM295      0.0000
     29  C4C       -3.8070   57.6510  109.2240 C.2   295  HEM295      0.0000
     30  CMC       -4.1170   61.1740  108.0060 C.3   295  HEM295      0.0000
     31  CAC       -2.4390   58.3890  107.3330 C.3   295  HEM295      0.0000
     32  CBC       -2.1380   59.1410  106.1450 C.3   295  HEM295      0.0000
     33  ND        -4.4890   55.4280  111.1070 N.ar  295  HEM295      0.0000
     34  C1D       -3.7400   55.2560  110.0130 C.ar  295  HEM295      0.0000
     35  C2D       -3.4120   53.9270  109.8020 C.ar  295  HEM295      0.0000
     36  C3D       -3.9320   53.2610  110.9020 C.ar  295  HEM295      0.0000
     37  C4D       -4.5440   54.2270  111.6910 C.ar  295  HEM295      0.0000
     38  CMD       -2.6960   53.3090  108.5980 C.3   295  HEM295      0.0000
     39  CAD       -3.8890   51.7620  111.1490 C.3   295  HEM295      0.0000
     40  CBD       -2.8270   51.3730  112.1570 C.3   295  HEM295      0.0000
     41  CGD       -2.8180   49.9200  112.6110 C.2   295  HEM295      0.0000
     42  O1D       -2.2260   49.6530  113.6400 O.co2 295  HEM295      0.0000
     43  O2D       -3.3940   49.0460  111.9700 O.co2 295  HEM295      0.0000
@<TRIPOS>BOND
     1    32    31    1
     2    31    28    1
     3    30    27    1
     4    28    27    2
     5    28    29    1
     6    38    35    1
     7    27    26    1
     8     5    29    1
     9     5    34    2
    10    29    25    2
    11    26    25    1
    12    26     4    2
    13    35    34   ar
    14    35    36   ar
    15    34    33   ar
    16    25     1    1
    17     4    21    1
    18    36    39    1
    19    36    37   ar
    20    33     1    1
    21    33    37   ar
    22    39    40    1
    23     1    17    1
    24     1     6    1
    25    21    17   ar
    26    21    20   ar
    27    37     2    2
    28    23    24    1
    29    23    20    1
    30    43    41   ar
    31    40    41    1
    32    17    18   ar
    33    20    19   ar
    34    41    42   ar
    35     2     7    1
    36     6     7    2
    37     6    10    1
    38    18    19   ar
    39    18     3    1
    40    19    22    1
    41     7     8    1
    42    10     3    2
    43    10     9    1
    44     8     9    2
    45     8    12    1
    46     9    11    1
    47    12    13    1
    48    13    14    1
    49    16    14   ar
    50    14    15   ar
