@<TRIPOS>MOLECULE
3ccz_5HI_A_1.pdb
 38 40 0 0 0
SMALL
GASTEIGER

@<TRIPOS>ATOM
      1  N1        78.6220    8.0870   -4.9370 N.pl3 876  5HI876     -0.2787
      2  N3        77.3970    9.6590   -5.8520 N.2   876  5HI876     -0.3850
      3  C5        77.3870    8.4060   -5.3650 C.2   876  5HI876      0.1833
      4  C6        80.8880    9.1900   -4.8070 C.3   876  5HI876      0.0252
      5  C7        79.0030    6.8040   -4.3330 C.3   876  5HI876      0.0961
      6  C8        79.1560    6.9990   -2.8250 C.3   876  5HI876      0.0544
      7  C10       78.8740    5.8790   -0.5990 C.3   876  5HI876      0.0664
      8  C13       81.7030    9.5860   -6.0380 C.3   876  5HI876      0.0021
      9  C15       74.7500    5.9010   -6.3730 C.ar  876  5HI876      0.0298
     10  C17       80.6900   14.8700   -8.1560 C.ar  876  5HI876     -0.0025
     11  C20       81.9490   15.1660   -8.6720 C.ar  876  5HI876     -0.0003
     12  C21       75.2530    7.6810   -4.2900 C.ar  876  5HI876      0.0062
     13  C24       74.1010    6.9010   -4.2750 C.ar  876  5HI876      0.0298
     14  C26       80.8120   12.6540   -9.0940 C.ar  876  5HI876     -0.0025
     15  O2        79.8660   12.1250   -5.4580 O.2   876  5HI876     -0.2658
     16  C3        79.0750   11.5070   -6.1490 C.2   876  5HI876      0.2923
     17  N2        78.5200   12.0150   -7.2560 N.am  876  5HI876     -0.1943
     18  C1        78.7630   13.3580   -7.7950 C.3   876  5HI876      0.1507
     19  C14       77.7150   13.5630   -8.8920 C.3   876  5HI876      0.2081
     20  O5        77.8360   12.5820   -9.9110 O.3   876  5HI876     -0.2181
     21  C32       80.1170   13.6140   -8.3580 C.ar  876  5HI876      0.0000
     22  C23       82.0730   12.9530   -9.6100 C.ar  876  5HI876     -0.0003
     23  C29       82.6440   14.2050   -9.4000 C.ar  876  5HI876     -0.0000
     24  C2        78.6450   10.1350   -5.7380 C.2   876  5HI876      0.1830
     25  C19       79.4360    9.1460   -5.1430 C.3   876  5HI876      0.1319
     26  C12       81.1530   10.0960   -3.6030 C.3   876  5HI876      0.0021
     27  C27       76.1580    7.5660   -5.3420 C.ar  876  5HI876      0.0441
     28  C30       73.8490    6.0130   -5.3170 C.ar  876  5HI876      0.1401
     29  F1        72.7350    5.2630   -5.3020 F     876  5HI876     -0.2042
     30  C18       75.9040    6.6810   -6.3870 C.ar  876  5HI876      0.0062
     31  C9        79.2570    5.6790   -2.0640 C.3   876  5HI876      0.1563
     32  O4        80.5920    5.2040   -2.1110 O.3   876  5HI876     -0.2230
     33  C11       77.3640    5.8840   -0.3830 C.3   876  5HI876      0.1658
     34  O3        76.8160    4.6380   -0.7770 O.3   876  5HI876     -0.2225
     35  C35       77.0620    6.1300    1.0910 C.3   876  5HI876      0.1469
     36  C36       75.6210    6.5430    1.2720 C.2   876  5HI876      0.3674
     37  O6        74.8280    5.7230    1.7800 O.co2 876  5HI876     -0.2456
     38  O7        75.2760    7.6900    0.9080 O.co2 876  5HI876     -0.2456
@<TRIPOS>BOND
     1    20    19    1
     2    22    23   ar
     3    22    14   ar
     4    23    11   ar
     5    14    21   ar
     6    19    18    1
     7    11    10   ar
     8    21    10   ar
     9    21    18    1
    10    18    17    1
    11    17    16   am
    12    30     9   ar
    13    30    27   ar
    14     9    28   ar
    15    16    24    1
    16    16    15    2
    17     8     4    1
    18     2    24    2
    19     2     3    2
    20    24    25    1
    21     3    27    1
    22     3     1    1
    23    27    12   ar
    24    28    29    1
    25    28    13   ar
    26    25     1    1
    27    25     4    1
    28     1     5    1
    29     4    26    1
    30     5     6    1
    31    12    13   ar
    32     6    31    1
    33    32    31    1
    34    31     7    1
    35    34    33    1
    36     7    33    1
    37    33    35    1
    38    38    36   ar
    39    35    36    1
    40    36    37   ar
