@<TRIPOS>MOLECULE
3cd0_6HI_B_1.pdb
 37 39 0 0 0
SMALL
GASTEIGER

@<TRIPOS>ATOM
      1  N3       -16.1280    8.7000   46.7900 N.2     1  6HI1       -0.3849
      2  C4       -14.4560    4.5470   46.1250 C.3     1  6HI1        0.0215
      3  C5       -14.9230    8.8700   46.2630 C.2     1  6HI1        0.1286
      4  C6       -15.6270    5.3170   45.5060 C.3     1  6HI1        0.0756
      5  C7       -13.1780    7.3070   44.8950 C.3     1  6HI1        0.0297
      6  C8       -13.2060    8.0730   43.5600 C.3     1  6HI1        0.0351
      7  C10      -12.8690    8.0730   41.0680 C.3     1  6HI1        0.0663
      8  C13      -15.7680    5.1400   43.9920 C.3     1  6HI1        0.0215
      9  C15      -12.0780   11.3160   46.7780 C.ar    1  6HI1        0.0297
     10  C17      -18.8260    5.1000   49.7920 C.ar    1  6HI1       -0.0002
     11  C20      -19.0940    3.8760   50.4150 C.ar    1  6HI1        0.0294
     12  C21      -14.6660   11.2620   45.7490 C.ar    1  6HI1        0.0046
     13  C24      -13.9340   12.4470   45.7380 C.ar    1  6HI1        0.0297
     14  C26      -21.1790    5.4110   49.3880 C.ar    1  6HI1       -0.0002
     15  F2       -20.6970    2.2490   51.1220 F       1  6HI1       -0.2042
     16  C29      -20.4110    3.4230   50.5250 C.ar    1  6HI1        0.1401
     17  C23      -21.4510    4.1920   50.0100 C.ar    1  6HI1        0.0294
     18  C32      -19.8740    5.8710   49.2730 C.ar    1  6HI1       -0.0004
     19  C1       -19.6540    7.2060   48.5850 C.3     1  6HI1        0.1419
     20  N2       -18.2730    7.3900   48.1680 N.am    1  6HI1       -0.1935
     21  C3       -17.7930    6.8960   47.0300 C.2     1  6HI1        0.3092
     22  O2       -18.4980    6.2750   46.2410 O.2     1  6HI1       -0.2641
     23  C2       -16.4820    7.4220   46.5630 C.2     1  6HI1        0.2386
     24  N4       -15.5140    6.7560   45.8830 N.pl3   1  6HI1       -0.2768
     25  C12      -14.4760    7.5920   45.6440 C.3     1  6HI1        0.1275
     26  C27      -14.0980   10.1000   46.2500 C.ar    1  6HI1        0.0272
     27  C30      -12.6430   12.4790   46.2530 C.ar    1  6HI1        0.1401
     28  F1       -11.9460   13.6340   46.2380 F       1  6HI1       -0.2042
     29  C18      -12.8130   10.1290   46.7880 C.ar    1  6HI1        0.0046
     30  C9       -12.3110    7.5730   42.4030 C.3     1  6HI1        0.1546
     31  O4       -12.2300    6.1510   42.3100 O.3     1  6HI1       -0.2231
     32  C11      -12.9330    9.5980   40.9680 C.3     1  6HI1        0.1658
     33  O3       -11.6480   10.1290   41.2900 O.3     1  6HI1       -0.2225
     34  C35      -13.3870   10.0030   39.5590 C.3     1  6HI1        0.1469
     35  C36      -13.8450   11.4480   39.4660 C.2     1  6HI1        0.3674
     36  O7       -13.1210   12.3030   38.9630 O.co2   1  6HI1       -0.2456
     37  O6       -15.0490   11.8200   39.9100 O.co2   1  6HI1       -0.2456
@<TRIPOS>BOND
     1    36    35   ar
     2    35    34    1
     3    35    37   ar
     4    34    32    1
     5    32     7    1
     6    32    33    1
     7     7    30    1
     8    31    30    1
     9    30     6    1
    10     6     5    1
    11     8     4    1
    12     5    25    1
    13     4    24    1
    14     4     2    1
    15    25    24    1
    16    25     3    1
    17    13    12   ar
    18    13    27   ar
    19    12    26   ar
    20    24    23    1
    21    28    27    1
    22    22    21    2
    23    26     3    1
    24    26    29   ar
    25    27     9   ar
    26     3     1    2
    27    23     1    2
    28    23    21    1
    29     9    29   ar
    30    21    20   am
    31    20    19    1
    32    19    18    1
    33    18    14   ar
    34    18    10   ar
    35    14    17   ar
    36    10    11   ar
    37    17    16   ar
    38    11    16   ar
    39    16    15    1
