@<TRIPOS>MOLECULE
3cd2_NAP_A_1.pdb
 48 52 0 0 0
SMALL
GASTEIGER

@<TRIPOS>ATOM
      1  PA        15.6750    9.6850   22.8570 P.3   207  NAP207      0.2189
      2  O1A       15.7320    9.9650   21.4040 O.2   207  NAP207     -0.5170
      3  O2A       14.4740    9.5480   23.6630 O.3   207  NAP207     -0.4371
      4  O5B       16.5400   11.0120   23.4860 O.3   207  NAP207     -0.3112
      5  C5B       16.4500   11.0730   24.9910 C.3   207  NAP207      0.1813
      6  C4B       16.4740   12.6060   25.2180 C.3   207  NAP207      0.1820
      7  O4B       15.3530   13.1040   24.9280 O.3   207  NAP207     -0.3136
      8  C3B       16.6580   12.8290   26.8190 C.3   207  NAP207      0.2157
      9  O3B       18.1560   12.8550   26.8520 O.3   207  NAP207     -0.2175
     10  C2B       15.9780   14.2080   26.8970 C.3   207  NAP207      0.2314
     11  O2B       16.5940   15.2790   26.2810 O.3   207  NAP207     -0.2630
     12  C1B       14.7960   13.9300   25.9620 C.3   207  NAP207      0.3158
     13  N9A       13.6320   13.3220   26.5470 N.pl3 207  NAP207     -0.1439
     14  C8A       13.1000   12.1410   26.1800 C.3   207  NAP207      0.3377
     15  N7A       12.0110   11.8330   26.8540 N.2   207  NAP207     -0.2095
     16  C5A       11.8990   13.0140   27.6730 C.2   207  NAP207      0.2526
     17  C6A       10.8700   13.4520   28.7610 C.2   207  NAP207      0.4393
     18  N6A        9.8640   12.5870   28.9810 N.pl3 207  NAP207      0.2180
     19  N1A       11.0840   14.5550   29.3690 N.2   207  NAP207      0.0021
     20  C2A       12.1540   15.2510   28.9850 C.3   207  NAP207      0.5254
     21  N3A       13.1010   15.0280   28.0960 N.2   207  NAP207     -0.0055
     22  C4A       12.8910   13.8480   27.4760 C.2   207  NAP207      0.3518
     23  O3        16.8300    8.6990   23.1660 O.3   207  NAP207     -0.2703
     24  PN        17.4730    7.5150   23.9590 P.3   207  NAP207      0.2189
     25  O1N       16.7330    6.8980   25.0160 O.3   207  NAP207     -0.4371
     26  O2N       18.7630    8.0140   24.3860 O.2   207  NAP207     -0.5170
     27  O5D       17.7250    6.4250   22.8020 O.3   207  NAP207     -0.3112
     28  C5D       18.3790    6.6740   21.5840 C.3   207  NAP207      0.1813
     29  C4D       18.4520    5.2160   21.1120 C.3   207  NAP207      0.1799
     30  O4D       17.1180    4.8250   20.5820 O.3   207  NAP207     -0.3327
     31  C3D       19.4710    4.9950   19.9620 C.3   207  NAP207      0.2158
     32  O3D       19.7630    3.5620   19.8600 O.3   207  NAP207     -0.2175
     33  C2D       18.5210    5.4330   18.7610 C.3   207  NAP207      0.2309
     34  O2D       19.0550    4.8630   17.6400 O.3   207  NAP207     -0.2158
     35  C1D       17.3460    4.5540   19.1400 C.3   207  NAP207      0.2263
     36  N1N       16.0200    4.6660   18.4000 N.pl3 207  NAP207     -0.2787
     37  C2N       15.4240    3.4860   17.9110 C.3   207  NAP207      0.1244
     38  C3N       14.2340    3.5550   17.2860 C.2   207  NAP207      0.0544
     39  C7N       13.7160    2.2580   16.7620 C.2   207  NAP207      0.2818
     40  O7N       12.6920    2.2190   16.1780 O.2   207  NAP207     -0.2670
     41  N7N       14.4280    1.1260   16.9520 N.am  207  NAP207     -0.0839
     42  C4N       13.5040    4.8860   17.0400 C.2   207  NAP207      0.0033
     43  C5N       14.2500    6.0480   17.6250 C.2   207  NAP207      0.0157
     44  C6N       15.4050    5.9190   18.2590 C.2   207  NAP207      0.0633
     45  P2B       17.4960   16.6750   26.7350 P.3   207  NAP207      0.5328
     46  O1X       16.7250   17.2960   27.8350 O.3   207  NAP207     -0.1145
     47  O2X       17.3500   17.4270   25.4830 O.2   207  NAP207     -0.2224
     48  O3X       18.7870   16.1270   27.1410 O.3   207  NAP207     -0.1145
@<TRIPOS>BOND
     1    40    39    2
     2    39    41   am
     3    39    38    1
     4    42    38    2
     5    42    43    1
     6    38    37    1
     7    43    44    2
     8    34    33    1
     9    37    36    1
    10    44    36    1
    11    36    35    1
    12    33    35    1
    13    33    31    1
    14    35    30    1
    15    32    31    1
    16    31    29    1
    17    30    29    1
    18    29    28    1
    19     2     1    2
    20    28    27    1
    21    27    24    1
    22     1    23    1
    23     1     4    1
    24     1     3    1
    25    23    24    1
    26     4     5    1
    27    24    26    2
    28    24    25    1
    29     7     6    1
    30     7    12    1
    31     5     6    1
    32     6     8    1
    33    47    45    2
    34    12    13    1
    35    12    10    1
    36    14    13    1
    37    14    15    1
    38    11    45    1
    39    11    10    1
    40    13    22    1
    41    45    48    1
    42    45    46    1
    43     8     9    1
    44     8    10    1
    45    15    16    2
    46    22    16    1
    47    22    21    2
    48    16    17    1
    49    21    20    1
    50    17    18    1
    51    17    19    2
    52    20    19    1
