@<TRIPOS>MOLECULE
3cd2_MTX_A_1.pdb
 33 35 0 0 0
SMALL
GASTEIGER

@<TRIPOS>ATOM
      1  N1        11.5930    2.5830   11.9460 N.2   307  MTX307     -0.2684
      2  C2        10.3530    2.3620   12.4940 C.1   307  MTX307      0.2519
      3  NA2        9.6270    1.4300   11.9910 N.pl3 307  MTX307     -0.0226
      4  N3         9.8780    3.0830   13.5370 N.2   307  MTX307     -0.3033
      5  C4        10.6410    4.0520   14.0190 C.2   307  MTX307      0.2728
      6  NA4       10.1940    4.7700   15.0140 N.pl3 307  MTX307     -0.0887
      7  C4A       11.9500    4.3610   13.4750 C.2   307  MTX307      0.2518
      8  N5        12.7070    5.3500   13.9710 N.2   307  MTX307     -0.3917
      9  C6        13.8820    5.5450   13.3930 C.2   307  MTX307      0.1330
     10  C7        14.3110    4.7580   12.3500 C.3   307  MTX307      0.1930
     11  N8        13.5700    3.7550   11.8530 N.2   307  MTX307     -0.1998
     12  C8A       12.3890    3.5700   12.4130 C.1   307  MTX307      0.1314
     13  C9        14.7670    6.6350   13.9650 C.3   307  MTX307      0.1481
     14  N10       15.7690    7.1290   13.0480 N.pl3 307  MTX307     -0.2999
     15  CM        17.1860    7.1320   13.4290 C.3   307  MTX307      0.1125
     16  C11       14.8190    8.7030    9.2930 C.ar  307  MTX307      0.0551
     17  C12       13.8440    8.5570   10.2620 C.ar  307  MTX307      0.0058
     18  C13       14.1320    8.0610   11.5250 C.ar  307  MTX307      0.0147
     19  C14       15.4250    7.6550   11.8330 C.ar  307  MTX307      0.0482
     20  C15       16.4170    7.8010   10.8520 C.ar  307  MTX307      0.0147
     21  C16       16.1180    8.3020    9.6130 C.ar  307  MTX307      0.0058
     22  C         14.5060    9.2420    7.9690 C.2   307  MTX307      0.2655
     23  O         15.4050    9.7730    7.2930 O.2   307  MTX307     -0.2683
     24  N         13.2890    9.0950    7.4660 N.am  307  MTX307     -0.1872
     25  CA        12.9470    9.5380    6.1000 C.3   307  MTX307      0.2202
     26  CT        11.5720   10.1520    6.2290 C.2   307  MTX307      0.3884
     27  O1        11.3460   11.1150    5.5220 O.co2 307  MTX307     -0.2434
     28  O2        10.7890    9.6720    7.0260 O.co2 307  MTX307     -0.2434
     29  CB        13.0190    8.4560    5.0730 C.2   307  MTX307      0.0133
     30  CG        14.0290    8.5830    4.0060 C.2   307  MTX307      0.0838
     31  CD        14.0780    7.5020    3.0200 C.2   307  MTX307      0.3877
     32  OE1       15.2110    6.9870    2.5570 O.co2 307  MTX307     -0.2406
     33  OE2       13.0440    6.8640    2.4300 O.co2 307  MTX307     -0.2406
@<TRIPOS>BOND
     1    33    31   ar
     2    32    31   ar
     3    31    30    1
     4    30    29    2
     5    29    25    1
     6    27    26   ar
     7    25    26    1
     8    25    24    1
     9    26    28   ar
    10    23    22    2
    11    24    22   am
    12    22    16    1
    13    16    21   ar
    14    16    17   ar
    15    21    20   ar
    16    17    18   ar
    17    20    19   ar
    18    18    19   ar
    19    19    14    1
    20    11    10    1
    21    11    12    2
    22     1    12    2
    23     1     2    2
    24     3     2    1
    25    10     9    1
    26    12     7    1
    27     2     4    2
    28    14    15    1
    29    14    13    1
    30     9    13    1
    31     9     8    2
    32     7     8    2
    33     7     5    1
    34     4     5    2
    35     5     6    1
