@<TRIPOS>MOLECULE
3cd3_III_B_1.pdb
 47 47 0 0 0
SMALL
GASTEIGER

@<TRIPOS>ATOM
      1  C         -6.3920   21.1470   38.4100 C.2     0  ACE0        0.2423
      2  O         -5.7460   21.4550   39.4060 O.2     0  ACE0       -0.2733
      3  CH3       -7.9020   21.2620   38.2810 C.3     0  ACE0        0.0964
      4  N         -5.7880   20.7060   37.3310 N.am    1  ILE1       -0.1978
      5  CA        -4.3020   20.5010   37.2690 C.3     1  ILE1        0.1726
      6  C         -3.4950   21.7870   37.2630 C.2     1  ILE1        0.2616
      7  O         -2.4830   21.8770   37.9340 O.2     1  ILE1       -0.2715
      8  CB        -4.0780   19.6670   35.9930 C.3     1  ILE1        0.0290
      9  CG1       -4.5530   18.2520   36.3270 C.3     1  ILE1        0.0022
     10  CG2       -2.6100   19.7600   35.5560 C.3     1  ILE1        0.0023
     11  CD1       -4.9380   17.4260   35.1410 C.3     1  ILE1        0.0001
     12  N         -3.9660   22.7670   36.4990 N.am    2  TYR2       -0.1960
     13  CA        -3.2960   24.0420   36.2930 C.3     2  TYR2        0.1771
     14  C         -3.9020   25.1210   37.1870 C.2     2  TYR2        0.2619
     15  O         -5.1190   25.1620   37.3740 O.2     2  TYR2       -0.2715
     16  CB        -3.3680   24.4620   34.8180 C.3     2  TYR2        0.0574
     17  CG        -2.6900   23.4840   33.8770 C.ar    2  TYR2       -0.0198
     18  CD1       -3.3880   22.4340   33.3160 C.ar    2  TYR2       -0.0009
     19  CD2       -1.3290   23.5920   33.5920 C.ar    2  TYR2       -0.0009
     20  CE1       -2.7630   21.5160   32.4810 C.ar    2  TYR2        0.0417
     21  CE2       -0.6950   22.6810   32.7220 C.ar    2  TYR2        0.0417
     22  CZ        -1.4020   21.6550   32.1950 C.ar    2  TYR2        0.1957
     23  OH        -0.7730   20.7610   31.3480 O.3     2  TYR2       -0.2866
     24  N         -3.0170   25.9790   37.7190 N.am    3  GLU3       -0.1963
     25  CA        -3.3630   27.0740   38.6070 C.3     3  GLU3        0.1733
     26  C         -2.7340   28.2990   37.9910 C.2     3  GLU3        0.2617
     27  O         -1.5890   28.2520   37.5590 O.2     3  GLU3       -0.2715
     28  CB        -2.7780   26.8090   40.0060 C.3     3  GLU3        0.0429
     29  CG        -3.5610   27.2930   41.1850 C.3     3  GLU3        0.1163
     30  CD        -4.9100   26.6140   41.3990 C.2     3  GLU3        0.3649
     31  OE1       -5.8980   27.3610   41.3160 O.co2   3  GLU3       -0.2457
     32  OE2       -4.9890   25.3660   41.6680 O.co2   3  GLU3       -0.2457
     33  N         -3.4960   29.3800   37.8970 N.am    4  SER4       -0.1936
     34  CA        -2.9410   30.6870   37.5620 C.3     4  SER4        0.2055
     35  C         -2.3850   31.3170   38.8130 C.2     4  SER4        0.2644
     36  O         -3.1220   31.6010   39.7830 O.2     4  SER4       -0.2714
     37  CB        -3.9860   31.5980   36.9270 C.3     4  SER4        0.2130
     38  OG        -4.6060   30.9480   35.8310 O.3     4  SER4       -0.2179
     39  N         -1.0700   31.5010   38.8000 N.am    5  LEU5       -0.1941
     40  CA        -0.3440   32.0130   39.9310 C.3     5  LEU5        0.1978
     41  C          0.4710   33.2530   39.5370 C.2     5  LEU5        0.3842
     42  O          0.9790   33.3980   38.4160 O.co2   5  LEU5       -0.2437
     43  CB         0.5810   30.9270   40.4750 C.3     5  LEU5        0.0333
     44  CG        -0.1450   29.7250   41.0640 C.3     5  LEU5        0.0023
     45  CD1        0.8100   28.5710   41.3110 C.3     5  LEU5        0.0001
     46  CD2       -0.8320   30.1310   42.3770 C.3     5  LEU5        0.0001
     47  OXT        0.6580   34.1420   40.3780 O.co2   5  LEU5       -0.2437
@<TRIPOS>BOND
     1    23    22    1
     2    22    20   ar
     3    22    21   ar
     4    20    18   ar
     5    21    19   ar
     6    18    17   ar
     7    19    17   ar
     8    17    16    1
     9    16    13    1
    10    11     9    1
    11    10     8    1
    12    38    37    1
    13     8     9    1
    14     8     5    1
    15    13    12    1
    16    13    14    1
    17    12     6   am
    18    37    34    1
    19    14    15    2
    20    14    24   am
    21     6     5    1
    22     6     7    2
    23     5     4    1
    24     4     1   am
    25    27    26    2
    26    34    33    1
    27    34    35    1
    28    24    25    1
    29    33    26   am
    30    26    25    1
    31     3     1    1
    32     1     2    2
    33    42    41   ar
    34    25    28    1
    35    39    35   am
    36    39    40    1
    37    35    36    2
    38    41    40    1
    39    41    47   ar
    40    40    43    1
    41    28    29    1
    42    43    44    1
    43    44    45    1
    44    44    46    1
    45    29    30    1
    46    31    30   ar
    47    30    32   ar
