@<TRIPOS>MOLECULE
3cd3_STU_A_1.pdb
 35 42 0 0 0
SMALL
GASTEIGER

@<TRIPOS>ATOM
      1  O4        -4.6410   16.8370   22.4510 O.3   901  STU901     -0.3186
      2  C25       -4.6840   15.4000   22.5400 C.3   901  STU901      0.2078
      3  C24       -4.4920   14.8810   24.0040 C.3   901  STU901      0.0739
      4  C23       -4.0280   15.9970   24.9300 C.3   901  STU901      0.1086
      5  C22       -2.8890   16.7680   24.2600 C.3   901  STU901      0.1761
      6  C21       -3.5330   17.5150   22.9990 C.3   901  STU901      0.1915
      7  C26       -4.0140   18.8780   23.5010 C.3   901  STU901      0.0566
      8  N2        -2.4280   17.5090   21.9620 N.ar  901  STU901     -0.3054
      9  C18       -2.1580   16.5090   21.0940 C.ar  901  STU901      0.0774
     10  C19       -2.8010   15.2790   20.8730 C.ar  901  STU901      0.0783
     11  C6        -2.3400   14.4030   19.8880 C.ar  901  STU901      0.0293
     12  C7        -1.1980   14.7670   19.1230 C.ar  901  STU901      0.0822
     13  C10       -0.5680   15.9840   19.3560 C.ar  901  STU901      0.0154
     14  C11       -1.0150   16.8630   20.3350 C.ar  901  STU901      0.0173
     15  C12       -0.5830   18.1110   20.7880 C.ar  901  STU901      0.0171
     16  C17       -1.4790   18.4950   21.8210 C.ar  901  STU901      0.0617
     17  C16       -1.2900   19.7380   22.4380 C.ar  901  STU901      0.0172
     18  C15       -0.2050   20.5650   22.0700 C.ar  901  STU901      0.0015
     19  C14        0.6440   20.1810   21.0300 C.ar  901  STU901      0.0001
     20  C13        0.4780   18.9470   20.4050 C.ar  901  STU901      0.0015
     21  C9         0.6650   16.0970   18.4160 C.3   901  STU901      0.1650
     22  N1         0.6100   14.8230   17.7260 N.2   901  STU901     -0.1976
     23  C8        -0.4710   14.1340   18.1130 C.1   901  STU901      0.1501
     24  O5        -0.7260   13.0200   17.6620 O.2   901  STU901     -0.2222
     25  C5        -3.2060   13.2960   19.8950 C.ar  901  STU901      0.0180
     26  C20       -4.1590   13.5340   20.9050 C.ar  901  STU901      0.0618
     27  C1        -5.1630   12.5740   21.1240 C.ar  901  STU901      0.0172
     28  C2        -5.1950   11.3830   20.4060 C.ar  901  STU901      0.0015
     29  C3        -4.2420   11.1420   19.4020 C.ar  901  STU901      0.0001
     30  C4        -3.2370   12.0950   19.1730 C.ar  901  STU901      0.0015
     31  N3        -3.9140   14.7560   21.4520 N.ar  901  STU901     -0.3039
     32  O6        -1.7990   15.7580   24.0690 O.3   901  STU901     -0.3478
     33  C27       -0.4360   16.2830   24.0090 C.3   901  STU901      0.1743
     34  N4        -3.6070   15.4160   26.2030 N.3   901  STU901     -0.2152
     35  C28       -4.6340   14.7610   27.0530 C.3   901  STU901      0.1075
@<TRIPOS>BOND
     1    24    23    2
     2    22    23    2
     3    22    21    1
     4    23    12    1
     5    21    13    1
     6    12    13   ar
     7    12    11   ar
     8    30    29   ar
     9    30    25   ar
    10    13    14   ar
    11    29    28   ar
    12    11    25   ar
    13    11    10   ar
    14    25    26   ar
    15    14    15   ar
    16    14     9   ar
    17    20    15   ar
    18    20    19   ar
    19    28    27   ar
    20    15    16   ar
    21    10     9   ar
    22    10    31   ar
    23    26    27   ar
    24    26    31   ar
    25    19    18   ar
    26     9     8   ar
    27    31     2    1
    28    16     8   ar
    29    16    17   ar
    30     8     6    1
    31    18    17   ar
    32     1     2    1
    33     1     6    1
    34     2     3    1
    35     6     7    1
    36     6     5    1
    37     3     4    1
    38    33    32    1
    39    32     5    1
    40     5     4    1
    41     4    34    1
    42    34    35    1
