@<TRIPOS>MOLECULE
3cd5_7HI_A_1.pdb
 38 41 0 0 0
SMALL
GASTEIGER

@<TRIPOS>ATOM
      1  N1        14.1290    6.7820   45.3590 N.ar    2  7HI2       -0.3340
      2  C4        13.8900    3.2290   46.7850 C.3     2  7HI2        0.0319
      3  C5        14.3900    5.5980   45.9650 C.ar    2  7HI2        0.0336
      4  C6        15.2240    9.0900   45.1170 C.3     2  7HI2        0.0439
      5  C7        12.9440    7.0450   44.5330 C.3     2  7HI2        0.1080
      6  C8        13.2580    6.5620   43.1140 C.3     2  7HI2        0.0574
      7  C10       12.5090    6.3030   40.7300 C.3     2  7HI2        0.0664
      8  C13       16.0580    9.2280   43.8610 C.3     2  7HI2        0.0066
      9  C15       22.6390    9.8600   51.5330 C.ar    2  7HI2        0.0000
     10  C17       19.8810    8.0990   48.4850 C.ar    2  7HI2        0.0166
     11  C20       20.8860    8.8230   49.1320 C.ar    2  7HI2        0.0013
     12  C21       23.5920   11.9810   52.1980 C.ar    2  7HI2        0.0000
     13  C22       21.6210   10.5220   50.8440 C.ar    2  7HI2        0.0000
     14  C24       22.5730   12.6470   51.5220 C.ar    2  7HI2        0.0000
     15  C26       18.2230    9.1940   49.8380 C.ar    2  7HI2        0.0166
     16  O2        18.0330    8.1570   46.1220 O.2     2  7HI2       -0.2680
     17  C3        17.3130    7.5790   46.9200 C.2     2  7HI2        0.2698
     18  N2        17.5250    7.5920   48.2400 N.am    2  7HI2       -0.1754
     19  C32       18.5400    8.2820   48.8320 C.ar    2  7HI2        0.0737
     20  C23       19.2270    9.9190   50.4810 C.ar    2  7HI2        0.0013
     21  C29       20.5640    9.7420   50.1310 C.ar    2  7HI2        0.0001
     22  C18       21.5900   11.9170   50.8490 C.ar    2  7HI2        0.0000
     23  C16       23.6230   10.5870   52.2040 C.ar    2  7HI2        0.0000
     24  C2        16.0400    6.9930   46.4020 C.ar    2  7HI2        0.0644
     25  C12       15.1250    7.6550   45.5970 C.ar    2  7HI2        0.0408
     26  C27       13.4750    4.3890   45.8840 C.3     2  7HI2        0.0481
     27  C25       15.2480    2.6960   46.4000 C.2     2  7HI2       -0.0300
     28  C19       16.3640    3.3450   46.7270 C.2     2  7HI2       -0.0259
     29  C14       16.3200    4.6530   47.4700 C.3     2  7HI2        0.0533
     30  C1        15.6070    5.7020   46.6420 C.ar    2  7HI2       -0.0006
     31  C9        12.1220    6.7900   42.1210 C.3     2  7HI2        0.1565
     32  O4        11.8610    8.1820   42.0210 O.3     2  7HI2       -0.2230
     33  C11       12.6280    4.7900   40.5960 C.3     2  7HI2        0.1658
     34  O3        11.3650    4.1980   40.8150 O.3     2  7HI2       -0.2225
     35  C35       13.0840    4.4350   39.1910 C.3     2  7HI2        0.1469
     36  C36       13.6440    3.0340   39.1850 C.2     2  7HI2        0.3674
     37  O7        12.9530    2.1020   38.8010 O.co2   2  7HI2       -0.2456
     38  O6        14.8920    2.8200   39.6080 O.co2   2  7HI2       -0.2456
@<TRIPOS>BOND
     1    37    36   ar
     2    36    35    1
     3    36    38   ar
     4    35    33    1
     5    33     7    1
     6    33    34    1
     7     7    31    1
     8    32    31    1
     9    31     6    1
    10     6     5    1
    11     8     4    1
    12     5     1    1
    13     4    25    1
    14     1    25   ar
    15     1     3   ar
    16    25    24   ar
    17    26     3    1
    18    26     2    1
    19     3    30   ar
    20    16    17    2
    21    27    28    2
    22    27     2    1
    23    24    30   ar
    24    24    17    1
    25    30    29    1
    26    28    29    1
    27    17    18   am
    28    18    19    1
    29    10    19   ar
    30    10    11   ar
    31    19    15   ar
    32    11    21   ar
    33    15    20   ar
    34    21    20   ar
    35    21    13    1
    36    13    22   ar
    37    13     9   ar
    38    22    14   ar
    39    14    12   ar
    40     9    23   ar
    41    12    23   ar
