@<TRIPOS>MOLECULE
3cd7_882_A_1.pdb
 42 45 0 0 0
SMALL
GASTEIGER

@<TRIPOS>ATOM
      1  N1        -4.3760  -16.1490    5.9810 N.ar    1  8821       -0.3289
      2  C4        -4.3140  -16.1660    7.3370 C.ar    1  8821        0.0371
      3  C5        -5.5920  -15.9230    7.7830 C.ar    1  8821        0.0132
      4  C6        -3.2050  -16.4030    5.0930 C.3     1  8821        0.0854
      5  C7        -3.1160  -16.4370    8.2070 C.3     1  8821        0.0464
      6  C8        -2.1360  -15.2810    8.1590 C.3     1  8821        0.0392
      7  C10       -0.6060  -14.0780    9.6930 C.3     1  8821        0.0663
      8  C13       -2.8120  -15.1510    4.3140 C.3     1  8821        0.0245
      9  C15       -7.1230  -16.4340   11.2280 C.ar    1  8821        0.0296
     10  C17       -7.8560  -15.3700    1.7450 C.ar    1  8821        0.0166
     11  C20       -8.2580  -15.3070    0.4130 C.ar    1  8821        0.0013
     12  C21       -5.4220  -14.6960    9.8940 C.ar    1  8821        0.0023
     13  C22       -9.6900  -14.1710    7.7540 C.ar    1  8821        0.0296
     14  C24       -5.7090  -14.4730   11.2350 C.ar    1  8821        0.0296
     15  C26       -7.4350  -17.7250    1.5040 C.ar    1  8821        0.0166
     16  C28      -10.5800  -15.1290    7.2720 C.ar    1  8821        0.1401
     17  O7        -1.9920  -10.9220   12.8300 O.co2   1  8821       -0.2456
     18  C36       -2.1480  -11.1360   11.6070 C.2     1  8821        0.3674
     19  O6        -3.1260  -10.6980   10.9630 O.co2   1  8821       -0.2456
     20  C35       -1.1020  -11.9480   10.8740 C.3     1  8821        0.1469
     21  C11       -1.5500  -13.3910   10.6700 C.3     1  8821        0.1658
     22  O3        -1.5070  -14.1440   11.8700 O.3     1  8821       -0.2225
     23  C9        -1.1460  -15.4480    9.3040 C.3     1  8821        0.1549
     24  O4        -0.0930  -16.2950    8.8810 O.3     1  8821       -0.2230
     25  C27       -5.9720  -15.7880    9.2190 C.ar    1  8821        0.0013
     26  C30       -6.5650  -15.3430   11.9010 C.ar    1  8821        0.1401
     27  F1        -6.8450  -15.1280   13.1980 F       1  8821       -0.2042
     28  C18       -6.8300  -16.6620    9.8810 C.ar    1  8821        0.0023
     29  C14       -3.5440  -17.5670    4.1810 C.3     1  8821        0.0245
     30  C2        -5.6510  -15.8990    5.5750 C.ar    1  8821        0.1157
     31  C1        -6.4000  -15.6960    6.7190 C.ar    1  8821        0.0214
     32  C31       -7.8510  -15.4500    6.8870 C.ar    1  8821        0.0017
     33  C25       -8.3230  -14.3390    7.5750 C.ar    1  8821        0.0024
     34  F2       -11.8950  -14.9480    7.4520 F       1  8821       -0.2042
     35  C19      -10.1090  -16.2560    6.6060 C.ar    1  8821        0.0296
     36  C16       -8.7380  -16.4220    6.4260 C.ar    1  8821        0.0024
     37  C3        -6.2030  -15.7470    4.2020 C.2     1  8821        0.2849
     38  O1        -5.8090  -14.7540    3.6000 O.2     1  8821       -0.2664
     39  N2        -7.0030  -16.6740    3.6510 N.am    1  8821       -0.1742
     40  C32       -7.4340  -16.5800    2.3050 C.ar    1  8821        0.0737
     41  C23       -7.8480  -17.6630    0.1750 C.ar    1  8821        0.0013
     42  C29       -8.2600  -16.4530   -0.3770 C.ar    1  8821        0.0001
@<TRIPOS>BOND
     1    42    41   ar
     2    42    11   ar
     3    41    15   ar
     4    11    10   ar
     5    15    40   ar
     6    10    40   ar
     7    40    39    1
     8    38    37    2
     9    39    37   am
    10    29     4    1
    11    37    30    1
    12     8     4    1
    13     4     1    1
    14    30     1   ar
    15    30    31   ar
    16     1     2   ar
    17    36    35   ar
    18    36    32   ar
    19    35    16   ar
    20    31    32    1
    21    31     3   ar
    22    32    33   ar
    23    16    34    1
    24    16    13   ar
    25     2     3   ar
    26     2     5    1
    27    33    13   ar
    28     3    25    1
    29     6     5    1
    30     6    23    1
    31    24    23    1
    32    25    28   ar
    33    25    12   ar
    34    23     7    1
    35     7    21    1
    36    28     9   ar
    37    12    14   ar
    38    21    20    1
    39    21    22    1
    40    20    18    1
    41    19    18   ar
    42     9    26   ar
    43    14    26   ar
    44    18    17   ar
    45    26    27    1
