@<TRIPOS>MOLECULE
3cd8_L5G_A_1.pdb
 29 33 0 0 0
SMALL
GASTEIGER

@<TRIPOS>ATOM
      1  N1        18.8700   12.9580   57.3230 N.ar    1  L5G1       -0.1625
      2  N3        20.8530   15.6230   56.7120 N.ar    1  L5G1       -0.1271
      3  C4        17.0150   12.3890   58.6630 C.ar    1  L5G1        0.0194
      4  C5        15.9950   12.7380   59.5520 C.ar    1  L5G1        0.0016
      5  C6        15.0540   11.7850   59.9360 C.ar    1  L5G1        0.0000
      6  C7        17.9610   13.3250   58.2470 C.ar    1  L5G1        0.1015
      7  C8        17.9690   14.6240   58.7590 C.ar    1  L5G1        0.0241
      8  C10       19.8260   15.0590   57.3540 C.ar    1  L5G1        0.1865
      9  C13       21.9960   10.7850   56.7020 C.ar    1  L5G1        0.1421
     10  C15       24.1990   11.0250   57.6610 C.ar    1  L5G1        0.1019
     11  C17       22.8320    9.2880   58.4090 C.ar    1  L5G1        0.0872
     12  C20       20.4310    7.8810   58.3500 C.ar    1  L5G1        0.0371
     13  C21       20.6110    8.9750   57.5050 C.ar    1  L5G1        0.0076
     14  C22       22.2490    5.9330   60.8780 C.3     1  L5G1        0.2525
     15  O2        21.1940    6.3870   60.0150 O.3     1  L5G1       -0.4714
     16  C19       21.4460    7.4750   59.2200 C.ar    1  L5G1        0.1402
     17  C18       22.6520    8.1860   59.2510 C.ar    1  L5G1        0.0561
     18  C16       21.8080    9.6830   57.5350 C.ar    1  L5G1        0.0519
     19  N5        23.9890    9.9720   58.4400 N.ar    1  L5G1       -0.2435
     20  C14       23.2150   11.4610   56.7690 C.ar    1  L5G1        0.0576
     21  O1        20.9960   11.1640   55.8430 O.3     1  L5G1       -0.4671
     22  C12       21.0990   12.5060   55.2520 C.3     1  L5G1        0.2721
     23  C11       20.7660   13.6440   55.9900 C.ar    1  L5G1        0.2076
     24  N2        19.7330   13.7400   56.9100 N.ar    1  L5G1       -0.1915
     25  N4        21.3910   14.8220   55.9320 N.ar    1  L5G1       -0.1277
     26  C9        18.9220   15.5220   58.3060 C.ar    1  L5G1        0.0422
     27  C3        17.0800   11.0860   58.1580 C.ar    1  L5G1        0.0016
     28  C2        16.1430   10.1300   58.5470 C.ar    1  L5G1        0.0000
     29  C1        15.1280   10.4830   59.4370 C.ar    1  L5G1        0.0000
@<TRIPOS>BOND
     1    22    21    1
     2    22    23    1
     3    21     9    1
     4    25    23   ar
     5    25     2   ar
     6    23    24   ar
     7     9    20   ar
     8     9    18   ar
     9     2     8   ar
    10    20    10   ar
    11    24     1   ar
    12    24     8   ar
    13     1     6   ar
    14     8    26   ar
    15    13    18   ar
    16    13    12   ar
    17    18    11   ar
    18    10    19   ar
    19    27    28   ar
    20    27     3   ar
    21     6     3    1
    22     6     7   ar
    23    26     7   ar
    24    12    16   ar
    25    11    19   ar
    26    11    17   ar
    27    28    29   ar
    28     3     4   ar
    29    16    17   ar
    30    16    15    1
    31    29     5   ar
    32     4     5   ar
    33    15    14    1
