@<TRIPOS>MOLECULE
3cda_8HI_A_1.pdb
 45 48 0 0 0
SMALL
GASTEIGER

@<TRIPOS>ATOM
      1  N1        21.7720   26.0980   14.1560 N.am    2  8HI2       -0.1742
      2  C4        16.5350   24.4240   17.1810 C.ar    2  8HI2        0.0023
      3  C5        15.5700   24.0430   18.1180 C.ar    2  8HI2        0.0296
      4  C6        18.1760   23.7710   15.3620 C.ar    2  8HI2        0.0132
      5  C7        18.0090   23.5820   14.0030 C.ar    2  8HI2        0.0371
      6  C8        20.0630   24.3550   14.3530 C.ar    2  8HI2        0.1157
      7  C10       19.9790   24.5550   16.9480 C.ar    2  8HI2        0.0016
      8  C13       20.9440   25.3630   19.4560 C.ar    2  8HI2        0.0000
      9  C15       20.0850   23.6380   17.9850 C.ar    2  8HI2        0.0000
     10  C17       22.9810   26.6470   13.8430 C.ar    2  8HI2        0.0738
     11  C20       25.3430   27.9700   13.0700 C.ar    2  8HI2        0.1251
     12  C21       25.3920   26.6610   13.5650 C.ar    2  8HI2        0.0213
     13  C22       24.2180   25.9960   13.9440 C.ar    2  8HI2        0.0180
     14  C24       19.8600   25.2760   11.4240 C.3     2  8HI2        0.0245
     15  C26       16.7500   23.1070   13.3180 C.3     2  8HI2        0.0464
     16  C28       15.5310   21.1720   12.3300 C.3     2  8HI2        0.1549
     17  O5        16.8040   17.6360   16.1000 O.co2   2  8HI2       -0.2456
     18  C32       15.7920   17.3590   15.4610 C.2     2  8HI2        0.3674
     19  O6        14.7630   16.7640   16.0510 O.co2   2  8HI2       -0.2456
     20  C31       15.6940   17.7240   14.0070 C.3     2  8HI2        0.1469
     21  C30       15.4480   19.2200   13.8960 C.3     2  8HI2        0.1658
     22  O4        14.1610   19.5490   14.3790 O.3     2  8HI2       -0.2225
     23  C29       15.5330   19.6580   12.4450 C.3     2  8HI2        0.0663
     24  O3        15.2560   21.5150   10.9810 O.3     2  8HI2       -0.2230
     25  C27       16.9010   21.7190   12.7340 C.3     2  8HI2        0.0392
     26  C3        17.1390   23.4570   16.3900 C.ar    2  8HI2        0.0013
     27  C2        16.7950   22.1160   16.5500 C.ar    2  8HI2        0.0023
     28  C1        15.8420   21.7320   17.4870 C.ar    2  8HI2        0.0296
     29  C         15.2310   22.7010   18.2730 C.ar    2  8HI2        0.1401
     30  F         14.3070   22.3300   19.1750 F       2  8HI2       -0.2042
     31  N         19.1790   23.9410   13.4110 N.ar    2  8HI2       -0.3289
     32  C23       19.3720   23.9140   11.9200 C.3     2  8HI2        0.0854
     33  C25       20.2500   22.7570   11.4730 C.3     2  8HI2        0.0245
     34  C9        19.4490   24.2060   15.5950 C.ar    2  8HI2        0.0214
     35  C11       20.3380   25.8860   17.1850 C.ar    2  8HI2        0.0000
     36  C12       20.8300   26.2930   18.4260 C.ar    2  8HI2        0.0000
     37  C14       20.5740   24.0390   19.2300 C.ar    2  8HI2        0.0000
     38  C16       21.4770   24.7970   14.1410 C.2     2  8HI2        0.2849
     39  O         22.1730   23.9760   13.5700 O.2     2  8HI2       -0.2664
     40  C18       22.9460   27.9460   13.3380 C.ar    2  8HI2        0.0180
     41  C19       24.1110   28.6120   12.9670 C.ar    2  8HI2        0.0213
     42  S         26.6630   28.7720   12.6430 S.O2    2  8HI2        0.0935
     43  O1        27.7390   27.8980   12.2940 O.2     2  8HI2       -0.1503
     44  O2        26.3590   29.6320   11.5290 O.2     2  8HI2       -0.1503
     45  N2        27.0590   29.6990   13.8850 N.3     2  8HI2        0.0392
@<TRIPOS>BOND
     1    24    16    1
     2    14    32    1
     3    33    32    1
     4    44    42    2
     5    32    31    1
     6    43    42    2
     7    16    23    1
     8    16    25    1
     9    23    21    1
    10    42    11    1
    11    42    45    1
    12    25    15    1
    13    41    11   ar
    14    41    40   ar
    15    11    12   ar
    16    15     5    1
    17    40    10   ar
    18    31     5   ar
    19    31     6   ar
    20    12    13   ar
    21    39    38    2
    22    10    13   ar
    23    10     1    1
    24    21    20    1
    25    21    22    1
    26     5     4   ar
    27    20    18    1
    28    38     1   am
    29    38     6    1
    30     6    34   ar
    31     4    34   ar
    32     4    26    1
    33    18    19   ar
    34    18    17   ar
    35    34     7    1
    36    26    27   ar
    37    26     2   ar
    38    27    28   ar
    39     7    35   ar
    40     7     9   ar
    41     2     3   ar
    42    35    36   ar
    43    28    29   ar
    44     9    37   ar
    45     3    29   ar
    46    29    30    1
    47    36     8   ar
    48    37     8   ar
