@<TRIPOS>MOLECULE
3cdb_9HI_A_1.pdb
 46 49 0 0 0
SMALL
GASTEIGER

@<TRIPOS>ATOM
      1  N1        14.3860    6.5480   45.4770 N.ar    1  9HI1       -0.3293
      2  N3        10.9610    7.4240   51.3610 N.am    1  9HI1       -0.0837
      3  C5        14.5670    5.2740   45.8620 C.ar    1  9HI1        0.0609
      4  C6        15.4940    8.8340   45.8730 C.3     1  9HI1        0.0397
      5  C7        13.3080    6.9340   44.5720 C.3     1  9HI1        0.1084
      6  C8        13.7390    6.7040   43.1340 C.3     1  9HI1        0.0574
      7  C10       12.9670    6.1130   40.8620 C.3     1  9HI1        0.0664
      8  C13       14.2200    9.6060   46.2210 C.3     1  9HI1        0.0063
      9  C15       12.3190    2.2800   46.2390 C.ar    1  9HI1        0.0297
     10  C17       15.7760    7.0350   51.3220 C.ar    1  9HI1        0.0182
     11  C20       14.5580    7.2400   51.9820 C.ar    1  9HI1        0.0060
     12  C21       14.2090    3.2580   44.4460 C.ar    1  9HI1        0.0037
     13  C22       17.5150    2.0290   47.1600 C.ar    1  9HI1        0.0296
     14  C24       13.5750    2.0490   44.1930 C.ar    1  9HI1        0.0297
     15  C26       14.7180    7.5460   49.2380 C.ar    1  9HI1        0.0182
     16  C28       17.4920    1.8500   48.5270 C.ar    1  9HI1        0.1401
     17  O5        12.0840    8.4000   53.0310 O.2     1  9HI1       -0.2667
     18  C3        12.0950    7.8310   51.9490 C.2     1  9HI1        0.2842
     19  C29       13.4160    7.6000   51.2630 C.ar    1  9HI1        0.0567
     20  C23       13.5080    7.7530   49.8860 C.ar    1  9HI1        0.0060
     21  C32       15.8780    7.1870   49.9330 C.ar    1  9HI1        0.0910
     22  N2        17.0960    6.9700   49.3440 N.pl3   1  9HI1       -0.0965
     23  S1        17.4550    6.9580   47.7680 S.O2    1  9HI1        0.0939
     24  O1        18.0050    8.2250   47.3980 O.2     1  9HI1       -0.1483
     25  O2        18.4950    5.9980   47.5610 O.2     1  9HI1       -0.1483
     26  C2        16.1620    6.5290   46.8290 C.ar    1  9HI1        0.1399
     27  C1        15.7030    5.2520   46.7700 C.ar    1  9HI1        0.0358
     28  C31       16.3020    4.0670   47.4260 C.ar    1  9HI1        0.0029
     29  C25       16.9240    3.1420   46.6090 C.ar    1  9HI1        0.0024
     30  C16       16.2770    3.8950   48.8050 C.ar    1  9HI1        0.0024
     31  C19       16.8780    2.7770   49.3620 C.ar    1  9HI1        0.0296
     32  F2        18.0740    0.7600   49.0240 F       1  9HI1       -0.2042
     33  C12       15.3400    7.3570   46.0450 C.ar    1  9HI1        0.0556
     34  C14       15.9900    9.1380   44.4600 C.3     1  9HI1        0.0063
     35  C27       13.8910    3.9790   45.5940 C.ar    1  9HI1        0.0160
     36  C30       12.6340    1.5650   45.0940 C.ar    1  9HI1        0.1401
     37  C18       12.9510    3.4910   46.4910 C.ar    1  9HI1        0.0037
     38  F1        12.0240    0.4040   44.8510 F       1  9HI1       -0.2042
     39  C9        12.5260    6.6510   42.2160 C.3     1  9HI1        0.1565
     40  O4        11.9960    7.9580   42.0640 O.3     1  9HI1       -0.2230
     41  C11       13.0460    4.5940   40.8430 C.3     1  9HI1        0.1658
     42  O3        11.7790    4.0510   41.1830 O.3     1  9HI1       -0.2225
     43  C35       13.4780    4.1510   39.4510 C.3     1  9HI1        0.1469
     44  C36       13.9130    2.7050   39.4440 C.2     1  9HI1        0.3674
     45  O6        14.9610    2.3630   39.9760 O.co2   1  9HI1       -0.2456
     46  O7        13.1480    1.7990   38.8470 O.co2   1  9HI1       -0.2456
@<TRIPOS>BOND
     1    46    44   ar
     2    44    43    1
     3    44    45   ar
     4    43    41    1
     5    41     7    1
     6    41    42    1
     7     7    39    1
     8    40    39    1
     9    39     6    1
    10     6     5    1
    11    14    12   ar
    12    14    36   ar
    13    12    35   ar
    14    34     4    1
    15     5     1    1
    16    38    36    1
    17    36     9   ar
    18     1     3   ar
    19     1    33   ar
    20    35     3    1
    21    35    37   ar
    22     3    27   ar
    23     4    33    1
    24     4     8    1
    25    33    26   ar
    26     9    37   ar
    27    29    13   ar
    28    29    28   ar
    29    27    26   ar
    30    27    28    1
    31    26    23    1
    32    13    16   ar
    33    24    23    2
    34    28    30   ar
    35    25    23    2
    36    23    22    1
    37    16    32    1
    38    16    31   ar
    39    30    31   ar
    40    15    20   ar
    41    15    21   ar
    42    22    21    1
    43    20    19   ar
    44    21    10   ar
    45    19    18    1
    46    19    11   ar
    47    10    11   ar
    48     2    18   am
    49    18    17    2
