@<TRIPOS>MOLECULE
3cde_N3H_A_1.pdb
 35 38 0 0 0
SMALL
GASTEIGER

@<TRIPOS>ATOM
      1  C4        97.1910    8.4740   51.0050 C.ar  579  N3H579      0.0083
      2  C5        96.3130    8.3060   61.2490 C.2   579  N3H579      0.0405
      3  C6        98.2970    6.4460   50.7650 C.ar  579  N3H579      0.0355
      4  C7        95.0690    9.0170   59.2540 C.2   579  N3H579      0.1434
      5  C8        95.7890    9.4020   61.9650 C.2   579  N3H579      0.0882
      6  C10       96.8340    7.8460   52.1800 C.ar  579  N3H579      0.0470
      7  C13       95.9190    7.7600   54.6240 C.3   579  N3H579      0.2171
      8  C15       94.4130    9.6170   55.1680 C.2   579  N3H579      0.2620
      9  C17       90.6100    9.2730   52.2970 C.3   579  N3H579      0.0001
     10  C20       93.8660   11.2450   53.3870 C.3   579  N3H579      0.1192
     11  C21       92.0860    9.6850   52.2840 C.3   579  N3H579      0.0018
     12  O31       95.7360    7.1320   63.9560 O.2   579  N3H579     -0.1528
     13  S35       96.3040    8.3730   64.4700 S.O2  579  N3H579      0.0750
     14  O30       95.9180    8.8660   65.7720 O.2   579  N3H579     -0.1528
     15  C18       98.0750    8.2330   64.5250 C.3   579  N3H579      0.2016
     16  N26       96.1250    9.6520   63.3340 N.pl3 579  N3H579     -0.1009
     17  C3        94.9260   10.2980   61.3320 C.2   579  N3H579     -0.0005
     18  C9        95.9390    8.1300   59.9030 C.2   579  N3H579      0.1576
     19  S34       96.5580    6.7540   58.9890 S.O2  579  N3H579      0.1109
     20  O28       97.9620    6.6410   59.3120 O.2   579  N3H579     -0.1456
     21  O29       95.6570    5.6390   59.2310 O.2   579  N3H579     -0.1456
     22  N24       96.3390    7.2290   57.3820 N.2   579  N3H579     -0.0655
     23  C14       95.3970    8.2320   57.0430 C.1   579  N3H579      0.0935
     24  N22       94.6760    8.8910   57.9120 N.2   579  N3H579     -0.3555
     25  C2        94.5690   10.1110   59.9900 C.3   579  N3H579      0.0887
     26  C12       95.2850    8.4810   55.5880 C.3   579  N3H579      0.2123
     27  O32       96.4070    6.4850   54.8110 O.3   579  N3H579     -0.2149
     28  O27       93.6570   10.1720   55.9750 O.2   579  N3H579     -0.2719
     29  N25       94.5550   10.0610   53.8660 N.am  579  N3H579     -0.1801
     30  C19       92.3820   10.9410   53.1360 C.3   579  N3H579      0.0237
     31  C16       92.5560    9.9070   50.8370 C.3   579  N3H579      0.0001
     32  N23       95.3460    9.4620   52.9410 N.2   579  N3H579     -0.1770
     33  C11       96.0010    8.3910   53.2630 C.2   579  N3H579      0.1142
     34  S33       97.5260    6.2840   52.2880 S.2   579  N3H579     -0.0851
     35  C1        98.0280    7.6640   50.1840 C.ar  579  N3H579      0.0075
@<TRIPOS>BOND
     1    35     3   ar
     2    35     1   ar
     3     3    34   ar
     4    31    11    1
     5     1     6   ar
     6     6    34   ar
     7     6    33    1
     8    11     9    1
     9    11    30    1
    10    32    33    2
    11    32    29    1
    12    30    10    1
    13    33     7    1
    14    10    29    1
    15    29     8   am
    16     7    27    1
    17     7    26    1
    18     8    26    1
    19     8    28    2
    20    26    23    1
    21    23    22    2
    22    23    24    2
    23    22    19    1
    24    24     4    2
    25    19    21    2
    26    19    20    2
    27    19    18    1
    28     4    18    1
    29     4    25    1
    30    18     2    2
    31    25    17    1
    32     2     5    1
    33    17     5    2
    34     5    16    1
    35    16    13    1
    36    12    13    2
    37    13    15    1
    38    13    14    2
