@<TRIPOS>MOLECULE
3cdp_YRG_A_1.pdb
 19 20 0 0 0
SMALL
GASTEIGER

@<TRIPOS>ATOM
      1  CAK       20.3010   65.6800   18.2520 C.ar    1  YRG1        0.0378
      2  CAI       21.0020   66.8780   18.1800 C.ar    1  YRG1        0.0145
      3  CAP       22.3460   66.8830   17.8210 C.ar    1  YRG1        0.0579
      4 CLAC       23.1990   68.3810   17.6610 Cl      1  YRG1       -0.0822
      5  CAJ       22.9920   65.6850   17.5420 C.ar    1  YRG1        0.0145
      6  CAL       22.2910   64.4860   17.6160 C.ar    1  YRG1        0.0378
      7  CAR       20.9460   64.4810   17.9650 C.ar    1  YRG1        0.1393
      8  OAN       20.2630   63.3040   17.9530 O.3     1  YRG1       -0.4673
      9  CAS       19.1140   63.3080   18.8140 C.3     1  YRG1        0.2719
     10  CAO       19.5260   63.2930   20.2890 C.2     1  YRG1        0.4044
     11  OAB       18.6300   63.0780   21.1330 O.co2   1  YRG1       -0.2416
     12  OAA       20.7270   63.4890   20.5770 O.co2   1  YRG1       -0.2416
     13  CAM       18.2900   62.0490   18.5370 C.3     1  YRG1        0.0818
     14  CAQ       17.9120   61.9500   17.0570 C.ar    1  YRG1       -0.0180
     15  CAG       16.5910   62.1230   16.6600 C.ar    1  YRG1       -0.0041
     16  CAE       16.2480   62.0390   15.3160 C.ar    1  YRG1       -0.0003
     17  CAD       17.2300   61.7800   14.3660 C.ar    1  YRG1       -0.0000
     18  CAF       18.5520   61.6040   14.7610 C.ar    1  YRG1       -0.0003
     19  CAH       18.8930   61.6890   16.1060 C.ar    1  YRG1       -0.0041
@<TRIPOS>BOND
     1    17    18   ar
     2    17    16   ar
     3    18    19   ar
     4    16    15   ar
     5    19    14   ar
     6    15    14   ar
     7    14    13    1
     8     5     6   ar
     9     5     3   ar
    10     6     7   ar
    11     4     3    1
    12     3     2   ar
    13     8     7    1
    14     8     9    1
    15     7     1   ar
    16     2     1   ar
    17    13     9    1
    18     9    10    1
    19    10    12   ar
    20    10    11   ar
