@<TRIPOS>MOLECULE
3cds_GRR_A_1.pdb
 20 21 0 0 0
SMALL
GASTEIGER

@<TRIPOS>ATOM
      1  CAA       22.3980   68.7950   17.3160 C.3     1  GRR1        0.0050
      2  CAM       23.1100   67.6720   18.0730 C.3     1  GRR1        0.0264
      3  CAQ       22.2790   66.3870   18.0690 C.ar    1  GRR1       -0.0220
      4  CAJ       22.6310   65.3320   17.2350 C.ar    1  GRR1       -0.0012
      5  CAL       21.8930   64.1540   17.2530 C.ar    1  GRR1        0.0366
      6  CAI       21.1840   66.2620   18.9160 C.ar    1  GRR1       -0.0012
      7  CAK       20.4480   65.0820   18.9330 C.ar    1  GRR1        0.0366
      8  CAS       20.8010   64.0230   18.1040 C.ar    1  GRR1        0.1392
      9  OAO       20.1150   62.8470   18.1250 O.3     1  GRR1       -0.4673
     10  CAT       18.7410   63.0050   18.5130 C.3     1  GRR1        0.2719
     11  CAP       18.6690   63.0020   20.0410 C.2     1  GRR1        0.4044
     12  OAC       19.7210   62.7680   20.6750 O.co2   1  GRR1       -0.2416
     13  OAB       17.5600   63.2340   20.5690 O.co2   1  GRR1       -0.2416
     14  CAN       17.9260   61.8040   18.0290 C.3     1  GRR1        0.0818
     15  CAR       17.9590   61.6530   16.5060 C.ar    1  GRR1       -0.0180
     16  CAG       16.8000   61.8540   15.7660 C.ar    1  GRR1       -0.0041
     17  CAE       16.8170   61.6860   14.3850 C.ar    1  GRR1       -0.0003
     18  CAD       17.9940   61.3180   13.7440 C.ar    1  GRR1       -0.0000
     19  CAF       19.1540   61.1180   14.4840 C.ar    1  GRR1       -0.0003
     20  CAH       19.1360   61.2860   15.8650 C.ar    1  GRR1       -0.0041
@<TRIPOS>BOND
     1    18    17   ar
     2    18    19   ar
     3    17    16   ar
     4    19    20   ar
     5    16    15   ar
     6    20    15   ar
     7    15    14    1
     8     4     5   ar
     9     4     3   ar
    10     5     8   ar
    11     1     2    1
    12    14    10    1
    13     3     2    1
    14     3     6   ar
    15     8     9    1
    16     8     7   ar
    17     9    10    1
    18    10    11    1
    19     6     7   ar
    20    11    13   ar
    21    11    12   ar
