@<TRIPOS>MOLECULE
3ce0_P34_A_1.pdb
 22 24 0 0 0
SMALL
GASTEIGER

@<TRIPOS>ATOM
      1  CAA       21.7950   -7.7540   18.0360 C.3   601  P34601      0.0900
      2  N         22.0100   -6.3750   17.5780 N.3   601  P34601     -0.2625
      3  CAB       21.1840   -5.4460   18.3610 C.3   601  P34601      0.0900
      4  CA        21.6570   -6.2600   16.1570 C.3   601  P34601      0.1606
      5  C         22.8490   -6.2570   15.1840 C.2   601  P34601      0.2619
      6  O         23.9550   -6.4330   15.5810 O.2   601  P34601     -0.2715
      7  NAM       22.5890   -6.1590   13.7510 N.am  601  P34601     -0.1783
      8  CAP       21.2190   -5.9190   13.3130 C.2   601  P34601      0.0696
      9  CAK       20.4030   -7.0530   12.6470 C.2   601  P34601      0.0185
     10  CAU       18.9420   -6.7820   12.2000 C.2   601  P34601      0.0287
     11  CAT       18.1280   -7.8810   11.5410 C.ar  601  P34601      0.0141
     12  CAI       18.7740   -9.2750   11.3230 C.ar  601  P34601      0.0008
     13  CAF       17.9440  -10.3860   10.6560 C.ar  601  P34601      0.0000
     14  CAE       16.5010  -10.1350   10.2080 C.ar  601  P34601      0.0008
     15  CAH       15.8680   -8.7560   10.4270 C.ar  601  P34601      0.0127
     16  CAS       16.7070   -7.6300   11.1030 C.ar  601  P34601      0.0948
     17  CAQ       16.0840   -6.2240   11.3330 C.1   601  P34601      0.2043
     18  OAD       14.7630   -5.9630   10.9570 O.2   601  P34601     -0.2093
     19  NAN       16.8910   -5.1350   11.9840 N.2   601  P34601     -0.3370
     20  CAR       18.3160   -5.3880   12.4260 C.2   601  P34601      0.1263
     21  CAJ       19.1340   -4.2500   13.0970 C.3   601  P34601      0.0873
     22  CAG       20.5870   -4.5150   13.5420 C.2   601  P34601     -0.0020
@<TRIPOS>BOND
     1    14    15   ar
     2    14    13   ar
     3    15    16   ar
     4    13    12   ar
     5    18    17    2
     6    16    17    1
     7    16    11   ar
     8    12    11   ar
     9    17    19    2
    10    11    10    1
    11    19    20    2
    12    10    20    1
    13    10     9    2
    14    20    21    1
    15     9     8    1
    16    21    22    1
    17     8    22    2
    18     8     7    1
    19     7     5   am
    20     5     6    2
    21     5     4    1
    22     4     2    1
    23     2     1    1
    24     2     3    1
