@<TRIPOS>MOLECULE
3ce3_1FN_A_1.pdb
 34 38 0 0 0
SMALL
GASTEIGER

@<TRIPOS>ATOM
      1  C13       20.1290   13.9630   56.6070 C.ar  1401  1FN1401     0.1751
      2  C18       20.9900   19.2030   54.1050 C.ar  1401  1FN1401     0.1118
      3  C17       20.6500   17.8170   54.4190 C.2   1401  1FN1401     0.2736
      4  C20       21.1940   20.2600   55.1650 C.ar  1401  1FN1401     0.2692
      5  C22       21.5690   21.9420   53.3500 C.ar  1401  1FN1401     0.0829
      6  C23       21.3710   20.9230   52.3980 C.ar  1401  1FN1401     0.0194
      7  C24       21.0970   19.5900   52.7750 C.ar  1401  1FN1401     0.0109
      8  C11       20.2820   16.3960   56.4620 C.ar  1401  1FN1401     0.0761
      9  C12       20.3220   15.1680   55.8210 C.ar  1401  1FN1401     0.0494
     10  C34       20.6950   23.6230   55.6090 C.ar  1401  1FN1401     0.0199
     11  C27       19.2290   10.7480   61.0600 C.2   1401  1FN1401     0.0103
     12  C33       20.8330   24.6500   56.5850 C.ar  1401  1FN1401     0.0311
     13  C1        20.4990   11.3330   60.5740 C.2   1401  1FN1401     0.0813
     14  C2        21.5490   10.8710   61.3510 C.1   1401  1FN1401     0.0305
     15  N3        22.8200   11.2670   61.1320 N.2   1401  1FN1401    -0.1930
     16  C4        23.2390   12.1540   60.1260 C.2   1401  1FN1401     0.1089
     17  C5        22.2400   12.6710   59.2710 C.2   1401  1FN1401     0.0433
     18  C6        20.8620   12.2850   59.4790 C.3   1401  1FN1401     0.2209
     19  O7        19.7230   12.7650   58.6810 O.3   1401  1FN1401    -0.4673
     20  C8        19.8800   14.0030   57.9990 C.ar  1401  1FN1401     0.1667
     21  C9        19.8310   15.3190   58.6040 C.ar  1401  1FN1401     0.0406
     22  C10       20.0310   16.5250   57.8520 C.ar  1401  1FN1401     0.0199
     23  F14       20.1860   12.6880   56.0620 F     1401  1FN1401    -0.2009
     24  N15       20.4830   17.5510   55.7970 N.am  1401  1FN1401    -0.1752
     25  O19       20.5080   17.0310   53.4880 O.2   1401  1FN1401    -0.2678
     26  N21       21.4960   21.6110   54.6410 N.ar  1401  1FN1401    -0.2730
     27  O25       21.1200   20.0560   56.4290 O.2   1401  1FN1401    -0.2665
     28  C26       21.6840   22.5980   55.5700 C.ar  1401  1FN1401     0.0670
     29  C28       19.6860    9.9130   62.1750 C.3   1401  1FN1401     0.1629
     30  N29       21.1120   10.0280   62.3290 N.2   1401  1FN1401    -0.2153
     31  C30       22.8050   22.5980   56.5220 C.ar  1401  1FN1401     0.0199
     32  C31       22.9820   23.6210   57.5240 C.ar  1401  1FN1401     0.0311
     33  C32       21.9480   24.6060   57.4700 C.ar  1401  1FN1401     0.1402
     34  F35       22.1450   25.4620   58.3510 F     1401  1FN1401    -0.2042
@<TRIPOS>BOND
     1     6     7   ar
     2     6     5   ar
     3     7     2   ar
     4     5    26   ar
     5    25     3    2
     6     2     3    1
     7     2     4   ar
     8     3    24   am
     9    26     4   ar
    10    26    28    1
    11     4    27    2
    12    28    10   ar
    13    28    31   ar
    14    10    12   ar
    15    24     8    1
    16     9     8   ar
    17     9     1   ar
    18    23     1    1
    19     8    22   ar
    20    31    32   ar
    21    12    33   ar
    22     1    20   ar
    23    33    32   ar
    24    33    34    1
    25    22    21   ar
    26    20    21   ar
    27    20    19    1
    28    19    18    1
    29    17    18    1
    30    17    16    2
    31    18    13    1
    32    16    15    1
    33    13    11    2
    34    13    14    1
    35    11    29    1
    36    15    14    2
    37    14    30    2
    38    29    30    1
