@<TRIPOS>MOLECULE
3ce4_PMS_A_1.pdb
 10 10 0 0 0
SMALL
GASTEIGER

@<TRIPOS>ATOM
      1  C         31.6760   17.5660   15.1160 C.3   200  PMS200      0.1742
      2  S         31.3750   18.8760   13.8730 S.3   200  PMS200     -0.0138
      3  C1        30.6420   16.4390   15.0410 C.ar  200  PMS200      0.0010
      4  C2        31.0540   15.1470   14.7290 C.ar  200  PMS200     -0.0026
      5  C3        30.1280   14.1100   14.6850 C.ar  200  PMS200     -0.0003
      6  C4        28.7870   14.3630   14.9500 C.ar  200  PMS200     -0.0000
      7  C5        28.3730   15.6550   15.2620 C.ar  200  PMS200     -0.0003
      8  C6        29.2990   16.6950   15.3080 C.ar  200  PMS200     -0.0026
      9  O2S       29.9680   19.3840   13.9960 O.3   200  PMS200     -0.0778
     10  O1S       32.3360   19.9980   14.1220 O.3   200  PMS200     -0.0778
@<TRIPOS>BOND
     1     2     9    1
     2     2    10    1
     3     2     1    1
     4     5     4   ar
     5     5     6   ar
     6     4     3   ar
     7     6     7   ar
     8     3     1    1
     9     3     8   ar
    10     7     8   ar
