@<TRIPOS>MOLECULE
3ce6_ADN_A_1.pdb
 19 21 0 0 0
SMALL
GASTEIGER

@<TRIPOS>ATOM
      1  O5'      -14.9020   -2.4010   44.3420 O.3   500  ADN500     -0.2176
      2  C5'      -14.3270   -2.7190   43.0770 C.3   500  ADN500      0.2143
      3  C4'      -14.2590   -1.4130   42.2890 C.3   500  ADN500      0.1851
      4  O4'      -13.1930   -0.6160   42.7930 O.3   500  ADN500     -0.3134
      5  C3'      -14.0040   -1.5670   40.7810 C.3   500  ADN500      0.2186
      6  O3'      -15.2220   -1.7010   40.0250 O.3   500  ADN500     -0.2174
      7  C2'      -13.2210   -0.3040   40.4390 C.3   500  ADN500      0.2570
      8  O2'      -13.9110    0.5170   39.5210 O.3   500  ADN500     -0.2130
      9  C1'      -13.0840    0.3830   41.8050 C.3   500  ADN500      0.3186
     10  N9       -11.8290    1.1380   41.9280 N.pl3 500  ADN500     -0.1439
     11  C8       -10.5790    0.7480   41.6280 C.3   500  ADN500      0.3377
     12  N7        -9.6820    1.7200   41.8480 N.2   500  ADN500     -0.2095
     13  C5       -10.3740    2.7660   42.3450 C.2   500  ADN500      0.2526
     14  C6       -10.0280    4.1210   42.7700 C.2   500  ADN500      0.4393
     15  N6        -8.7540    4.5260   42.6950 N.pl3 500  ADN500      0.2180
     16  N1       -11.0330    4.8860   43.2100 N.2   500  ADN500      0.0021
     17  C2       -12.3150    4.4590   43.2440 C.3   500  ADN500      0.5254
     18  N3       -12.7370    3.2320   42.8290 N.2   500  ADN500     -0.0055
     19  C4       -11.7840    2.3700   42.3990 C.2   500  ADN500      0.3518
@<TRIPOS>BOND
     1     8     7    1
     2     6     5    1
     3     7     5    1
     4     7     9    1
     5     5     3    1
     6    11    12    1
     7    11    10    1
     8     9    10    1
     9     9     4    1
    10    12    13    2
    11    10    19    1
    12     3     4    1
    13     3     2    1
    14    13    19    1
    15    13    14    1
    16    19    18    2
    17    15    14    1
    18    14    16    2
    19    18    17    1
    20     2     1    1
    21    16    17    1
