@<TRIPOS>MOLECULE
3ce6_NAD_A_1.pdb
 44 48 0 0 0
SMALL
GASTEIGER

@<TRIPOS>ATOM
      1  PA       -15.7050  -11.6830   35.5760 P.3   550  NAD550      0.2189
      2  O1A      -17.0510  -12.3220   35.8820 O.3   550  NAD550     -0.4371
      3  O2A      -15.4770  -11.0170   34.2570 O.2   550  NAD550     -0.5170
      4  O5B      -14.4790  -12.6550   35.8410 O.3   550  NAD550     -0.3112
      5  C5B      -14.4330  -13.5210   36.9710 C.3   550  NAD550      0.1813
      6  C4B      -13.9280  -14.8710   36.4700 C.3   550  NAD550      0.1821
      7  O4B      -13.7080  -15.7430   37.5750 O.3   550  NAD550     -0.3135
      8  C3B      -14.8990  -15.5500   35.4880 C.3   550  NAD550      0.2184
      9  O3B      -14.3580  -15.6820   34.1570 O.3   550  NAD550     -0.2174
     10  C2B      -15.1750  -16.9130   36.1450 C.3   550  NAD550      0.2570
     11  O2B      -15.3260  -18.0140   35.2190 O.3   550  NAD550     -0.2130
     12  C1B      -13.9920  -17.0560   37.0840 C.3   550  NAD550      0.3186
     13  N9A      -14.2920  -17.9190   38.2310 N.pl3 550  NAD550     -0.1439
     14  C8A      -15.4270  -17.9430   38.9830 C.3   550  NAD550      0.3377
     15  N7A      -15.2900  -18.8620   39.9710 N.2   550  NAD550     -0.2095
     16  C5A      -14.0490  -19.4170   39.8650 C.2   550  NAD550      0.2526
     17  C6A      -13.3210  -20.3730   40.5510 C.2   550  NAD550      0.4393
     18  N6A      -13.8790  -21.0280   41.6090 N.pl3 550  NAD550      0.2180
     19  N1A      -12.0510  -20.6670   40.1650 N.2   550  NAD550      0.0021
     20  C2A      -11.4920  -20.0680   39.0930 C.3   550  NAD550      0.5254
     21  N3A      -12.1150  -19.1300   38.4010 N.2   550  NAD550     -0.0055
     22  C4A      -13.4030  -18.7720   38.7190 C.2   550  NAD550      0.3518
     23  O3       -15.5360  -10.5590   36.7220 O.3   550  NAD550     -0.2703
     24  PN       -14.4750   -9.3290   36.7310 P.3   550  NAD550      0.2189
     25  O1N      -13.1400   -9.8380   36.2940 O.3   550  NAD550     -0.4371
     26  O2N      -15.1030   -8.1450   36.0760 O.2   550  NAD550     -0.5170
     27  O5D      -14.4230   -8.9970   38.3030 O.3   550  NAD550     -0.3112
     28  C5D      -13.9050   -9.9320   39.2430 C.3   550  NAD550      0.1813
     29  C4D      -13.9740   -9.3060   40.6270 C.3   550  NAD550      0.1799
     30  O4D      -13.1680   -8.1170   40.6960 O.3   550  NAD550     -0.3327
     31  C3D      -15.3750   -8.8710   41.0010 C.3   550  NAD550      0.2158
     32  O3D      -15.5280   -9.1100   42.4130 O.3   550  NAD550     -0.2175
     33  C2D      -15.3170   -7.3760   40.7040 C.3   550  NAD550      0.2309
     34  O2D      -16.3530   -6.6620   41.3780 O.3   550  NAD550     -0.2158
     35  C1D      -13.9340   -7.0110   41.1660 C.3   550  NAD550      0.2263
     36  N1N      -13.3050   -5.8310   40.5770 N.pl3 550  NAD550     -0.2787
     37  C2N      -12.2880   -5.3380   41.3060 C.3   550  NAD550      0.1244
     38  C3N      -11.5090   -4.2730   40.8560 C.2   550  NAD550      0.0544
     39  C7N      -10.4090   -3.7330   41.7400 C.2   550  NAD550      0.2818
     40  O7N      -10.0460   -2.5030   41.4550 O.2   550  NAD550     -0.2670
     41  N7N       -9.9220   -4.3820   42.7240 N.am  550  NAD550     -0.0839
     42  C4N      -11.7610   -3.7220   39.5730 C.2   550  NAD550      0.0033
     43  C5N      -12.8410   -4.2560   38.8330 C.2   550  NAD550      0.0157
     44  C6N      -13.5790   -5.3440   39.3370 C.2   550  NAD550      0.0633
@<TRIPOS>BOND
     1     9     8    1
     2     3     1    2
     3    11    10    1
     4     8    10    1
     5     8     6    1
     6     1     4    1
     7     1     2    1
     8     1    23    1
     9     4     5    1
    10    26    24    2
    11    10    12    1
    12    25    24    1
    13     6     5    1
    14     6     7    1
    15    23    24    1
    16    24    27    1
    17    12     7    1
    18    12    13    1
    19    13    22    1
    20    13    14    1
    21    27    28    1
    22    21    22    2
    23    21    20    1
    24    22    16    1
    25    43    44    2
    26    43    42    1
    27    14    15    1
    28    20    19    1
    29    28    29    1
    30    44    36    1
    31    42    38    2
    32    16    15    2
    33    16    17    1
    34    19    17    2
    35    17    18    1
    36    36    35    1
    37    36    37    1
    38    29    30    1
    39    29    31    1
    40    30    35    1
    41    33    31    1
    42    33    35    1
    43    33    34    1
    44    38    37    1
    45    38    39    1
    46    31    32    1
    47    40    39    2
    48    39    41   am
