@<TRIPOS>MOLECULE
3cea_NAD_A_1.pdb
 44 48 0 0 0
SMALL
GASTEIGER

@<TRIPOS>ATOM
      1  PA        28.2920   83.0210   47.8560 P.3   400  NAD400      0.2189
      2  O1A       28.4040   81.7670   48.6350 O.3   400  NAD400     -0.4371
      3  O2A       29.4480   83.9160   48.0850 O.2   400  NAD400     -0.5170
      4  O5B       28.1210   82.6590   46.2970 O.3   400  NAD400     -0.3112
      5  C5B       28.2090   83.6620   45.3050 C.3   400  NAD400      0.1813
      6  C4B       28.3640   83.0160   43.9300 C.3   400  NAD400      0.1821
      7  O4B       28.1560   83.9710   42.9030 O.3   400  NAD400     -0.3135
      8  C3B       29.7530   82.4350   43.7220 C.3   400  NAD400      0.2184
      9  O3B       29.6000   81.1430   43.1890 O.3   400  NAD400     -0.2174
     10  C2B       30.4140   83.3520   42.7110 C.3   400  NAD400      0.2570
     11  O2B       31.2580   82.6560   41.8210 O.3   400  NAD400     -0.2130
     12  C1B       29.2320   83.9710   41.9830 C.3   400  NAD400      0.3186
     13  N9A       29.5290   85.3430   41.5290 N.pl3 400  NAD400     -0.1439
     14  C8A       30.0040   86.3830   42.2900 C.3   400  NAD400      0.3377
     15  N7A       30.1370   87.4750   41.5030 N.2   400  NAD400     -0.2095
     16  C5A       29.7580   87.1450   40.2480 C.2   400  NAD400      0.2526
     17  C6A       29.7030   87.8770   39.0670 C.2   400  NAD400      0.4393
     18  N6A       29.8290   89.1990   39.1100 N.pl3 400  NAD400      0.2180
     19  N1A       29.2620   87.2620   37.9080 N.2   400  NAD400      0.0021
     20  C2A       28.8800   85.9300   37.9240 C.3   400  NAD400      0.5254
     21  N3A       28.9390   85.2080   39.1030 N.2   400  NAD400     -0.0055
     22  C4A       29.3710   85.8060   40.2470 C.2   400  NAD400      0.3518
     23  O3        26.9270   83.7920   48.2280 O.3   400  NAD400     -0.2703
     24  PN        25.5920   83.0000   48.6620 P.3   400  NAD400      0.2189
     25  O1N       25.4320   81.8020   47.8030 O.2   400  NAD400     -0.5170
     26  O2N       25.6190   82.8750   50.1330 O.3   400  NAD400     -0.4371
     27  O5D       24.4010   84.0270   48.3310 O.3   400  NAD400     -0.3112
     28  C5D       24.2750   84.7010   47.1010 C.3   400  NAD400      0.1813
     29  C4D       23.0230   85.5700   47.1720 C.3   400  NAD400      0.1799
     30  O4D       21.9630   84.8490   47.7760 O.3   400  NAD400     -0.3327
     31  C3D       23.2510   86.8280   47.9970 C.3   400  NAD400      0.2158
     32  O3D       22.7930   87.9430   47.2680 O.3   400  NAD400     -0.2175
     33  C2D       22.4200   86.6240   49.2490 C.3   400  NAD400      0.2309
     34  O2D       21.8010   87.8140   49.6730 O.3   400  NAD400     -0.2158
     35  C1D       21.3880   85.5800   48.8440 C.3   400  NAD400      0.2263
     36  N1N       21.0350   84.6920   49.9700 N.pl3 400  NAD400     -0.2787
     37  C2N       19.7100   84.5070   50.2760 C.3   400  NAD400      0.1244
     38  C3N       19.3370   83.6760   51.3370 C.2   400  NAD400      0.0544
     39  C7N       17.8950   83.3270   51.5740 C.2   400  NAD400      0.2818
     40  O7N       17.5180   82.8780   52.8550 O.2   400  NAD400     -0.2670
     41  N7N       17.0060   83.4460   50.5830 N.am  400  NAD400     -0.0839
     42  C4N       20.3230   83.0360   52.0850 C.2   400  NAD400      0.0033
     43  C5N       21.6660   83.2300   51.7690 C.2   400  NAD400      0.0157
     44  C6N       22.0100   84.0630   50.7050 C.2   400  NAD400      0.0633
@<TRIPOS>BOND
     1    19    20    1
     2    19    17    2
     3    20    21    1
     4    17    18    1
     5    17    16    1
     6    21    22    2
     7    22    16    1
     8    22    13    1
     9    16    15    2
    10    15    14    1
    11    13    12    1
    12    13    14    1
    13    11    10    1
    14    12    10    1
    15    12     7    1
    16    10     8    1
    17     7     6    1
    18     9     8    1
    19     8     6    1
    20     6     5    1
    21     5     4    1
    22     4     1    1
    23    28    29    1
    24    28    27    1
    25    29    30    1
    26    29    31    1
    27    32    31    1
    28    30    35    1
    29    25    24    2
    30     1     3    2
    31     1    23    1
    32     1     2    1
    33    31    33    1
    34    23    24    1
    35    27    24    1
    36    24    26    1
    37    35    33    1
    38    35    36    1
    39    33    34    1
    40    36    37    1
    41    36    44    1
    42    37    38    1
    43    41    39   am
    44    44    43    2
    45    38    39    1
    46    38    42    2
    47    39    40    2
    48    43    42    1
