@<TRIPOS>MOLECULE
3ceh_AVE_A_1.pdb
 29 30 0 0 0
SMALL
GASTEIGER

@<TRIPOS>ATOM
      1  C1        63.2640   -6.9990   59.1220 C.ar  833  AVE833      0.1682
      2  C2        63.3810   -8.2460   58.5350 C.ar  833  AVE833      0.1676
      3  C3        63.9660   -9.3140   59.2110 C.ar  833  AVE833      0.0374
      4  C9        65.0570  -10.3040   61.2920 C.2   833  AVE833      0.2735
      5  C13       66.6910  -12.0280   61.1320 C.2   833  AVE833      0.3505
      6  C15       66.9870  -13.5570   62.9170 C.ar  833  AVE833      0.1091
      7  C16       68.3360  -13.9180   62.8550 C.ar  833  AVE833      0.0199
      8  C19       66.5410  -15.5950   64.1570 C.ar  833  AVE833      0.0451
      9  C20       66.0990  -14.4130   63.5760 C.ar  833  AVE833      0.1622
     10  C24       68.2490  -17.3270   64.8290 C.2   833  AVE833      0.3879
     11  O28       64.6530  -10.5870   62.4160 O.2   833  AVE833     -0.2679
     12  C30       64.2130  -13.5300   64.7750 C.3   833  AVE833      0.5753
     13 CL10       64.8000   -7.5180   62.6670 Cl    833  AVE833     -0.0820
     14  C5        64.2840   -7.8590   61.0810 C.ar  833  AVE833      0.0645
     15  C6        63.7090   -6.8050   60.4140 C.ar  833  AVE833      0.0435
     16  F11       62.7130   -5.9800   58.4200 F     833  AVE833     -0.2018
     17  F34       62.9240   -8.3600   57.2780 F     833  AVE833     -0.2018
     18  C4        64.4310   -9.1190   60.5080 C.ar  833  AVE833      0.0684
     19  N12       66.0220  -10.9770   60.6430 N.am  833  AVE833     -0.1221
     20  O27       67.5650  -12.5610   60.4650 O.2   833  AVE833     -0.2484
     21  N14       66.4240  -12.4700   62.3590 N.am  833  AVE833     -0.1575
     22  C17       68.7800  -15.1120   63.4590 C.ar  833  AVE833      0.0081
     23  C18       67.8790  -15.9680   64.1240 C.ar  833  AVE833      0.0829
     24  O26       67.3720  -17.8720   65.5810 O.co2 833  AVE833     -0.2406
     25  O25       69.3740  -17.8470   64.6050 O.co2 833  AVE833     -0.2406
     26  O29       64.7550  -14.1400   63.6260 O.3   833  AVE833     -0.4031
     27  F32       64.1360  -14.4090   65.7550 F     833  AVE833     -0.1328
     28  F33       63.0110  -13.0900   64.4740 F     833  AVE833     -0.1328
     29  F31       64.9690  -12.5260   65.1520 F     833  AVE833     -0.1328
@<TRIPOS>BOND
     1    17     2    1
     2    16     1    1
     3     2     1   ar
     4     2     3   ar
     5     1    15   ar
     6     3    18   ar
     7    15    14   ar
     8    20     5    2
     9    18    14   ar
    10    18     4    1
    11    19     5   am
    12    19     4   am
    13    14    13    1
    14     5    21   am
    15     4    11    2
    16    21     6    1
    17     7     6   ar
    18     7    22   ar
    19     6     9   ar
    20    22    23   ar
    21     9    26    1
    22     9     8   ar
    23    26    12    1
    24    23     8   ar
    25    23    10    1
    26    28    12    1
    27    25    10   ar
    28    12    29    1
    29    12    27    1
    30    10    24   ar
