@<TRIPOS>MOLECULE
3ceh_NBG_A_1.pdb
 15 15 0 0 0
SMALL
GASTEIGER

@<TRIPOS>ATOM
      1  C1        43.8740   12.5810   73.5050 C.3     1  NBG1        0.2446
      2  C2        43.6260   13.4020   74.7280 C.3     1  NBG1        0.2326
      3  C3        44.8840   14.1490   75.0470 C.3     1  NBG1        0.2190
      4  C4        45.9610   13.1630   75.3280 C.3     1  NBG1        0.2144
      5  C5        46.0540   12.2550   74.1470 C.3     1  NBG1        0.1828
      6  C6        47.0920   11.2030   74.4050 C.3     1  NBG1        0.2142
      7  C7        42.3680   11.4400   72.0020 C.2     1  NBG1        0.2440
      8  C8        41.2870   10.4400   72.0020 C.3     1  NBG1        0.0965
      9  N1        42.7070   11.8360   73.2080 N.am    1  NBG1       -0.1751
     10  O3        44.7090   14.9170   76.1880 O.3     1  NBG1       -0.2174
     11  O2        42.6010   14.3290   74.4720 O.3     1  NBG1       -0.2157
     12  O4        47.1660   13.8590   75.3290 O.3     1  NBG1       -0.2176
     13  O5        44.8290   11.6570   73.8860 O.3     1  NBG1       -0.3315
     14  O6        46.6280   10.2740   75.3390 O.3     1  NBG1       -0.2176
     15  O7        42.8680   11.8650   70.9910 O.2     1  NBG1       -0.2733
@<TRIPOS>BOND
     1    15     7    2
     2     7     8    1
     3     7     9   am
     4     9     1    1
     5     1    13    1
     6     1     2    1
     7    13     5    1
     8     5     6    1
     9     5     4    1
    10     6    14    1
    11    11     2    1
    12     2     3    1
    13     3     4    1
    14     3    10    1
    15     4    12    1
