@<TRIPOS>MOLECULE
3ceh_PLP_A_1.pdb
 16 16 0 0 0
SMALL
GASTEIGER

@<TRIPOS>ATOM
      1  N1        49.8440   17.3750   66.7160 N.2   832  PLP832     -0.2505
      2  C2        51.2210   17.2890   66.6720 C.2   832  PLP832      0.0679
      3  C2A       51.9240   17.4500   65.3610 C.3   832  PLP832      0.0499
      4  C3        51.9260   17.0470   67.8370 C.3   832  PLP832      0.1987
      5  O3        53.2840   16.9680   67.8220 O.3   832  PLP832     -0.2162
      6  C4        51.2220   16.9020   69.0190 C.3   832  PLP832      0.1228
      7  C4A       51.9620   17.0950   70.2830 C.2   832  PLP832      0.2141
      8  O4A       51.6000   16.4450   71.2630 O.2   832  PLP832     -0.2879
      9  C5        49.8410   16.9870   69.0530 C.2   832  PLP832      0.0147
     10  C6        49.1440   17.2210   67.8950 C.2   832  PLP832      0.0926
     11  C5A       49.0830   16.9620   70.3480 C.3   832  PLP832      0.1780
     12  O4P       49.2780   18.1350   71.0990 O.3   832  PLP832     -0.2656
     13  P         48.1550   18.5200   72.1750 P.3   832  PLP832      0.5329
     14  O1P       48.4540   17.7760   73.4460 O.3   832  PLP832     -0.1145
     15  O2P       46.7570   18.2230   71.6720 O.2   832  PLP832     -0.2224
     16  O3P       48.2530   20.0020   72.4410 O.3   832  PLP832     -0.1145
@<TRIPOS>BOND
     1     3     2    1
     2     2     1    2
     3     2     4    1
     4     1    10    1
     5     5     4    1
     6     4     6    1
     7    10     9    2
     8     6     9    1
     9     6     7    1
    10     9    11    1
    11     7     8    2
    12    11    12    1
    13    12    13    1
    14    15    13    2
    15    13    16    1
    16    13    14    1
