@<TRIPOS>MOLECULE
3cej_AVF_A_1.pdb
 31 33 0 0 0
SMALL
GASTEIGER

@<TRIPOS>ATOM
      1  C1        97.7090   13.1210   31.7330 C.ar  833  AVF833      0.1682
      2  C2        98.7820   12.5490   32.3750 C.ar  833  AVF833      0.1676
      3  C3        99.5840   11.6090   31.7400 C.ar  833  AVF833      0.0374
      4  C7       100.1580   10.2330   29.7260 C.2   833  AVF833      0.2735
      5  C11      100.7350    7.9630   29.6380 C.2   833  AVF833      0.3504
      6  C13      102.3470    7.3410   27.9860 C.ar  833  AVF833      0.0905
      7  C14      102.0450    5.9810   28.1410 C.ar  833  AVF833      0.0475
      8  C15      102.7760    4.9830   27.5070 C.ar  833  AVF833      0.1415
      9  C16      103.8360    5.3430   26.6850 C.ar  833  AVF833      0.0310
     10  C24      102.7550    9.8260   26.2680 C.3   833  AVF833      0.0914
     11  C27      103.3960   11.0840   25.6420 C.3   833  AVF833      0.0327
     12  C28      104.3140   11.8610   26.6160 C.3   833  AVF833      0.1068
     13  C29      105.0300   13.0630   25.9110 C.2   833  AVF833      0.3644
     14  O31      104.5950   13.4310   24.7960 O.co2 833  AVF833     -0.2457
     15  O30      105.9910   13.6180   26.4950 O.co2 833  AVF833     -0.2457
     16  C26      105.3110   10.8820   27.2650 C.3   833  AVF833      0.0327
     17  C25      104.5820    9.6920   27.9180 C.3   833  AVF833      0.0914
     18  N21      103.8240    8.9720   26.8590 N.pl3 833  AVF833     -0.3065
     19  C18      103.4190    7.7040   27.1410 C.ar  833  AVF833      0.0636
     20  C17      104.1390    6.6890   26.5070 C.ar  833  AVF833      0.0181
     21  F23      102.4470    3.6830   27.6870 F     833  AVF833     -0.2041
     22  N12      101.5860    8.2480   28.6300 N.am  833  AVF833     -0.1593
     23  O19      100.5830    6.8200   30.0810 O.2   833  AVF833     -0.2484
     24  N10      100.0400    8.9800   30.1580 N.am  833  AVF833     -0.1221
     25  O20      100.9060   10.5960   28.8240 O.2   833  AVF833     -0.2679
     26  C4        99.2830   11.2530   30.4330 C.ar  833  AVF833      0.0684
     27  F22       99.0200   12.9310   33.6320 F     833  AVF833     -0.2018
     28  F9        96.9790   14.0150   32.4120 F     833  AVF833     -0.2018
     29  C6        97.4010   12.7700   30.4280 C.ar  833  AVF833      0.0435
     30  C5        98.1890   11.8320   29.7780 C.ar  833  AVF833      0.0645
     31 CL8        97.7600   11.4250   28.1590 Cl    833  AVF833     -0.0820
@<TRIPOS>BOND
     1    14    13   ar
     2    11    10    1
     3    11    12    1
     4    13    15   ar
     5    13    12    1
     6    10    18    1
     7    20     9   ar
     8    20    19   ar
     9    12    16    1
    10     9     8   ar
    11    18    19    1
    12    18    17    1
    13    19     6   ar
    14    16    17    1
    15     8    21    1
    16     8     7   ar
    17     6     7   ar
    18     6    22    1
    19    31    30    1
    20    22     5   am
    21    25     4    2
    22     5    23    2
    23     5    24   am
    24     4    24   am
    25     4    26    1
    26    30    29   ar
    27    30    26   ar
    28    29     1   ar
    29    26     3   ar
    30     1     2   ar
    31     1    28    1
    32     3     2   ar
    33     2    27    1
