@<TRIPOS>MOLECULE
3cej_PLP_A_1.pdb
 16 16 0 0 0
SMALL
GASTEIGER

@<TRIPOS>ATOM
      1  N1        83.4570   36.8370   24.4190 N.ar  832  PLP832     -0.2452
      2  C2        82.9600   35.5580   24.2720 C.ar  832  PLP832      0.0982
      3  C2A       82.4890   34.7940   25.4740 C.3   832  PLP832      0.0555
      4  C3        82.8960   34.9760   23.0110 C.ar  832  PLP832      0.2120
      5  O3        82.4040   33.7050   22.8670 O.3   832  PLP832     -0.2852
      6  C4        83.3330   35.6830   21.8980 C.ar  832  PLP832      0.0822
      7  C4A       83.4180   35.0020   20.5640 C.2   832  PLP832      0.2372
      8  O4A       84.4430   35.0950   19.8900 O.2   832  PLP832     -0.2830
      9  C5        83.8320   36.9710   22.0520 C.ar  832  PLP832      0.0333
     10  C6        83.8920   37.5450   23.3170 C.ar  832  PLP832      0.0969
     11  C5A       84.3090   37.7470   20.8460 C.3   832  PLP832      0.1819
     12  O4P       83.2450   37.8980   19.9340 O.3   832  PLP832     -0.2653
     13  P         83.4380   38.7610   18.5890 P.3   832  PLP832      0.5329
     14  O1P       84.5520   38.1680   17.7600 O.2   832  PLP832     -0.2224
     15  O2P       83.7730   40.1890   18.9440 O.3   832  PLP832     -0.1145
     16  O3P       82.1460   38.7210   17.8080 O.3   832  PLP832     -0.1145
@<TRIPOS>BOND
     1    14    13    2
     2    16    13    1
     3    13    15    1
     4    13    12    1
     5     8     7    2
     6    12    11    1
     7     7     6    1
     8    11     9    1
     9     6     9   ar
    10     6     4   ar
    11     9    10   ar
    12     5     4    1
    13     4     2   ar
    14    10     1   ar
    15     2     1   ar
    16     2     3    1
