@<TRIPOS>MOLECULE
3cej_NBG_A_1.pdb
 15 15 0 0 0
SMALL
GASTEIGER

@<TRIPOS>ATOM
      1  C1        91.0040   39.8010   17.6110 C.3     1  NBG1        0.2446
      2  C2        90.2520   40.6910   16.6170 C.3     1  NBG1        0.2326
      3  C3        88.9850   40.0070   16.0930 C.3     1  NBG1        0.2190
      4  C4        89.2590   38.5670   15.6750 C.3     1  NBG1        0.2144
      5  C5        90.0750   37.8150   16.7260 C.3     1  NBG1        0.1828
      6  C6        90.3830   36.3850   16.2710 C.3     1  NBG1        0.2142
      7  C7        92.6140   40.6380   19.2370 C.2     1  NBG1        0.2440
      8  C8        93.8740   41.4290   19.4220 C.3     1  NBG1        0.0965
      9  N1        92.2620   40.4180   17.9720 N.am    1  NBG1       -0.1751
     10  O3        88.5410   40.7090   14.9300 O.3     1  NBG1       -0.2174
     11  O2        89.9520   41.9710   17.1990 O.3     1  NBG1       -0.2157
     12  O4        88.0350   37.8680   15.4530 O.3     1  NBG1       -0.2176
     13  O5        91.2780   38.5350   17.0130 O.3     1  NBG1       -0.3315
     14  O6        91.1350   36.3760   15.0470 O.3     1  NBG1       -0.2176
     15  O7        91.9680   40.2290   20.1950 O.2     1  NBG1       -0.2733
@<TRIPOS>BOND
     1    10     3    1
     2    14     6    1
     3    12     4    1
     4     4     3    1
     5     4     5    1
     6     3     2    1
     7     6     5    1
     8     2    11    1
     9     2     1    1
    10     5    13    1
    11    13     1    1
    12     1     9    1
    13     9     7   am
    14     7     8    1
    15     7    15    2
