@<TRIPOS>MOLECULE
3cel_BGC_A_1.pdb
 12 12 0 0 0
SMALL
GASTEIGER

@<TRIPOS>ATOM
      1  C2        20.6440   51.9160   95.8750 C.3   436  BGC436      0.2434
      2  C3        21.8140   52.2900   94.9840 C.3   436  BGC436      0.2199
      3  C4        22.6210   53.4400   95.6000 C.3   436  BGC436      0.2144
      4  C5        22.9800   53.1280   97.0460 C.3   436  BGC436      0.1836
      5  C6        23.6630   54.2860   97.7440 C.3   436  BGC436      0.2142
      6  C1        21.1450   51.6500   97.2900 C.3   436  BGC436      0.3024
      7  O1        20.0820   51.3550   98.1300 O.3   436  BGC436     -0.1869
      8  O2        20.0120   50.7560   95.3580 O.3   436  BGC436     -0.2148
      9  O3        21.3170   52.6780   93.7170 O.3   436  BGC436     -0.2174
     10  O4        23.8370   53.6250   94.8590 O.3   436  BGC436     -0.2176
     11  O5        21.7930   52.8190   97.7900 O.3   436  BGC436     -0.3236
     12  O6        22.9120   55.4820   97.6070 O.3   436  BGC436     -0.2176
@<TRIPOS>BOND
     1     9     2    1
     2    10     3    1
     3     2     3    1
     4     2     1    1
     5     8     1    1
     6     3     4    1
     7     1     6    1
     8     4     5    1
     9     4    11    1
    10     6    11    1
    11     6     7    1
    12    12     5    1
