@<TRIPOS>MOLECULE
3cem_NBG_A_1.pdb
 15 15 0 0 0
SMALL
GASTEIGER

@<TRIPOS>ATOM
      1  C1        27.2550   74.0520  151.7860 C.3     1  NBG1        0.2446
      2  C2        26.5520   73.3240  152.8940 C.3     1  NBG1        0.2326
      3  C3        25.1310   73.8220  152.9910 C.3     1  NBG1        0.2190
      4  C4        25.0750   75.3220  153.0630 C.3     1  NBG1        0.2144
      5  C5        25.8370   75.8870  151.8800 C.3     1  NBG1        0.1828
      6  C6        25.8830   77.3840  151.8660 C.3     1  NBG1        0.2142
      7  C7        29.2370   73.2300  150.7530 C.2     1  NBG1        0.2440
      8  C8        30.6280   72.8670  151.0050 C.3     1  NBG1        0.0965
      9  N1        28.6270   73.7060  151.8010 N.am    1  NBG1       -0.1751
     10  O3        24.4880   73.2620  154.0840 O.3     1  NBG1       -0.2174
     11  O2        26.5370   71.9990  152.4550 O.3     1  NBG1       -0.2157
     12  O4        23.7420   75.7170  153.0050 O.3     1  NBG1       -0.2176
     13  O5        27.1460   75.4300  151.9190 O.3     1  NBG1       -0.3315
     14  O6        26.4940   77.8200  153.0340 O.3     1  NBG1       -0.2176
     15  O7        28.7400   73.1090  149.6830 O.2     1  NBG1       -0.2733
@<TRIPOS>BOND
     1    15     7    2
     2     7     8    1
     3     7     9   am
     4     1     9    1
     5     1    13    1
     6     1     2    1
     7     6     5    1
     8     6    14    1
     9     5    13    1
    10     5     4    1
    11    11     2    1
    12     2     3    1
    13     3     4    1
    14     3    10    1
    15    12     4    1
