@<TRIPOS>MOLECULE
3cem_AVD_A_1.pdb
 34 37 0 0 0
SMALL
GASTEIGER

@<TRIPOS>ATOM
      1  C5        31.7150   96.9530  131.4240 C.ar  833  AVD833      0.1433
      2  C6        32.5770   97.6740  130.6060 C.ar  833  AVD833      0.0606
      3  C2        32.2090   99.5920  132.0390 C.ar  833  AVD833      0.1085
      4  C4        31.1000   97.4720  132.5450 C.ar  833  AVD833      0.0425
      5  O40       39.9940  103.4190  135.3630 O.co2 833  AVD833     -0.2405
      6  C39       38.7730  103.2190  135.2860 C.2   833  AVD833      0.3892
      7  O41       38.2780  102.3260  134.5480 O.co2 833  AVD833     -0.2405
      8  C34       37.8390  104.1680  136.0630 C.ar  833  AVD833      0.0958
      9  C33       38.2450  105.5010  136.2220 C.ar  833  AVD833      0.0080
     10  C32       37.4170  106.4080  136.8840 C.ar  833  AVD833      0.0003
     11  C31       36.1530  105.9720  137.3430 C.ar  833  AVD833      0.0015
     12  C30       35.7570  104.6310  137.1710 C.ar  833  AVD833      0.0177
     13  C28       36.5950  103.7130  136.5330 C.ar  833  AVD833      0.0704
     14  N21       36.2410  102.3430  136.2830 N.ar  833  AVD833     -0.3043
     15  C22       36.8890  101.3960  137.0260 C.ar  833  AVD833      0.0899
     16  C23       36.6290  100.0610  136.8190 C.ar  833  AVD833      0.1360
     17  C26       37.4650   99.1180  137.7160 C.2   833  AVD833      0.3923
     18  O42       38.1990   99.6290  138.6210 O.co2 833  AVD833     -0.2404
     19  O27       37.4020   97.8810  137.4920 O.co2 833  AVD833     -0.2404
     20  C24       35.6920   99.6590  135.8210 C.ar  833  AVD833      0.2049
     21  O25       35.4300   98.4740  135.5810 O.2   833  AVD833     -0.2862
     22  C17       35.0010  100.6060  135.0500 C.ar  833  AVD833      0.0566
     23  C18       34.0670  100.1980  134.0900 C.ar  833  AVD833      0.0220
     24  C16       35.2930  101.9400  135.2790 C.ar  833  AVD833      0.0680
     25  C15       34.6130  102.8910  134.5380 C.ar  833  AVD833      0.0303
     26  C14       33.6980  102.5050  133.5890 C.ar  833  AVD833      0.0743
     27 CL29       32.9410  103.7790  132.6940 Cl    833  AVD833     -0.0808
     28  C13       33.3870  101.1650  133.3280 C.ar  833  AVD833      0.0813
     29  N10       32.4580  100.8710  132.3460 N.pl3 833  AVD833     -0.2085
     30  C3        31.3560   98.8000  132.8230 C.ar  833  AVD833      0.0773
     31 CL12       30.5890   99.4900  134.1950 Cl    833  AVD833     -0.0807
     32  F11       31.4880   95.6910  131.1520 F     833  AVD833     -0.2041
     33  C1        32.8110   99.0050  130.9350 C.ar  833  AVD833      0.1583
     34  F9        33.6090   99.7440  130.1660 F     833  AVD833     -0.2027
@<TRIPOS>BOND
     1    34    33    1
     2     2    33   ar
     3     2     1   ar
     4    33     3   ar
     5    32     1    1
     6     1     4   ar
     7     3    29    1
     8     3    30   ar
     9    29    28    1
    10     4    30   ar
    11    27    26    1
    12    30    31    1
    13    28    26   ar
    14    28    23   ar
    15    26    25   ar
    16    23    22   ar
    17    25    24   ar
    18     7     6   ar
    19    22    24   ar
    20    22    20   ar
    21    24    14   ar
    22     6     5   ar
    23     6     8    1
    24    21    20    2
    25    20    16   ar
    26     8     9   ar
    27     8    13   ar
    28     9    10   ar
    29    14    13    1
    30    14    15   ar
    31    13    12   ar
    32    16    15   ar
    33    16    17    1
    34    10    11   ar
    35    12    11   ar
    36    19    17   ar
    37    17    18   ar
