@<TRIPOS>MOLECULE
3cem_PLP_A_1.pdb
 16 16 0 0 0
SMALL
GASTEIGER

@<TRIPOS>ATOM
      1  N1        21.1250   73.5700  143.6790 N.ar  832  PLP832     -0.2452
      2  C2        20.2680   74.5320  143.1850 C.ar  832  PLP832      0.0982
      3  C2A       20.0650   74.6640  141.7040 C.3   832  PLP832      0.0555
      4  C3        19.5940   75.3790  144.0560 C.ar  832  PLP832      0.2120
      5  O3        18.7440   76.3340  143.5640 O.3   832  PLP832     -0.2852
      6  C4        19.7830   75.2570  145.4270 C.ar  832  PLP832      0.0822
      7  C4A       18.9340   76.0530  146.3740 C.2   832  PLP832      0.2372
      8  O4A       19.4530   76.8870  147.1130 O.2   832  PLP832     -0.2830
      9  C5        20.6460   74.2860  145.9200 C.ar  832  PLP832      0.0333
     10  C6        21.3160   73.4430  145.0410 C.ar  832  PLP832      0.0969
     11  C5A       20.8570   74.1460  147.4100 C.3   832  PLP832      0.1819
     12  O4P       19.8160   73.3710  147.9610 O.3   832  PLP832     -0.2653
     13  P         19.9890   72.6810  149.4050 P.3   832  PLP832      0.5329
     14  O1P       20.1540   73.7470  150.4620 O.3   832  PLP832     -0.1145
     15  O2P       21.2020   71.7810  149.3980 O.2   832  PLP832     -0.2224
     16  O3P       18.7520   71.8650  149.6940 O.3   832  PLP832     -0.1145
@<TRIPOS>BOND
     1     3     2    1
     2     2     1   ar
     3     2     4   ar
     4     5     4    1
     5     1    10   ar
     6     4     6   ar
     7    10     9   ar
     8     6     9   ar
     9     6     7    1
    10     9    11    1
    11     7     8    2
    12    11    12    1
    13    12    13    1
    14    15    13    2
    15    13    16    1
    16    13    14    1
