@<TRIPOS>MOLECULE
3cen_FXA_A_1.pdb
 33 36 0 0 0
SMALL
GASTEIGER

@<TRIPOS>ATOM
      1  C1         2.6140   44.1490   64.6190 C.ar    1  FXA1        0.0015
      2  C2         3.8800   44.8420   64.8280 C.ar    1  FXA1        0.0216
      3  C3         5.0580   44.3360   64.1280 C.ar    1  FXA1        0.1423
      4  C10        6.3900   43.0150   61.2230 C.2     1  FXA1        0.2690
      5  C11        7.0220   41.8910   60.4320 C.ar    1  FXA1        0.0555
      6  C13        7.8420   42.1940   59.2370 C.ar    1  FXA1        0.0061
      7  C14        8.3920   41.0990   58.4150 C.ar    1  FXA1        0.0178
      8  C15        8.1420   39.6780   58.7570 C.ar    1  FXA1        0.0669
      9  C16        7.3630   39.3820   59.9810 C.ar    1  FXA1        0.0178
     10  N18        8.5660   38.6400   57.8430 N.ar    1  FXA1       -0.2731
     11  C19        7.7130   38.3430   56.6840 C.ar    1  FXA1        0.2648
     12  C20        8.1600   37.3770   55.6250 C.ar    1  FXA1        0.0611
     13  C21        9.7910   38.0050   58.0150 C.ar    1  FXA1        0.0829
     14  C24       10.2010   37.0630   57.0000 C.ar    1  FXA1        0.0192
     15  C27       11.5290   44.8570   64.6300 C.ar    1  FXA1        0.0159
     16  C4         4.9780   43.1950   63.2350 C.ar    1  FXA1        0.0925
     17  C5         3.7230   42.4800   63.0640 C.ar    1  FXA1        0.0180
     18  C6         2.5430   42.9620   63.7660 C.ar    1  FXA1        0.0014
     19  S7         6.6410   45.1360   64.3020 S.O2    1  FXA1        0.0954
     20  N8         7.8300   44.1030   64.8380 N.pl3   1  FXA1       -0.0771
     21  N9         6.0740   42.7220   62.5230 N.am    1  FXA1       -0.1741
     22  O12        6.1750   44.1220   60.7230 O.2     1  FXA1       -0.2680
     23  C17        6.8120   40.4790   60.8030 C.ar    1  FXA1        0.0061
     24  O22        6.6080   38.8870   56.5780 O.2     1  FXA1       -0.2666
     25  C23        9.4310   36.7480   55.8150 C.ar    1  FXA1        0.0064
     26  C25        9.1980   44.2460   65.1290 C.ar    1  FXA1        0.1716
     27  C26       10.1410   44.9200   64.2320 C.ar    1  FXA1        0.0385
     28  C28       11.9670   44.1310   65.8220 C.ar    1  FXA1        0.0769
     29  C29       10.9850   43.4910   66.6910 C.ar    1  FXA1        0.1117
     30  N30        9.6490   43.6010   66.3050 N.ar    1  FXA1       -0.2250
     31 CL31       13.7510   43.8780   66.2190 Cl      1  FXA1       -0.0806
     32  O32        6.4460   46.1540   65.3040 O.2     1  FXA1       -0.1482
     33  O33        7.0340   45.5490   62.9830 O.2     1  FXA1       -0.1482
@<TRIPOS>BOND
     1    12    25   ar
     2    12    11   ar
     3    25    14   ar
     4    24    11    2
     5    11    10   ar
     6    14    13   ar
     7    10    13   ar
     8    10     8    1
     9     7     8   ar
    10     7     6   ar
    11     8     9   ar
    12     6     5   ar
    13     9    23   ar
    14     5    23   ar
    15     5     4    1
    16    22     4    2
    17     4    21   am
    18    21    16    1
    19    33    19    2
    20    17    16   ar
    21    17    18   ar
    22    16     3   ar
    23    18     1   ar
    24     3    19    1
    25     3     2   ar
    26    27    15   ar
    27    27    26   ar
    28    19    20    1
    29    19    32    2
    30     1     2   ar
    31    15    28   ar
    32    20    26    1
    33    26    30   ar
    34    28    31    1
    35    28    29   ar
    36    30    29   ar
