@<TRIPOS>MOLECULE
3cep_PLP_B_1.pdb
 15 15 0 0 0
SMALL
GASTEIGER

@<TRIPOS>ATOM
      1  N1        85.0040   13.1100   11.9540 N.2   401  PLP401     -0.2458
      2  C2        84.8790   13.8130   10.7670 C.2   401  PLP401      0.0942
      3  C2A       86.0030   13.7540    9.7770 C.3   401  PLP401      0.0552
      4  C3        83.7230   14.5870   10.4970 C.2   401  PLP401      0.1899
      5  O3        83.6240   15.2380    9.4070 O.2   401  PLP401     -0.2898
      6  C4        82.6670   14.5950   11.5490 C.3   401  PLP401      0.0852
      7  C4A       81.4800   15.3200   11.3970 C.3   401  PLP401      0.0127
      8  C5        82.8750   13.8280   12.7610 C.2   401  PLP401      0.0118
      9  C6        84.0490   13.1000   12.9150 C.2   401  PLP401      0.0929
     10  C5A       81.8260   13.7850   13.8670 C.3   401  PLP401      0.1779
     11  O4P       80.5670   13.1320   13.6190 O.3   401  PLP401     -0.2656
     12  P         80.1880   11.8520   14.1100 P.3   401  PLP401      0.5329
     13  O1P       80.1890   11.9260   15.6210 O.3   401  PLP401     -0.1145
     14  O2P       78.8090   11.6770   13.5390 O.2   401  PLP401     -0.2224
     15  O3P       81.1860   10.8490   13.5720 O.3   401  PLP401     -0.1145
@<TRIPOS>BOND
     1     5     4    2
     2     3     2    1
     3     4     2    1
     4     4     6    1
     5     2     1    2
     6     7     6    1
     7     6     8    1
     8     1     9    1
     9     8     9    2
    10     8    10    1
    11    14    12    2
    12    15    12    1
    13    11    10    1
    14    11    12    1
    15    12    13    1
