@<TRIPOS>MOLECULE
3cep_G3P_A_1.pdb
 10 9 0 0 0
SMALL
GASTEIGER

@<TRIPOS>ATOM
      1  O1        48.7400   27.8610   15.1110 O.3   269  G3P269     -0.2175
      2  C1        50.0040   27.8270   14.7080 C.3   269  G3P269      0.2174
      3  C2        50.2670   28.7840   13.6130 C.3   269  G3P269      0.2147
      4  O2        51.4090   29.4480   13.7010 O.3   269  G3P269     -0.2176
      5  C3        50.2690   28.1160   12.3160 C.3   269  G3P269      0.1892
      6  O1P       49.4950   28.8870   11.3600 O.3   269  G3P269     -0.2674
      7  O4P       50.9250   29.2170    9.3600 O.2   269  G3P269     -0.2224
      8  O2P       51.3380   30.6480   11.3950 O.3   269  G3P269     -0.1145
      9  O3P       49.2020   30.9170   10.0950 O.3   269  G3P269     -0.1145
     10  P         50.3170   29.9880   10.5000 P.3   269  G3P269      0.5327
@<TRIPOS>BOND
     1     7    10    2
     2     9    10    1
     3    10     6    1
     4    10     8    1
     5     6     5    1
     6     5     3    1
     7     3     4    1
     8     3     2    1
     9     2     1    1
