@<TRIPOS>MOLECULE
3cev_ARG_A_1.pdb
 12 11 0 0 0
SMALL
GASTEIGER

@<TRIPOS>ATOM
      1  N         25.7400  109.4340   43.8260 N.3   401  ARG401     -0.1208
      2  CA        24.6350  110.3030   43.3120 C.3   401  ARG401      0.1944
      3  C         25.1140  111.7440   43.1470 C.2   401  ARG401      0.3819
      4  O         26.2600  112.0340   43.5780 O.co2 401  ARG401     -0.2441
      5  CB        23.4240  110.2630   44.2630 C.3   401  ARG401      0.0343
      6  CG        23.7670  110.3370   45.7490 C.3   401  ARG401      0.0490
      7  CD        22.5260  110.5000   46.5820 C.3   401  ARG401      0.2205
      8  NE        22.8040  110.2140   47.9820 N.pl3 401  ARG401     -0.0865
      9  CZ        21.8770  110.0070   48.9200 C.cat 401  ARG401      0.5346
     10  NH1       20.5770  110.0680   48.6050 N.pl3 401  ARG401      0.1354
     11  NH2       22.2540  109.6690   50.1660 N.pl3 401  ARG401      0.1354
     12  OXT       24.3420  112.5620   42.5930 O.co2 401  ARG401     -0.2441
@<TRIPOS>BOND
     1    12     3   ar
     2     3     2    1
     3     3     4   ar
     4     2     1    1
     5     2     5    1
     6     5     6    1
     7     6     7    1
     8     7     8    1
     9     8     9    2
    10    10     9    1
    11     9    11    1
