@<TRIPOS>MOLECULE
3cf0_ADP_A_1.pdb
 27 29 0 0 0
SMALL
GASTEIGER

@<TRIPOS>ATOM
      1  PB       -33.7530   12.4310   22.6160 P.3   900  ADP900      0.5373
      2  O1B      -34.6480   12.9230   21.4930 O.2   900  ADP900     -0.2221
      3  O2B      -33.1600   13.5240   23.4630 O.3   900  ADP900     -0.1143
      4  O3B      -32.8160   11.2990   22.1580 O.3   900  ADP900     -0.1143
      5  PA       -36.1580   12.1310   23.9770 P.3   900  ADP900      0.2231
      6  O1A      -36.3520   13.6230   23.8760 O.3   900  ADP900     -0.4370
      7  O2A      -37.0000   11.3290   23.0110 O.2   900  ADP900     -0.5169
      8  O3A      -34.6460   11.6960   23.7260 O.3   900  ADP900     -0.2261
      9  O5'      -36.3790   11.6100   25.4820 O.3   900  ADP900     -0.3111
     10  C5'      -36.3920   10.2000   25.6620 C.3   900  ADP900      0.1813
     11  C4'      -37.2350    9.8640   26.8690 C.3   900  ADP900      0.1821
     12  O4'      -36.4530   10.0540   28.0320 O.3   900  ADP900     -0.3135
     13  C3'      -38.4010   10.8010   27.0380 C.3   900  ADP900      0.2184
     14  O3'      -39.4620   10.1940   26.3130 O.3   900  ADP900     -0.2174
     15  C2'      -38.6040   10.8440   28.5370 C.3   900  ADP900      0.2570
     16  O2'      -39.2840    9.6990   29.0220 O.3   900  ADP900     -0.2130
     17  C1'      -37.1990   10.6940   29.0460 C.3   900  ADP900      0.3186
     18  N9       -36.6960   12.0560   29.2100 N.pl3 900  ADP900     -0.1439
     19  C8       -35.6830   12.5790   28.7040 C.3   900  ADP900      0.3377
     20  N7       -35.0640   13.6680   28.6770 N.2   900  ADP900     -0.2095
     21  C5       -36.0680   14.1850   29.5310 C.2   900  ADP900      0.2526
     22  C6       -36.2990   15.4480   30.1220 C.2   900  ADP900      0.4393
     23  N6       -35.4770   16.5120   29.9490 N.pl3 900  ADP900      0.2180
     24  N1       -37.3730   15.6140   30.9100 N.2   900  ADP900      0.0021
     25  C2       -38.2520   14.6280   31.1590 C.3   900  ADP900      0.5254
     26  N3       -38.1300   13.4110   30.6330 N.2   900  ADP900     -0.0055
     27  C4       -37.0690   13.1680   29.8350 C.2   900  ADP900      0.3518
@<TRIPOS>BOND
     1     2     1    2
     2     4     1    1
     3     1     3    1
     4     1     8    1
     5     7     5    2
     6     8     5    1
     7     6     5    1
     8     5     9    1
     9     9    10    1
    10    10    11    1
    11    14    13    1
    12    11    13    1
    13    11    12    1
    14    13    15    1
    15    12    17    1
    16    15    16    1
    17    15    17    1
    18    20    19    1
    19    20    21    2
    20    19    18    1
    21    17    18    1
    22    18    27    1
    23    21    27    1
    24    21    22    1
    25    27    26    2
    26    23    22    1
    27    22    24    2
    28    26    25    1
    29    24    25    1
