@<TRIPOS>MOLECULE
3cf1_ADP_A_1.pdb
 27 29 0 0 0
SMALL
GASTEIGER

@<TRIPOS>ATOM
      1  PB        86.2440  121.1250  264.4960 P.3   807  ADP807      0.5373
      2  O1B       87.1950  120.7300  263.4410 O.2   807  ADP807     -0.2221
      3  O2B       86.9700  121.1260  265.9160 O.3   807  ADP807     -0.1143
      4  O3B       85.1070  120.1900  264.5230 O.3   807  ADP807     -0.1143
      5  PA        85.7210  123.3580  262.8480 P.3   807  ADP807      0.2231
      6  O1A       87.0890  123.6220  262.4480 O.3   807  ADP807     -0.4370
      7  O2A       85.0520  122.6060  261.8070 O.2   807  ADP807     -0.5169
      8  O3A       85.7180  122.5530  264.1730 O.3   807  ADP807     -0.2261
      9  O5'       84.9240  124.7010  263.0530 O.3   807  ADP807     -0.3111
     10  C5'       84.2840  125.1830  264.2250 C.3   807  ADP807      0.1813
     11  C4'       83.6570  126.5390  263.8140 C.3   807  ADP807      0.1821
     12  O4'       83.4500  127.2690  265.0100 O.3   807  ADP807     -0.3135
     13  C3'       84.5370  127.4340  262.9570 C.3   807  ADP807      0.2184
     14  O3'       84.1370  127.3850  261.6000 O.3   807  ADP807     -0.2174
     15  C2'       84.4010  128.8130  263.5290 C.3   807  ADP807      0.2570
     16  O2'       83.4250  129.5960  262.8550 O.3   807  ADP807     -0.2130
     17  C1'       84.1000  128.5460  264.9680 C.3   807  ADP807      0.3186
     18  N9        85.3110  128.5040  265.8530 N.pl3 807  ADP807     -0.1439
     19  C8        85.7810  127.4180  266.4930 C.3   807  ADP807      0.3377
     20  N7        86.8430  127.7330  267.1860 N.2   807  ADP807     -0.2095
     21  C5        87.0860  128.9880  267.0240 C.2   807  ADP807      0.2526
     22  C6        88.0460  129.8750  267.4890 C.2   807  ADP807      0.4393
     23  N6        88.9960  129.4510  268.3080 N.pl3 807  ADP807      0.2180
     24  N1        88.0220  131.2000  267.1080 N.2   807  ADP807      0.0021
     25  C2        87.0680  131.6810  266.2720 C.3   807  ADP807      0.5254
     26  N3        86.1160  130.8190  265.8080 N.2   807  ADP807     -0.0055
     27  C4        86.0960  129.5010  266.1540 C.2   807  ADP807      0.3518
@<TRIPOS>BOND
     1    14    13    1
     2     7     5    2
     3     6     5    1
     4     5     9    1
     5     5     8    1
     6    16    15    1
     7    13    15    1
     8    13    11    1
     9     9    10    1
    10     2     1    2
    11    15    17    1
    12    11    10    1
    13    11    12    1
    14     8     1    1
    15     1     4    1
    16     1     3    1
    17    17    12    1
    18    17    18    1
    19    26    27    2
    20    26    25    1
    21    18    27    1
    22    18    19    1
    23    27    21    1
    24    25    24    1
    25    19    20    1
    26    21    20    2
    27    21    22    1
    28    24    22    2
    29    22    23    1
