@<TRIPOS>MOLECULE
3cf2_ANP_A_1.pdb
 31 33 0 0 0
SMALL
GASTEIGER

@<TRIPOS>ATOM
      1  PG       120.6530  -16.8550  -19.4780 P.3   901  ANP901      0.4884
      2  O1G      122.1260  -17.0380  -19.6810 O.3   901  ANP901     -0.1240
      3  O2G      120.3450  -16.6810  -17.8990 O.3   901  ANP901     -0.1240
      4  O3G      120.1820  -15.6410  -20.2210 O.2   901  ANP901     -0.2331
      5  PB       118.5510  -18.6600  -19.8190 P.3   901  ANP901      0.4669
      6  O1B      117.5240  -17.7750  -20.4440 O.2   901  ANP901     -0.2351
      7  O2B      118.2390  -18.7870  -18.2430 O.3   901  ANP901     -0.1253
      8  N3B      119.9320  -18.0760  -20.0190 N.3   901  ANP901     -0.0163
      9  PA       117.3330  -21.2130  -20.6900 P.3   901  ANP901      0.2220
     10  O1A      116.0830  -20.7570  -20.0510 O.3   901  ANP901     -0.4370
     11  O2A      117.0630  -21.4760  -22.1090 O.2   901  ANP901     -0.5170
     12  O3A      118.4860  -20.1060  -20.5180 O.3   901  ANP901     -0.2360
     13  O5'      117.8340  -22.5980  -20.0560 O.3   901  ANP901     -0.3111
     14  C5'      119.0850  -22.9660  -19.4170 C.3   901  ANP901      0.1813
     15  C4'      118.9080  -24.4860  -19.0000 C.3   901  ANP901      0.1821
     16  O4'      118.1230  -24.4650  -17.7960 O.3   901  ANP901     -0.3135
     17  C3'      118.1160  -25.3490  -20.0260 C.3   901  ANP901      0.2184
     18  O3'      118.8190  -26.5490  -20.4230 O.3   901  ANP901     -0.2174
     19  C2'      116.7420  -25.6640  -19.4010 C.3   901  ANP901      0.2570
     20  O2'      116.3040  -27.0270  -19.6050 O.3   901  ANP901     -0.2130
     21  C1'      116.8710  -25.2110  -17.9210 C.3   901  ANP901      0.3186
     22  N9       115.7330  -24.2800  -17.4590 N.pl3 901  ANP901     -0.1439
     23  C8       115.9110  -23.0130  -16.9790 C.3   901  ANP901      0.3377
     24  N7       114.7440  -22.4680  -16.6780 N.2   901  ANP901     -0.2095
     25  C5       113.7940  -23.3360  -16.9340 C.2   901  ANP901      0.2526
     26  C6       112.3860  -23.3410  -16.8440 C.2   901  ANP901      0.4393
     27  N6       111.7450  -22.2640  -16.3680 N.pl3 901  ANP901      0.2180
     28  N1       111.6620  -24.4690  -17.2250 N.2   901  ANP901      0.0021
     29  C2       112.2660  -25.5940  -17.7170 C.3   901  ANP901      0.5254
     30  N3       113.6290  -25.6030  -17.8170 N.2   901  ANP901     -0.0055
     31  C4       114.4160  -24.5150  -17.4660 C.2   901  ANP901      0.3518
@<TRIPOS>BOND
     1    11     9    2
     2     9    12    1
     3     9    13    1
     4     9    10    1
     5    12     5    1
     6     6     5    2
     7    18    17    1
     8     4     1    2
     9    13    14    1
    10    17    19    1
    11    17    15    1
    12     8     5    1
    13     8     1    1
    14     5     7    1
    15     2     1    1
    16    20    19    1
    17     1     3    1
    18    14    15    1
    19    19    21    1
    20    15    16    1
    21    21    16    1
    22    21    22    1
    23    30    29    1
    24    30    31    2
    25    29    28    1
    26    31    22    1
    27    31    25    1
    28    22    23    1
    29    28    26    2
    30    23    24    1
    31    25    26    1
    32    25    24    2
    33    26    27    1
