@<TRIPOS>MOLECULE
3cf2_ADP_A_1.pdb
 27 29 0 0 0
SMALL
GASTEIGER

@<TRIPOS>ATOM
      1  PB       119.3250  -20.3690  -56.1080 P.3   807  ADP807      0.5373
      2  O1B      119.0190  -19.5320  -57.2850 O.2   807  ADP807     -0.2221
      3  O2B      118.5020  -19.8370  -54.8510 O.3   807  ADP807     -0.1143
      4  O3B      120.7740  -20.3430  -55.8330 O.3   807  ADP807     -0.1143
      5  PA       117.9070  -22.3520  -57.4410 P.3   807  ADP807      0.2231
      6  O1A      116.6630  -21.6140  -57.3070 O.3   807  ADP807     -0.4370
      7  O2A      118.4160  -22.1810  -58.7910 O.2   807  ADP807     -0.5169
      8  O3A      118.9180  -21.8200  -56.4190 O.3   807  ADP807     -0.2261
      9  O5'      117.7000  -23.8950  -57.1920 O.3   807  ADP807     -0.3111
     10  C5'      118.3050  -24.7480  -56.2140 C.3   807  ADP807      0.1813
     11  C4'      117.7110  -26.1810  -56.4510 C.3   807  ADP807      0.1821
     12  O4'      117.0650  -26.5110  -55.2420 O.3   807  ADP807     -0.3135
     13  C3'      116.6280  -26.2860  -57.5440 C.3   807  ADP807      0.2184
     14  O3'      116.8940  -27.3240  -58.4890 O.3   807  ADP807     -0.2174
     15  C2'      115.2950  -26.4970  -56.8510 C.3   807  ADP807      0.2570
     16  O2'      114.4580  -27.4680  -57.4870 O.3   807  ADP807     -0.2130
     17  C1'      115.6660  -26.8140  -55.4210 C.3   807  ADP807      0.3186
     18  N9       114.9140  -25.9790  -54.4400 N.pl3 807  ADP807     -0.1439
     19  C8       115.3810  -24.8340  -53.9100 C.3   807  ADP807      0.3377
     20  N7       114.5060  -24.3420  -53.0730 N.2   807  ADP807     -0.2095
     21  C5       113.4560  -25.0960  -53.0810 C.2   807  ADP807      0.2526
     22  C6       112.2780  -25.1220  -52.3690 C.2   807  ADP807      0.4393
     23  N6       111.9950  -24.1130  -51.5540 N.pl3 807  ADP807      0.2180
     24  N1       111.3480  -26.1200  -52.5900 N.2   807  ADP807      0.0021
     25  C2       111.6000  -27.1580  -53.4240 C.3   807  ADP807      0.5254
     26  N3       112.7820  -27.1650  -54.0990 N.2   807  ADP807     -0.0055
     27  C4       113.7350  -26.2030  -53.9200 C.2   807  ADP807      0.3518
@<TRIPOS>BOND
     1     7     5    2
     2    14    13    1
     3    13    15    1
     4    13    11    1
     5    16    15    1
     6     5     6    1
     7     5     9    1
     8     5     8    1
     9     2     1    2
    10     9    10    1
    11    15    17    1
    12    11    10    1
    13    11    12    1
    14     8     1    1
    15     1     4    1
    16     1     3    1
    17    17    12    1
    18    17    18    1
    19    18    27    1
    20    18    19    1
    21    26    27    2
    22    26    25    1
    23    27    21    1
    24    19    20    1
    25    25    24    1
    26    21    20    2
    27    21    22    1
    28    24    22    2
    29    22    23    1
