@<TRIPOS>MOLECULE
3cf3_ADP_A_1.pdb
 27 29 0 0 0
SMALL
GASTEIGER

@<TRIPOS>ATOM
      1  PB        86.4600  121.6690  263.4580 P.3   807  ADP807      0.5373
      2  O1B       87.2590  121.1470  262.3320 O.2   807  ADP807     -0.2221
      3  O2B       87.2600  121.3970  264.8430 O.3   807  ADP807     -0.1143
      4  O3B       85.1370  121.0060  263.5350 O.3   807  ADP807     -0.1143
      5  PA        86.2250  124.0820  262.0490 P.3   807  ADP807      0.2231
      6  O1A       87.6120  124.3700  261.5900 O.3   807  ADP807     -0.4370
      7  O2A       85.4990  123.3980  260.9840 O.2   807  ADP807     -0.5169
      8  O3A       86.2120  123.2100  263.2980 O.3   807  ADP807     -0.2261
      9  O5'       85.2940  125.3100  262.2980 O.3   807  ADP807     -0.3111
     10  C5'       84.4900  125.5720  263.4250 C.3   807  ADP807      0.1813
     11  C4'       83.8920  126.9320  262.9650 C.3   807  ADP807      0.1821
     12  O4'       83.8020  127.7000  264.1630 O.3   807  ADP807     -0.3135
     13  C3'       84.8300  127.7620  262.0460 C.3   807  ADP807      0.2184
     14  O3'       84.4010  127.9110  260.6610 O.3   807  ADP807     -0.2174
     15  C2'       85.0300  129.1070  262.7170 C.3   807  ADP807      0.2570
     16  O2'       84.3550  130.1680  262.0660 O.3   807  ADP807     -0.2130
     17  C1'       84.5790  128.9310  264.1180 C.3   807  ADP807      0.3186
     18  N9        85.7090  128.8220  265.1610 N.pl3 807  ADP807     -0.1439
     19  C8        86.1430  127.6790  265.7180 C.3   807  ADP807      0.3377
     20  N7        87.1250  127.9140  266.5680 N.2   807  ADP807     -0.2095
     21  C5        87.3580  129.1960  266.5630 C.2   807  ADP807      0.2526
     22  C6        88.2650  130.0110  267.2560 C.2   807  ADP807      0.4393
     23  N6        89.1310  129.4720  268.0880 N.pl3 807  ADP807      0.2180
     24  N1        88.2670  131.4010  267.0240 N.2   807  ADP807      0.0021
     25  C2        87.3870  132.0110  266.1600 C.3   807  ADP807      0.5254
     26  N3        86.4940  131.1960  265.5030 N.2   807  ADP807     -0.0055
     27  C4        86.4460  129.8200  265.6690 C.2   807  ADP807      0.3518
@<TRIPOS>BOND
     1    14    13    1
     2     7     5    2
     3     6     5    1
     4    13    15    1
     5    13    11    1
     6     5     9    1
     7     5     8    1
     8    16    15    1
     9     9    10    1
    10     2     1    2
    11    15    17    1
    12    11    10    1
    13    11    12    1
    14     8     1    1
    15     1     4    1
    16     1     3    1
    17    17    12    1
    18    17    18    1
    19    18    27    1
    20    18    19    1
    21    26    27    2
    22    26    25    1
    23    27    21    1
    24    19    20    1
    25    25    24    1
    26    21    20    2
    27    21    22    1
    28    24    22    2
    29    22    23    1
