@<TRIPOS>MOLECULE
3cf6_SP1_E_1.pdb
 22 25 0 0 0
SMALL
GASTEIGER

@<TRIPOS>ATOM
      1  P          7.5340  -17.9380  -62.8700 P.3     2  SP12        0.4035
      2  S1P        8.2270  -19.3210  -61.6820 S.3     2  SP12        0.0393
      3  O2P        8.8150  -17.2550  -63.8630 O.2     2  SP12       -0.2449
      4  O5'        6.3090  -18.5490  -63.7300 O.3     2  SP12       -0.2836
      5  C5'        5.0160  -18.7750  -63.1430 C.3     2  SP12        0.1843
      6  C4'        4.6180  -17.4720  -62.4630 C.3     2  SP12        0.1795
      7  O4'        3.4110  -17.5300  -61.6880 O.3     2  SP12       -0.3136
      8  C3'        5.6500  -17.1420  -61.4010 C.3     2  SP12        0.1913
      9  O3'        6.8630  -16.7650  -62.0120 O.3     2  SP12       -0.2833
     10  C2'        4.9690  -16.1210  -60.5260 C.3     2  SP12        0.2542
     11  O2'        5.0220  -14.8390  -61.1410 O.3     2  SP12       -0.2131
     12  C1'        3.5320  -16.6310  -60.5660 C.3     2  SP12        0.3185
     13  N9         3.1360  -17.3470  -59.3260 N.pl3   2  SP12       -0.1439
     14  C8         2.2640  -16.8610  -58.4220 C.3     2  SP12        0.3377
     15  N7         2.0700  -17.7250  -57.3880 N.2     2  SP12       -0.2095
     16  C5         2.8270  -18.8080  -57.6620 C.2     2  SP12        0.2526
     17  C6         3.1000  -20.0770  -56.9760 C.2     2  SP12        0.4393
     18  N6         2.4560  -20.3420  -55.8280 N.pl3   2  SP12        0.2180
     19  N1         3.9720  -20.9360  -57.5460 N.2     2  SP12        0.0021
     20  C2         4.6020  -20.6580  -58.7220 C.3     2  SP12        0.5254
     21  N3         4.4050  -19.5120  -59.4000 N.2     2  SP12       -0.0055
     22  C4         3.5340  -18.5700  -58.9300 C.2     2  SP12        0.3518
@<TRIPOS>BOND
     1     3     1    2
     2     4     5    1
     3     4     1    1
     4     5     6    1
     5     1     9    1
     6     1     2    1
     7     6     7    1
     8     6     8    1
     9     9     8    1
    10     7    12    1
    11     8    10    1
    12    11    10    1
    13    12    10    1
    14    12    13    1
    15    21    22    2
    16    21    20    1
    17    13    22    1
    18    13    14    1
    19    22    16    1
    20    20    19    1
    21    14    15    1
    22    16    15    2
    23    16    17    1
    24    19    17    2
    25    17    18    1
