@<TRIPOS>MOLECULE
3cf8_QUE_A_1.pdb
 22 24 0 0 0
SMALL
GASTEIGER

@<TRIPOS>ATOM
      1  C1        11.9150   18.6260  -12.2090 C.ar  164  QUE164      0.0843
      2  C2        12.2600   17.5760  -11.3630 C.ar  164  QUE164      0.2050
      3  C3        13.4690   16.8820  -11.5480 C.ar  164  QUE164      0.1158
      4  C4        14.3410   17.2470  -12.5850 C.ar  164  QUE164      0.1549
      5  C5        13.9840   18.3070  -13.4220 C.ar  164  QUE164      0.0798
      6  C6        12.7780   18.9930  -13.2360 C.ar  164  QUE164      0.2020
      7  C9        13.8270   15.8340  -10.6990 C.ar  164  QUE164      0.2433
      8  C10       15.0340   15.1760  -10.8970 C.ar  164  QUE164      0.2685
      9  C11       15.8720   15.5550  -11.9550 C.ar  164  QUE164      0.1872
     10  C14       17.0790   14.8720  -12.0900 C.ar  164  QUE164      0.0413
     11  C15       17.1210   13.5200  -12.4430 C.ar  164  QUE164      0.0066
     12  C16       18.3550   12.8710  -12.5400 C.ar  164  QUE164      0.0455
     13  C17       19.5420   13.5680  -12.2800 C.ar  164  QUE164      0.2343
     14  C18       19.5040   14.9130  -11.9180 C.ar  164  QUE164      0.2344
     15  C19       18.2670   15.5630  -11.8190 C.ar  164  QUE164      0.0485
     16  O12       15.5440   16.5960  -12.8100 O.2   164  QUE164     -0.4498
     17  O13       13.1060   15.4930   -9.7600 O.2   164  QUE164     -0.2828
     18  O23       20.6650   15.5810  -11.6680 O.3   164  QUE164     -0.2831
     19  O24       20.7420   12.9420  -12.3770 O.3   164  QUE164     -0.2831
     20  O27       15.3890   14.1490  -10.0570 O.3   164  QUE164     -0.2798
     21  O29       12.4330   20.0320  -14.0540 O.3   164  QUE164     -0.2864
     22  O30       11.3970   17.2500  -10.3580 O.3   164  QUE164     -0.2862
@<TRIPOS>BOND
     1    21     6    1
     2     5     6   ar
     3     5     4   ar
     4     6     1   ar
     5    16     4   ar
     6    16     9   ar
     7     4     3   ar
     8    12    11   ar
     9    12    13   ar
    10    11    10   ar
    11    19    13    1
    12    13    14   ar
    13     1     2   ar
    14    10     9    1
    15    10    15   ar
    16     9     8   ar
    17    14    15   ar
    18    14    18    1
    19     3     2   ar
    20     3     7   ar
    21     2    22    1
    22     8     7   ar
    23     8    20    1
    24     7    17    2
