@<TRIPOS>MOLECULE
3cf9_AGI_A_1.pdb
 20 22 0 0 0
SMALL
GASTEIGER

@<TRIPOS>ATOM
      1  CAG       18.8910   16.4080  -11.9940 C.ar  161  AGI161      0.0063
      2  CAE       20.2660   16.2300  -12.0070 C.ar  161  AGI161      0.0421
      3  CAM       20.7720   14.9370  -11.9840 C.ar  161  AGI161      0.1957
      4  OAB       22.1160   14.7890  -11.9920 O.3   161  AGI161     -0.2866
      5  CAF       19.9240   13.8240  -11.9580 C.ar  161  AGI161      0.0421
      6  CAH       18.5390   14.0070  -11.9480 C.ar  161  AGI161      0.0063
      7  CAP       18.0290   15.3090  -11.9930 C.ar  161  AGI161      0.0349
      8  CAQ       16.6790   15.6290  -11.9380 C.ar  161  AGI161      0.1484
      9  OAL       16.1770   16.6270  -12.7550 O.2   161  AGI161     -0.4531
     10  CAJ       15.9010   14.9790  -10.9750 C.ar  161  AGI161      0.0797
     11  CAR       14.5600   15.3120  -10.8450 C.ar  161  AGI161      0.2048
     12  OAA       13.8680   14.7270  -10.0060 O.2   161  AGI161     -0.2862
     13  CAT       14.0460   16.3460  -11.6310 C.ar  161  AGI161      0.1126
     14  CAS       14.8690   17.0080  -12.5540 C.ar  161  AGI161      0.1546
     15  CAK       14.3460   18.0750  -13.2960 C.ar  161  AGI161      0.0798
     16  CAN       13.0260   18.5010  -13.1030 C.ar  161  AGI161      0.2020
     17  OAC       12.5260   19.5440  -13.8320 O.3   161  AGI161     -0.2864
     18  CAI       12.2180   17.8620  -12.1640 C.ar  161  AGI161      0.0843
     19  CAO       12.7460   16.8050  -11.4200 C.ar  161  AGI161      0.2049
     20  OAD       11.9810   16.1860  -10.4890 O.3   161  AGI161     -0.2862
@<TRIPOS>BOND
     1    17    16    1
     2    15    16   ar
     3    15    14   ar
     4    16    18   ar
     5     9    14   ar
     6     9     8   ar
     7    14    13   ar
     8    18    19   ar
     9     2     1   ar
    10     2     3   ar
    11     1     7   ar
    12     7     6   ar
    13     7     8    1
    14     4     3    1
    15     3     5   ar
    16     5     6   ar
    17     8    10   ar
    18    13    19   ar
    19    13    11   ar
    20    19    20    1
    21    10    11   ar
    22    11    12    2
