@<TRIPOS>MOLECULE
3cfb_SPB_B_1.pdb
 23 24 0 0 0
SMALL
GASTEIGER

@<TRIPOS>ATOM
      1  C1       134.8550    4.3900   11.9480 C.ar  302  SPB302      0.0000
      2  C2       133.6690    4.9950   12.3400 C.ar  302  SPB302      0.0000
      3  C3       132.6310    4.1590   12.7790 C.ar  302  SPB302      0.0000
      4  C4       132.8190    2.7920   12.8680 C.ar  302  SPB302      0.0000
      5  C5       133.9810    2.2010   12.4920 C.ar  302  SPB302      0.0000
      6  C6       135.0320    3.0050   12.0500 C.ar  302  SPB302      0.0000
      7  C7       136.3500    2.4460   11.6380 C.2   302  SPB302      0.0000
      8  C8       136.6790    1.1690   11.7110 C.2   302  SPB302      0.0000
      9  C9       137.9750    0.5900   11.3020 C.ar  302  SPB302      0.0001
     10  C10      138.9170    1.3340   10.5870 C.ar  302  SPB302      0.0013
     11  C11      140.1760    0.7940   10.2980 C.ar  302  SPB302      0.0166
     12  C12      140.4880   -0.5270   10.5750 C.ar  302  SPB302      0.0734
     13  C13      139.5520   -1.2950   11.2270 C.ar  302  SPB302      0.0166
     14  C14      138.3310   -0.7190   11.5870 C.ar  302  SPB302      0.0013
     15  N15      141.7780   -0.9630   10.1940 N.am  302  SPB302     -0.1792
     16  C16      142.0450   -2.0460    9.4920 C.2   302  SPB302      0.2456
     17  C17      143.5330   -2.2630    9.2310 C.3   302  SPB302      0.0878
     18  C18      143.7930   -2.7470    7.8460 C.3   302  SPB302      0.0214
     19  C19      145.2980   -2.7670    7.6180 C.3   302  SPB302      0.1146
     20  C20      145.7440   -3.8080    6.6150 C.2   302  SPB302      0.3649
     21  O21      146.7010   -4.5520    6.9200 O.co2 302  SPB302     -0.2457
     22  O22      141.2210   -2.8370    9.0980 O.2   302  SPB302     -0.2730
     23  O23      145.1460   -3.8850    5.5300 O.co2 302  SPB302     -0.2457
@<TRIPOS>BOND
     1    23    20   ar
     2    20    21   ar
     3    20    19    1
     4    19    18    1
     5    18    17    1
     6    22    16    2
     7    17    16    1
     8    16    15   am
     9    15    12    1
    10    11    12   ar
    11    11    10   ar
    12    12    13   ar
    13    10     9   ar
    14    13    14   ar
    15     9    14   ar
    16     9     8    1
    17     7     8    2
    18     7     6    1
    19     1     6   ar
    20     1     2   ar
    21     6     5   ar
    22     2     3   ar
    23     5     4   ar
    24     3     4   ar
