@<TRIPOS>MOLECULE
3cfd_SPB_B_1.pdb
 23 24 0 0 0
SMALL
GASTEIGER

@<TRIPOS>ATOM
      1  C1        -0.0170   38.2090   28.4630 C.ar  302  SPB302      0.0000
      2  C2        -0.1680   37.1420   27.5850 C.ar  302  SPB302      0.0000
      3  C3         0.9000   36.7420   26.8000 C.ar  302  SPB302      0.0000
      4  C4         2.1060   37.4120   26.9090 C.ar  302  SPB302      0.0000
      5  C5         2.2380   38.4680   27.8020 C.ar  302  SPB302      0.0000
      6  C6         1.1790   38.8810   28.5860 C.ar  302  SPB302      0.0000
      7  C7         1.2610   40.0060   29.5540 C.2   302  SPB302      0.0000
      8  C8         2.3720   40.7180   29.7070 C.2   302  SPB302      0.0000
      9  C9         2.5090   41.8490   30.6540 C.ar  302  SPB302      0.0001
     10  C10        1.5150   42.3190   31.5040 C.ar  302  SPB302      0.0013
     11  C11        1.7800   43.4010   32.3490 C.ar  302  SPB302      0.0166
     12  C12        3.0230   44.0280   32.3560 C.ar  302  SPB302      0.0734
     13  C13        4.0070   43.5410   31.5050 C.ar  302  SPB302      0.0166
     14  C14        3.7500   42.4740   30.6620 C.ar  302  SPB302      0.0013
     15  N15        3.2720   45.0820   33.2640 N.am  302  SPB302     -0.1792
     16  C16        4.5150   45.3880   33.7020 C.2   302  SPB302      0.2456
     17  C17        4.6600   46.4930   34.7260 C.3   302  SPB302      0.0878
     18  C18        4.8360   45.8680   36.1340 C.3   302  SPB302      0.0214
     19  C19        3.5170   45.9180   36.9320 C.3   302  SPB302      0.1146
     20  C20        3.4190   45.0510   38.1850 C.2   302  SPB302      0.3649
     21  O21        2.3780   45.2190   38.8680 O.co2 302  SPB302     -0.2457
     22  O22        5.5500   44.8520   33.3280 O.2   302  SPB302     -0.2730
     23  O23        4.3080   44.2220   38.5230 O.co2 302  SPB302     -0.2457
@<TRIPOS>BOND
     1     3     4   ar
     2     3     2   ar
     3     4     5   ar
     4     2     1   ar
     5     5     6   ar
     6     1     6   ar
     7     6     7    1
     8     7     8    2
     9     8     9    1
    10     9    14   ar
    11     9    10   ar
    12    14    13   ar
    13    10    11   ar
    14    13    12   ar
    15    11    12   ar
    16    12    15    1
    17    15    16   am
    18    22    16    2
    19    16    17    1
    20    17    18    1
    21    18    19    1
    22    19    20    1
    23    20    23   ar
    24    20    21   ar
