@<TRIPOS>MOLECULE
3cfl_5CH_A_1.pdb
 24 26 0 0 0
SMALL
GASTEIGER

@<TRIPOS>ATOM
      1  N9       -21.7260   17.9100   18.0730 N.ar  693  5CH693     -0.2429
      2  C2       -24.8010   15.2420   13.3300 C.ar  693  5CH693      0.0183
      3  C4       -23.5710   16.7950   14.8030 C.ar  693  5CH693      0.0016
      4  C5       -22.9750   17.3690   13.6720 C.ar  693  5CH693      0.0014
      5  C6       -23.2760   16.8820   12.3860 C.ar  693  5CH693      0.0183
      6  O24      -23.2570   15.2500    9.9310 O.2   693  5CH693     -0.1686
      7  S21      -24.4990   15.2980   10.6860 S.O2  693  5CH693      0.0104
      8  O23      -25.0970   13.9700   10.6810 O.2   693  5CH693     -0.1686
      9  C22      -25.5490   16.4100    9.9970 C.3   693  5CH693      0.1816
     10  C1       -24.1830   15.8110   12.1940 C.ar  693  5CH693      0.1057
     11  C3       -24.4960   15.7360   14.6190 C.ar  693  5CH693      0.0014
     12  C7       -23.2570   17.3330   16.1800 C.ar  693  5CH693      0.0186
     13  C12      -24.3140   17.8190   16.9420 C.ar  693  5CH693      0.0145
     14  C11      -24.0710   18.3260   18.2210 C.ar  693  5CH693      0.0768
     15 CL20      -25.4640   18.9240   19.1720 Cl    693  5CH693     -0.0806
     16  C10      -22.7820   18.3710   18.7750 C.ar  693  5CH693      0.1101
     17  C8       -21.8840   17.4010   16.8150 C.ar  693  5CH693      0.0828
     18  C13      -20.6830   16.8800   16.1150 C.ar  693  5CH693      0.0368
     19  C18      -19.5340   17.6480   15.9670 C.ar  693  5CH693      0.0043
     20  C17      -18.4410   17.0930   15.2990 C.ar  693  5CH693      0.0148
     21  C16      -18.5280   15.7830   14.8220 C.ar  693  5CH693      0.0594
     22  C19      -17.3430   15.1940   14.1110 C.3   693  5CH693      0.0521
     23  N15      -19.6620   15.0420   14.9910 N.ar  693  5CH693     -0.2481
     24  C14      -20.7250   15.5620   15.6290 C.ar  693  5CH693      0.0999
@<TRIPOS>BOND
     1     6     7    2
     2     9     7    1
     3     8     7    2
     4     7    10    1
     5    10     5   ar
     6    10     2   ar
     7     5     4   ar
     8     2    11   ar
     9     4     3   ar
    10    22    21    1
    11    11     3   ar
    12     3    12    1
    13    21    23   ar
    14    21    20   ar
    15    23    24   ar
    16    20    19   ar
    17    24    18   ar
    18    19    18   ar
    19    18    17    1
    20    12    17   ar
    21    12    13   ar
    22    17     1   ar
    23    13    14   ar
    24     1    16   ar
    25    14    16   ar
    26    14    15    1
