@<TRIPOS>MOLECULE
3cfn_2AN_A_1.pdb
 21 23 0 0 0
SMALL
GASTEIGER

@<TRIPOS>ATOM
      1  C1       -24.2300   -0.6460   -4.1920 C.ar    1  2AN1        0.0717
      2  C2       -24.2910   -1.8480   -4.9040 C.ar    1  2AN1        0.0165
      3  C3       -25.3210   -2.7580   -4.7090 C.ar    1  2AN1        0.0013
      4  C4       -26.3120   -2.4640   -3.7810 C.ar    1  2AN1        0.0001
      5  C5       -26.2710   -1.2750   -3.0600 C.ar    1  2AN1        0.0025
      6  C6       -27.2990   -1.0470   -2.1480 C.ar    1  2AN1        0.0001
      7  C7       -27.3170    0.1200   -1.3970 C.ar    1  2AN1        0.0013
      8  C8       -26.3000    1.0510   -1.5650 C.ar    1  2AN1        0.0189
      9  N        -23.1900    0.1950   -4.4310 N.pl3   1  2AN1       -0.2124
     10  S        -24.1580    2.0180   -2.5410 S.3     1  2AN1        0.0421
     11  C9       -25.2570    0.8450   -2.4730 C.ar    1  2AN1        0.1135
     12  C10      -25.2310   -0.3410   -3.2450 C.ar    1  2AN1        0.0329
     13  C11      -22.5030    0.2340   -5.6030 C.ar    1  2AN1        0.0705
     14  C12      -21.4820   -0.6870   -5.8620 C.ar    1  2AN1        0.0165
     15  C13      -20.7760   -0.6430   -7.0640 C.ar    1  2AN1        0.0013
     16  C14      -21.0830    0.3350   -8.0110 C.ar    1  2AN1        0.0001
     17  C15      -22.0980    1.2590   -7.7550 C.ar    1  2AN1        0.0013
     18  C16      -22.8050    1.2110   -6.5530 C.ar    1  2AN1        0.0165
     19  O1       -24.3570    2.9120   -1.3860 O.3     1  2AN1       -0.0650
     20  O2       -24.3060    2.7870   -3.7970 O.3     1  2AN1       -0.0650
     21  O3       -22.7940    1.4610   -2.4570 O.3     1  2AN1       -0.0650
@<TRIPOS>BOND
     1    16    17   ar
     2    16    15   ar
     3    17    18   ar
     4    15    14   ar
     5    18    13   ar
     6    14    13   ar
     7    13     9    1
     8     2     3   ar
     9     2     1   ar
    10     3     4   ar
    11     9     1    1
    12     1    12   ar
    13    20    10    1
    14     4     5   ar
    15    12     5   ar
    16    12    11   ar
    17     5     6   ar
    18    10    11    1
    19    10    21    1
    20    10    19    1
    21    11     8   ar
    22     6     7   ar
    23     8     7   ar
