@<TRIPOS>MOLECULE
3cfo_GMP_A_1.pdb
 20 22 0 0 0
SMALL
GASTEIGER

@<TRIPOS>ATOM
      1  O5'        3.3910    7.3490   56.6370 O.3   1000  GMP1000    -0.2176
      2  C5'        4.7520    7.0340   56.4490 C.3   1000  GMP1000     0.2142
      3  C4'        5.5990    7.6100   57.5870 C.3   1000  GMP1000     0.1828
      4  O4'        6.8440    6.9350   57.6990 O.3   1000  GMP1000    -0.3325
      5  C3'        5.9310    9.0710   57.3460 C.3   1000  GMP1000     0.2159
      6  O3'        5.9050    9.7050   58.6020 O.3   1000  GMP1000    -0.2175
      7  C2'        7.3420    9.0630   56.7780 C.3   1000  GMP1000     0.2310
      8  O2'        8.0970   10.1930   57.1800 O.3   1000  GMP1000    -0.2158
      9  C1'        7.9370    7.7610   57.3170 C.3   1000  GMP1000     0.2293
     10  N9         8.8340    7.0860   56.3430 N.pl3 1000  GMP1000    -0.2354
     11  C8        10.1580    6.8170   56.5870 C.3   1000  GMP1000     0.2246
     12  N7        10.6840    6.2000   55.5100 N.2   1000  GMP1000    -0.2322
     13  C5         9.7240    6.0620   54.5740 C.2   1000  GMP1000     0.2182
     14  C6         9.7460    5.4950   53.2990 C.1   1000  GMP1000     0.2372
     15  O6        10.7880    5.0070   52.8500 O.2   1000  GMP1000    -0.2069
     16  N1         8.5920    5.4820   52.5350 N.2   1000  GMP1000    -0.2485
     17  C2         7.4290    6.0300   53.0420 C.1   1000  GMP1000     0.2531
     18  N2         6.3270    6.0060   52.2930 N.pl3 1000  GMP1000    -0.0226
     19  N3         7.4190    6.5940   54.3150 N.2   1000  GMP1000    -0.3074
     20  C4         8.5470    6.6130   55.0760 C.2   1000  GMP1000     0.2300
@<TRIPOS>BOND
     1    18    17    1
     2    16    17    2
     3    16    14    2
     4    15    14    2
     5    17    19    2
     6    14    13    1
     7    19    20    2
     8    13    20    1
     9    13    12    2
    10    20    10    1
    11    12    11    1
    12    10    11    1
    13    10     9    1
    14     2     1    1
    15     2     3    1
    16     7     8    1
    17     7     9    1
    18     7     5    1
    19     9     4    1
    20     5     3    1
    21     5     6    1
    22     3     4    1
