@<TRIPOS>MOLECULE
3cfp_TTP_A_1.pdb
 29 30 0 0 0
SMALL
GASTEIGER

@<TRIPOS>ATOM
      1  PA        -0.0330   45.9430   15.4380 P.3   1006  TTP1006     0.2189
      2  O1A       -0.6180   45.2860   16.6800 O.3   1006  TTP1006    -0.4371
      3  O2A       -0.7320   45.5710   14.1490 O.2   1006  TTP1006    -0.5170
      4  O3A        1.5150   45.5060   15.3750 O.3   1006  TTP1006    -0.2700
      5  PB         2.6850   46.2650   14.5820 P.3   1006  TTP1006     0.2277
      6  O1B        3.3790   47.2800   15.4590 O.3   1006  TTP1006    -0.4368
      7  O2B        2.2620   46.8100   13.2330 O.2   1006  TTP1006    -0.5168
      8  O3B        3.7000   45.0460   14.3570 O.3   1006  TTP1006    -0.2258
      9  PG         3.2010   43.6200   13.7920 P.3   1006  TTP1006     0.5373
     10  O1G        2.0550   43.7260   12.8070 O.2   1006  TTP1006    -0.2221
     11  O2G        4.3900   43.0290   13.0470 O.3   1006  TTP1006    -0.1143
     12  O3G        2.7780   42.8400   15.0250 O.3   1006  TTP1006    -0.1143
     13  O5'       -0.1090   47.5450   15.6080 O.3   1006  TTP1006    -0.3112
     14  C5'       -0.2020   48.4060   14.4820 C.3   1006  TTP1006     0.1812
     15  C4'        0.3470   49.7600   14.8890 C.3   1006  TTP1006     0.1773
     16  O4'       -0.4550   50.2490   15.9520 O.3   1006  TTP1006    -0.3339
     17  C3'        1.7570   49.7190   15.4420 C.3   1006  TTP1006     0.1857
     18  O3'        2.7600   49.9290   14.4490 O.3   1006  TTP1006    -0.2203
     19  C2'        1.7650   50.8670   16.4120 C.3   1006  TTP1006     0.0874
     20  C1'        0.3430   50.9080   16.9430 C.3   1006  TTP1006     0.2090
     21  N1         0.4130   50.2200   18.2380 N.am  1006  TTP1006    -0.1794
     22  C2         0.8400   50.9810   19.3480 C.1   1006  TTP1006     0.2844
     23  O2         1.0880   52.1990   19.1680 O.2   1006  TTP1006    -0.1918
     24  N3         0.9550   50.4310   20.5720 N.2   1006  TTP1006    -0.2455
     25  C4         0.6830   49.1310   20.7660 C.1   1006  TTP1006     0.2134
     26  O4         0.8090   48.6320   21.9040 O.2   1006  TTP1006    -0.2088
     27  C5         0.2360   48.2990   19.6190 C.2   1006  TTP1006     0.0891
     28  C5M       -0.0790   46.8300   19.7620 C.3   1006  TTP1006     0.0462
     29  C6         0.1370   48.9140   18.3780 C.2   1006  TTP1006     0.0877
@<TRIPOS>BOND
     1    10     9    2
     2    11     9    1
     3     7     5    2
     4     9     8    1
     5     9    12    1
     6     3     1    2
     7     8     5    1
     8    18    17    1
     9    14    15    1
    10    14    13    1
    11     5     4    1
    12     5     6    1
    13    15    17    1
    14    15    16    1
    15     4     1    1
    16     1    13    1
    17     1     2    1
    18    17    19    1
    19    16    20    1
    20    19    20    1
    21    20    21    1
    22    21    29    1
    23    21    22   am
    24    29    27    2
    25    23    22    2
    26    22    24    2
    27    27    28    1
    28    27    25    1
    29    24    25    2
    30    25    26    2
