@<TRIPOS>MOLECULE
3cfq_DIF_A_1.pdb
 19 20 0 0 0
SMALL
GASTEIGER

@<TRIPOS>ATOM
      1  C1        22.2160   -0.6600  -28.0520 C.ar    1  DIF1        0.0128
      2  C2        22.1370   -0.8850  -26.6770 C.ar    1  DIF1        0.0737
      3 CL2        23.0080   -2.3070  -26.0100 Cl      1  DIF1       -0.0809
      4  C3        21.4110   -0.0260  -25.8470 C.ar    1  DIF1        0.0915
      5  C4        20.7450    1.0620  -26.4360 C.ar    1  DIF1        0.0737
      6 CL4        19.7710    2.2320  -25.4790 Cl      1  DIF1       -0.0809
      7  C5        20.8320    1.2820  -27.8100 C.ar    1  DIF1        0.0128
      8  C6        21.5630    0.4250  -28.6250 C.ar    1  DIF1        0.0018
      9  N1        21.3530   -0.2920  -24.5030 N.pl3   1  DIF1       -0.2111
     10  C7        21.6870    0.2170  -22.1220 C.ar    1  DIF1        0.0043
     11  C8        21.6800    0.5670  -23.4900 C.ar    1  DIF1        0.0671
     12  C9        22.0200    1.8830  -23.8170 C.ar    1  DIF1        0.0162
     13  C10       22.3530    2.8340  -22.8590 C.ar    1  DIF1        0.0013
     14  C11       22.3650    2.4840  -21.5200 C.ar    1  DIF1       -0.0002
     15  C12       22.0340    1.1820  -21.1730 C.ar    1  DIF1       -0.0024
     16  C13       21.3760   -1.1270  -21.4770 C.3     1  DIF1        0.1416
     17  C14       20.8320   -2.2760  -22.2900 C.2     1  DIF1        0.3693
     18  O1        19.9330   -2.9740  -21.7730 O.co2   1  DIF1       -0.2453
     19  O2        21.3040   -2.5190  -23.4180 O.co2   1  DIF1       -0.2453
@<TRIPOS>BOND
     1     8     1   ar
     2     8     7   ar
     3     1     2   ar
     4     7     5   ar
     5     2     3    1
     6     2     4   ar
     7     5     4   ar
     8     5     6    1
     9     4     9    1
    10     9    11    1
    11    12    11   ar
    12    12    13   ar
    13    11    10   ar
    14    19    17   ar
    15    13    14   ar
    16    17    18   ar
    17    17    16    1
    18    10    16    1
    19    10    15   ar
    20    14    15   ar
