@<TRIPOS>MOLECULE
3cfr_TTP_A_1.pdb
 29 30 0 0 0
SMALL
GASTEIGER

@<TRIPOS>ATOM
      1  PA         0.0200   49.4870   16.5420 P.3   916  TTP916      0.2189
      2  O1A       -0.4330   48.7120   17.7470 O.3   916  TTP916     -0.4371
      3  O2A       -0.7650   49.0620   15.3360 O.2   916  TTP916     -0.5170
      4  O3A        1.6040   49.2610   16.3330 O.3   916  TTP916     -0.2700
      5  PB         2.6370   50.0120   15.3300 P.3   916  TTP916      0.2277
      6  O1B        3.3830   51.1480   15.9980 O.3   916  TTP916     -0.4368
      7  O2B        2.0570   50.4300   13.9940 O.2   916  TTP916     -0.5168
      8  O3B        3.6960   48.8390   15.0790 O.3   916  TTP916     -0.2258
      9  PG         3.2590   47.3980   14.5280 P.3   916  TTP916      0.5373
     10  O1G        1.9180   47.4360   13.8480 O.3   916  TTP916     -0.1143
     11  O2G        4.3110   46.9910   13.5100 O.2   916  TTP916     -0.2221
     12  O3G        3.1590   46.4350   15.6820 O.3   916  TTP916     -0.1143
     13  O5'       -0.1680   51.0660   16.7950 O.3   916  TTP916     -0.3112
     14  C5'       -0.3220   51.9860   15.7150 C.3   916  TTP916      0.1812
     15  C4'        0.1010   53.3650   16.1860 C.3   916  TTP916      0.1773
     16  O4'       -0.6590   53.7290   17.3420 O.3   916  TTP916     -0.3339
     17  C3'        1.5500   53.3840   16.6420 C.3   916  TTP916      0.1857
     18  O3'        2.4570   53.6460   15.5770 O.3   916  TTP916     -0.2203
     19  C2'        1.5650   54.4730   17.6850 C.3   916  TTP916      0.0874
     20  C1'        0.1830   54.3600   18.3240 C.3   916  TTP916      0.2090
     21  N1         0.3240   53.5720   19.5690 N.am  916  TTP916     -0.1794
     22  C2         0.7490   54.2490   20.7300 C.1   916  TTP916      0.2844
     23  O2         0.9720   55.4770   20.6470 O.2   916  TTP916     -0.1918
     24  N3         0.9230   53.6010   21.9000 N.2   916  TTP916     -0.2455
     25  C4         0.6970   52.2820   21.9990 C.1   916  TTP916      0.2134
     26  O4         0.8540   51.6860   23.0860 O.2   916  TTP916     -0.2088
     27  C5         0.2440   51.5400   20.7920 C.2   916  TTP916      0.0891
     28  C5M       -0.0280   50.0600   20.8440 C.3   916  TTP916      0.0462
     29  C6         0.0840   52.2490   19.6060 C.2   916  TTP916      0.0877
@<TRIPOS>BOND
     1    11     9    2
     2    10     9    1
     3     7     5    2
     4     9     8    1
     5     9    12    1
     6     8     5    1
     7     5     6    1
     8     5     4    1
     9     3     1    2
    10    18    17    1
    11    14    15    1
    12    14    13    1
    13    15    17    1
    14    15    16    1
    15     4     1    1
    16     1    13    1
    17     1     2    1
    18    17    19    1
    19    16    20    1
    20    19    20    1
    21    20    21    1
    22    21    29    1
    23    21    22   am
    24    29    27    2
    25    23    22    2
    26    22    24    2
    27    27    28    1
    28    27    25    1
    29    24    25    2
    30    25    26    2
