@<TRIPOS>MOLECULE
3cft_5NS_A_1.pdb
 15 16 0 0 0
SMALL
GASTEIGER

@<TRIPOS>ATOM
      1  C1       -22.4990    1.7320  -27.0500 C.ar    1  5NS1        0.0189
      2  C2       -22.9310    2.1000  -25.7760 C.ar    1  5NS1        0.0014
      3  C3       -22.5900    1.3100  -24.6810 C.ar    1  5NS1        0.0014
      4  C4       -21.8130    0.1540  -24.8510 C.ar    1  5NS1        0.0180
      5  C5       -21.3740   -0.2190  -26.1400 C.ar    1  5NS1        0.0189
      6  C6       -21.7170    0.5840  -27.2480 C.ar    1  5NS1        0.1123
      7  C9       -20.2600   -2.1530  -25.1700 C.ar    1  5NS1        0.0014
      8  C10      -20.5960   -1.3790  -26.2800 C.ar    1  5NS1        0.0014
      9  O14      -20.7370    1.4800  -29.3870 O.3     1  5NS1       -0.0650
     10  S11      -21.2660    0.2440  -28.7650 S.3     1  5NS1        0.0421
     11  O12      -22.4480   -0.2750  -29.5040 O.3     1  5NS1       -0.0650
     12  O13      -20.2070   -0.7970  -28.8280 O.3     1  5NS1       -0.0650
     13  C8       -20.7040   -1.7800  -23.9010 C.ar    1  5NS1        0.0181
     14  C7       -21.4790   -0.6300  -23.7340 C.ar    1  5NS1        0.0891
     15  N15      -21.8940   -0.3020  -22.4750 N.pl3   1  5NS1       -0.1281
@<TRIPOS>BOND
     1    11    10    1
     2     9    10    1
     3    12    10    1
     4    10     6    1
     5     6     1   ar
     6     6     5   ar
     7     1     2   ar
     8     8     5   ar
     9     8     7   ar
    10     5     4   ar
    11     2     3   ar
    12     7    13   ar
    13     4     3   ar
    14     4    14   ar
    15    13    14   ar
    16    14    15    1
