@<TRIPOS>MOLECULE
3cg5_ISS_A_1.pdb
 11 10 0 0 0
SMALL
GASTEIGER

@<TRIPOS>ATOM
      1  CAG      -11.7680  -11.1100    5.3230 C.2   684  ISS684      0.2089
      2  OAH      -12.5240  -10.6150    4.4890 O.2   684  ISS684     -0.2882
      3  CAI      -10.5910  -11.9850    4.8890 C.3   684  ISS684      0.0910
      4  CAJ      -10.6150  -12.2270    3.3790 C.3   684  ISS684      0.0974
      5  NAK       -9.5230  -13.1390    3.0100 N.3   684  ISS684     -0.2097
      6  CAL       -9.5800  -13.4150    1.5670 C.3   684  ISS684      0.1533
      7  CAM       -9.0880  -12.1900    0.7930 C.2   684  ISS684      0.1760
      8  OAN       -8.9640  -11.1050    1.3590 O.2   684  ISS684     -0.2941
      9  CAO       -8.7500  -12.3330   -0.6920 C.3   684  ISS684      0.1380
     10  CAP       -9.8510  -13.1330   -1.3910 C.2   684  ISS684      0.2153
     11  OAQ      -10.5870  -13.8020   -0.7720 O.2   684  ISS684     -0.2878
@<TRIPOS>BOND
     1    10    11    2
     2    10     9    1
     3     9     7    1
     4     7     8    2
     5     7     6    1
     6     6     5    1
     7     5     4    1
     8     4     3    1
     9     2     1    2
    10     3     1    1
