@<TRIPOS>MOLECULE
3cg9_RAM_A_1.pdb
 11 11 0 0 0
SMALL
GASTEIGER

@<TRIPOS>ATOM
      1  C1       -38.8380  -11.6650  -45.4570 C.3   1002  RAM1002     0.3023
      2  C2       -38.1190  -12.9590  -44.9610 C.3   1002  RAM1002     0.2434
      3  C3       -38.5200  -13.2250  -43.5050 C.3   1002  RAM1002     0.2198
      4  C4       -40.0550  -13.4010  -43.4310 C.3   1002  RAM1002     0.2118
      5  C5       -40.6970  -12.0870  -43.9500 C.3   1002  RAM1002     0.1509
      6  C6       -42.2220  -12.2290  -43.9180 C.3   1002  RAM1002     0.0350
      7  O1       -38.4090  -10.5110  -44.6990 O.3   1002  RAM1002    -0.1869
      8  O2       -38.5330  -14.0950  -45.7430 O.3   1002  RAM1002    -0.2148
      9  O3       -37.8640  -14.4100  -43.0640 O.3   1002  RAM1002    -0.2174
     10  O4       -40.4590  -13.6430  -42.0540 O.3   1002  RAM1002    -0.2177
     11  O5       -40.2910  -11.8210  -45.3320 O.3   1002  RAM1002    -0.3264
@<TRIPOS>BOND
     1     8     2    1
     2     1    11    1
     3     1     2    1
     4     1     7    1
     5    11     5    1
     6     2     3    1
     7     5     6    1
     8     5     4    1
     9     3     4    1
    10     3     9    1
    11     4    10    1
