@<TRIPOS>MOLECULE
3cgb_COA_A_1.pdb
 48 50 0 0 0
SMALL
GASTEIGER

@<TRIPOS>ATOM
      1  N1A       54.7570   65.1610   43.0980 N.2   445  COA445      0.0021
      2  C2A       56.0040   65.0410   42.5770 C.3   445  COA445      0.5254
      3  N3A       56.2170   64.3200   41.4490 N.2   445  COA445     -0.0055
      4  C4A       55.1790   63.7050   40.8180 C.2   445  COA445      0.3518
      5  C5A       53.8950   63.8080   41.3300 C.2   445  COA445      0.2526
      6  C6A       53.6900   64.5560   42.4970 C.2   445  COA445      0.4393
      7  N6A       52.4390   64.6780   43.0250 N.pl3 445  COA445      0.2180
      8  N7A       53.0710   63.0960   40.5210 N.2   445  COA445     -0.2095
      9  C8A       53.8320   62.5710   39.5340 C.3   445  COA445      0.3377
     10  N9A       55.1120   62.9450   39.7260 N.pl3 445  COA445     -0.1439
     11  C1B       56.2640   62.5720   38.8880 C.3   445  COA445      0.3185
     12  C2B       56.5970   61.1080   39.1350 C.3   445  COA445      0.2543
     13  O2B       57.5410   60.9010   40.2010 O.3   445  COA445     -0.2131
     14  C3B       57.1330   60.6420   37.7990 C.3   445  COA445      0.1928
     15  O3B       58.5000   61.0130   37.7020 O.3   445  COA445     -0.2673
     16  P3B       59.6300   60.2690   36.8510 P.3   445  COA445      0.5327
     17  O7A       60.8350   61.1590   36.8520 O.3   445  COA445     -0.1145
     18  O8A       59.0860   60.0790   35.4660 O.2   445  COA445     -0.2224
     19  O9A       59.8540   58.9520   37.5590 O.3   445  COA445     -0.1145
     20  C4B       56.3520   61.4870   36.8150 C.3   445  COA445      0.1795
     21  O4B       55.8390   62.6080   37.5490 O.3   445  COA445     -0.3136
     22  C5B       55.2300   60.6060   36.2400 C.3   445  COA445      0.1812
     23  O5B       54.1880   61.3420   35.5970 O.3   445  COA445     -0.3112
     24  P1A       52.8850   60.6100   34.9800 P.3   445  COA445      0.2189
     25  O1A       52.2970   59.6600   36.0050 O.3   445  COA445     -0.4371
     26  O2A       52.0180   61.6600   34.3510 O.2   445  COA445     -0.5170
     27  O3A       53.4580   59.6880   33.7840 O.3   445  COA445     -0.2703
     28  P2A       54.2740   60.1850   32.4840 P.3   445  COA445      0.2188
     29  O4A       55.6230   59.4990   32.5160 O.3   445  COA445     -0.4371
     30  O5A       54.2350   61.6900   32.3750 O.2   445  COA445     -0.5170
     31  O6A       53.4350   59.6150   31.2610 O.3   445  COA445     -0.3138
     32  CBP       51.9640   58.1310   30.0750 C.3   445  COA445      0.0645
     33  CCP       52.7000   58.3990   31.3820 C.3   445  COA445      0.1519
     34  CDP       50.4570   58.2530   30.3000 C.3   445  COA445      0.0056
     35  CEP       52.3710   59.1980   29.0660 C.3   445  COA445      0.0056
     36  CAP       52.3660   56.7400   29.5380 C.3   445  COA445      0.2312
     37  OAP       52.3450   55.7580   30.5870 O.3   445  COA445     -0.2131
     38  C9P       51.4710   56.1860   28.4570 C.2   445  COA445      0.2719
     39  O9P       51.4380   56.6860   27.3470 O.2   445  COA445     -0.2706
     40  N8P       50.7160   55.1250   28.7300 N.am  445  COA445     -0.2028
     41  C7P       49.8340   54.5060   27.7430 C.3   445  COA445      0.1248
     42  C6P       48.7680   53.8300   28.5470 C.3   445  COA445      0.1102
     43  C5P       49.4070   52.5770   29.0880 C.2   445  COA445      0.2432
     44  O5P       50.0150   52.5880   30.1370 O.2   445  COA445     -0.2733
     45  N4P       49.2570   51.4800   28.3840 N.am  445  COA445     -0.2044
     46  C3P       49.8030   50.2170   28.8030 C.3   445  COA445      0.1276
     47  C2P       48.8110   49.8150   29.8640 C.3   445  COA445      0.0920
     48  S1P       48.6060   48.0830   29.4840 S.3   445  COA445     -0.0802
@<TRIPOS>BOND
     1    39    38    2
     2    41    42    1
     3    41    40    1
     4    45    46    1
     5    45    43   am
     6    38    40   am
     7    38    36    1
     8    42    43    1
     9    46    47    1
    10    35    32    1
    11    43    44    2
    12    48    47    1
    13    36    32    1
    14    36    37    1
    15    32    34    1
    16    32    33    1
    17    31    33    1
    18    31    28    1
    19    30    28    2
    20    28    29    1
    21    28    27    1
    22    27    24    1
    23    26    24    2
    24    24    23    1
    25    24    25    1
    26    18    16    2
    27    23    22    1
    28    22    20    1
    29    20    21    1
    30    20    14    1
    31    16    17    1
    32    16    19    1
    33    16    15    1
    34    21    11    1
    35    15    14    1
    36    14    12    1
    37    11    12    1
    38    11    10    1
    39    12    13    1
    40     9    10    1
    41     9     8    1
    42    10     4    1
    43     8     5    2
    44     4     5    1
    45     4     3    2
    46     5     6    1
    47     3     2    1
    48     6     7    1
    49     6     1    2
    50     2     1    1
