@<TRIPOS>MOLECULE
3cgc_COA_A_1.pdb
 48 50 0 0 0
SMALL
GASTEIGER

@<TRIPOS>ATOM
      1  N1A       53.7080   65.6870   42.8520 N.2   445  COA445      0.0021
      2  C2A       54.9750   65.6620   42.3990 C.3   445  COA445      0.5254
      3  N3A       55.3320   64.9040   41.3400 N.2   445  COA445     -0.0055
      4  C4A       54.4120   64.1470   40.6940 C.2   445  COA445      0.3518
      5  C5A       53.0970   64.1540   41.1410 C.2   445  COA445      0.2526
      6  C6A       52.7540   64.9450   42.2430 C.2   445  COA445      0.4393
      7  N6A       51.4760   64.9820   42.7100 N.pl3 445  COA445      0.2180
      8  N7A       52.3990   63.3240   40.3350 N.2   445  COA445     -0.2095
      9  C8A       53.2640   62.8190   39.4210 C.3   445  COA445      0.3377
     10  N9A       54.4930   63.3200   39.6450 N.pl3 445  COA445     -0.1439
     11  C1B       55.7250   63.0170   38.8660 C.3   445  COA445      0.3185
     12  C2B       56.2130   61.5930   39.1270 C.3   445  COA445      0.2543
     13  O2B       57.2040   61.5370   40.1520 O.3   445  COA445     -0.2131
     14  C3B       56.7770   61.1390   37.7940 C.3   445  COA445      0.1928
     15  O3B       58.1530   61.5140   37.7170 O.3   445  COA445     -0.2673
     16  P3B       59.2720   60.7090   36.8800 P.3   445  COA445      0.5327
     17  O7A       60.4650   61.6250   36.8720 O.3   445  COA445     -0.1145
     18  O8A       58.6510   60.4810   35.5250 O.2   445  COA445     -0.2224
     19  O9A       59.5250   59.4290   37.6470 O.3   445  COA445     -0.1145
     20  C4B       55.9790   61.9410   36.7720 C.3   445  COA445      0.1795
     21  O4B       55.4360   63.0720   37.4640 O.3   445  COA445     -0.3136
     22  C5B       54.8730   61.0700   36.1690 C.3   445  COA445      0.1812
     23  O5B       53.8930   61.8650   35.5020 O.3   445  COA445     -0.3112
     24  P1A       52.5060   61.2260   34.9840 P.3   445  COA445      0.2189
     25  O1A       51.9090   60.3820   36.0890 O.3   445  COA445     -0.4371
     26  O2A       51.6760   62.3220   34.3690 O.2   445  COA445     -0.5170
     27  O3A       52.9530   60.2270   33.7950 O.3   445  COA445     -0.2703
     28  P2A       53.8230   60.6610   32.5020 P.3   445  COA445      0.2188
     29  O4A       55.1340   59.9130   32.5500 O.3   445  COA445     -0.4371
     30  O5A       53.8420   62.1660   32.3770 O.2   445  COA445     -0.5170
     31  O6A       52.9570   60.0740   31.2830 O.3   445  COA445     -0.3138
     32  CBP       51.5590   58.4770   30.0670 C.3   445  COA445      0.0645
     33  CCP       52.3010   58.8050   31.3650 C.3   445  COA445      0.1519
     34  CDP       50.0630   58.7330   30.2460 C.3   445  COA445      0.0056
     35  CEP       52.0550   59.4260   28.9750 C.3   445  COA445      0.0056
     36  CAP       51.8480   57.0080   29.6560 C.3   445  COA445      0.2312
     37  OAP       51.6880   56.0850   30.7520 O.3   445  COA445     -0.2131
     38  C9P       50.9890   56.4950   28.5160 C.2   445  COA445      0.2719
     39  O9P       51.1660   56.8640   27.3600 O.2   445  COA445     -0.2706
     40  N8P       50.0340   55.6140   28.8110 N.am  445  COA445     -0.2028
     41  C7P       49.1310   55.0070   27.8350 C.3   445  COA445      0.1248
     42  C6P       48.2410   54.0350   28.5890 C.3   445  COA445      0.1102
     43  C5P       49.0500   52.9040   29.1870 C.2   445  COA445      0.2432
     44  O5P       49.7840   53.1050   30.1390 O.2   445  COA445     -0.2733
     45  N4P       48.8930   51.7040   28.6450 N.am  445  COA445     -0.2044
     46  C3P       49.5500   50.4800   29.0700 C.3   445  COA445      0.1276
     47  C2P       48.4800   49.8050   29.9100 C.3   445  COA445      0.0920
     48  S1P       47.4260   48.8640   28.7780 S.3   445  COA445     -0.0802
@<TRIPOS>BOND
     1    39    38    2
     2    41    42    1
     3    41    40    1
     4    38    40   am
     5    38    36    1
     6    42    43    1
     7    45    46    1
     8    45    43   am
     9    48    47    1
    10    35    32    1
    11    46    47    1
    12    43    44    2
    13    36    32    1
    14    36    37    1
    15    32    34    1
    16    32    33    1
    17    31    33    1
    18    31    28    1
    19    30    28    2
    20    28    29    1
    21    28    27    1
    22    27    24    1
    23    26    24    2
    24    24    23    1
    25    24    25    1
    26    23    22    1
    27    18    16    2
    28    22    20    1
    29    20    21    1
    30    20    14    1
    31    17    16    1
    32    16    19    1
    33    16    15    1
    34    21    11    1
    35    15    14    1
    36    14    12    1
    37    11    12    1
    38    11    10    1
    39    12    13    1
    40     9    10    1
    41     9     8    1
    42    10     4    1
    43     8     5    2
    44     4     5    1
    45     4     3    2
    46     5     6    1
    47     3     2    1
    48     6     7    1
    49     6     1    2
    50     2     1    1
