@<TRIPOS>MOLECULE
3cgd_COA_A_1.pdb
 48 50 0 0 0
SMALL
GASTEIGER

@<TRIPOS>ATOM
      1  N1A       53.5390   65.5040   42.6160 N.2   445  COA445      0.0021
      2  C2A       54.8410   65.4900   42.2530 C.3   445  COA445      0.5254
      3  N3A       55.2830   64.7250   41.2320 N.2   445  COA445     -0.0055
      4  C4A       54.4100   63.9450   40.5440 C.2   445  COA445      0.3518
      5  C5A       53.0620   63.9400   40.8940 C.2   445  COA445      0.2526
      6  C6A       52.6280   64.7420   41.9540 C.2   445  COA445      0.4393
      7  N6A       51.3140   64.7560   42.3170 N.pl3 445  COA445      0.2180
      8  N7A       52.4250   63.0870   40.0630 N.2   445  COA445     -0.2095
      9  C8A       53.3530   62.5790   39.2210 C.3   445  COA445      0.3377
     10  N9A       54.5600   63.1000   39.5200 N.pl3 445  COA445     -0.1439
     11  C1B       55.8350   62.7920   38.8240 C.3   445  COA445      0.3185
     12  C2B       56.3350   61.3820   39.1480 C.3   445  COA445      0.2543
     13  O2B       57.3280   61.4040   40.1820 O.3   445  COA445     -0.2131
     14  C3B       56.8920   60.8660   37.8280 C.3   445  COA445      0.1928
     15  O3B       58.2810   61.1970   37.7170 O.3   445  COA445     -0.2673
     16  P3B       59.3410   60.3890   36.8060 P.3   445  COA445      0.5327
     17  O7A       60.5740   61.2440   36.7750 O.3   445  COA445     -0.1145
     18  O8A       58.6490   60.2230   35.4730 O.2   445  COA445     -0.2224
     19  O9A       59.5470   59.0920   37.5440 O.3   445  COA445     -0.1145
     20  C4B       56.1370   61.6640   36.7720 C.3   445  COA445      0.1795
     21  O4B       55.5890   62.8100   37.4170 O.3   445  COA445     -0.3136
     22  C5B       55.0110   60.8820   36.1110 C.3   445  COA445      0.1812
     23  O5B       54.4290   61.7770   35.1740 O.3   445  COA445     -0.3112
     24  P1A       53.2220   61.3810   34.1830 P.3   445  COA445      0.2189
     25  O1A       51.8980   61.6080   34.8580 O.3   445  COA445     -0.4371
     26  O2A       53.5310   62.0580   32.8580 O.2   445  COA445     -0.5170
     27  O3A       53.3490   59.7910   33.9930 O.3   445  COA445     -0.2703
     28  P2A       54.3250   59.1220   32.8940 P.3   445  COA445      0.2188
     29  O4A       54.5090   57.6890   33.3680 O.3   445  COA445     -0.4371
     30  O5A       55.5490   59.9650   32.6770 O.2   445  COA445     -0.5170
     31  O6A       53.4120   59.1620   31.5550 O.3   445  COA445     -0.3138
     32  CBP       51.5420   58.2890   30.1620 C.3   445  COA445      0.0645
     33  CCP       52.1340   58.5200   31.5560 C.3   445  COA445      0.1519
     34  CDP       50.0230   58.3740   30.3160 C.3   445  COA445      0.0056
     35  CEP       52.0030   59.3880   29.2010 C.3   445  COA445      0.0056
     36  CAP       51.9770   56.8970   29.6630 C.3   445  COA445      0.2312
     37  OAP       51.8510   55.9380   30.7210 O.3   445  COA445     -0.2131
     38  C9P       51.1600   56.4240   28.4880 C.2   445  COA445      0.2719
     39  O9P       51.2480   56.9940   27.4140 O.2   445  COA445     -0.2706
     40  N8P       50.3470   55.3870   28.6790 N.am  445  COA445     -0.2028
     41  C7P       49.4640   54.7640   27.7110 C.3   445  COA445      0.1248
     42  C6P       48.4290   54.0320   28.5450 C.3   445  COA445      0.1102
     43  C5P       49.0550   52.7690   29.0890 C.2   445  COA445      0.2432
     44  O5P       49.7810   52.8390   30.0700 O.2   445  COA445     -0.2733
     45  N4P       48.7720   51.6240   28.4650 N.am  445  COA445     -0.2044
     46  C3P       49.2630   50.2940   28.8120 C.3   445  COA445      0.1276
     47  C2P       48.1320   49.6040   29.5600 C.3   445  COA445      0.0920
     48  S1P       48.5050   47.8410   29.6800 S.3   445  COA445     -0.0802
@<TRIPOS>BOND
     1    39    38    2
     2    41    42    1
     3    41    40    1
     4    45    46    1
     5    45    43   am
     6    38    40   am
     7    38    36    1
     8    42    43    1
     9    46    47    1
    10    43    44    2
    11    35    32    1
    12    47    48    1
    13    36    32    1
    14    36    37    1
    15    32    34    1
    16    32    33    1
    17    31    33    1
    18    31    28    1
    19    30    28    2
    20    26    24    2
    21    28    29    1
    22    28    27    1
    23    27    24    1
    24    24    25    1
    25    24    23    1
    26    23    22    1
    27    18    16    2
    28    22    20    1
    29    20    21    1
    30    20    14    1
    31    17    16    1
    32    16    19    1
    33    16    15    1
    34    21    11    1
    35    15    14    1
    36    14    12    1
    37    11    12    1
    38    11    10    1
    39    12    13    1
    40     9    10    1
    41     9     8    1
    42    10     4    1
    43     8     5    2
    44     4     5    1
    45     4     3    2
    46     5     6    1
    47     3     2    1
    48     6     7    1
    49     6     1    2
    50     2     1    1
