@<TRIPOS>MOLECULE
3cgd_NAD_A_1.pdb
 44 48 0 0 0
SMALL
GASTEIGER

@<TRIPOS>ATOM
      1  PA        48.5460   34.6420   23.4650 P.3   818  NAD818      0.2189
      2  O1A       48.2710   35.0830   24.8490 O.3   818  NAD818     -0.4371
      3  O2A       49.9170   34.1400   23.2560 O.2   818  NAD818     -0.5170
      4  O5B       47.5350   33.4830   23.0280 O.3   818  NAD818     -0.3112
      5  C5B       47.6930   32.9010   21.7600 C.3   818  NAD818      0.1813
      6  C4B       47.0440   31.5400   21.7960 C.3   818  NAD818      0.1821
      7  O4B       46.6450   31.1940   20.4890 O.3   818  NAD818     -0.3135
      8  C3B       48.0050   30.4660   22.2750 C.3   818  NAD818      0.2184
      9  O3B       47.3160   29.6360   23.1840 O.3   818  NAD818     -0.2174
     10  C2B       48.3200   29.6890   21.0190 C.3   818  NAD818      0.2570
     11  O2B       48.5790   28.3380   21.2990 O.3   818  NAD818     -0.2130
     12  C1B       47.0200   29.8570   20.2570 C.3   818  NAD818      0.3186
     13  N9A       47.1030   29.6550   18.8090 N.pl3 818  NAD818     -0.1439
     14  C8A       48.1110   30.0410   17.9650 C.3   818  NAD818      0.3377
     15  N7A       47.7640   29.6750   16.7140 N.2   818  NAD818     -0.2095
     16  C5A       46.5490   29.0770   16.7490 C.2   818  NAD818      0.2526
     17  C6A       45.7390   28.5250   15.7560 C.2   818  NAD818      0.4393
     18  N6A       46.1530   28.5290   14.4900 N.pl3 818  NAD818      0.2180
     19  N1A       44.5160   27.9700   16.0970 N.2   818  NAD818      0.0021
     20  C2A       44.1080   27.9650   17.4200 C.3   818  NAD818      0.5254
     21  N3A       44.9180   28.5200   18.4030 N.2   818  NAD818     -0.0055
     22  C4A       46.1180   29.0660   18.0670 C.2   818  NAD818      0.3518
     23  O3        48.1890   35.8130   22.4140 O.3   818  NAD818     -0.2703
     24  PN        46.8970   36.7710   22.4770 P.3   818  NAD818      0.2189
     25  O1N       46.5670   37.1890   21.0850 O.2   818  NAD818     -0.5170
     26  O2N       45.8460   36.1800   23.3420 O.3   818  NAD818     -0.4371
     27  O5D       47.4590   38.0740   23.2130 O.3   818  NAD818     -0.3112
     28  C5D       48.6950   38.5410   22.7520 C.3   818  NAD818      0.1813
     29  C4D       49.2540   39.5620   23.7110 C.3   818  NAD818      0.1799
     30  O4D       48.2260   40.3610   24.2430 O.3   818  NAD818     -0.3327
     31  C3D       49.9210   38.9180   24.9100 C.3   818  NAD818      0.2158
     32  O3D       51.2330   38.4860   24.6020 O.3   818  NAD818     -0.2175
     33  C2D       49.8950   40.0770   25.8720 C.3   818  NAD818      0.2309
     34  O2D       50.9190   40.9800   25.5420 O.3   818  NAD818     -0.2158
     35  C1D       48.5920   40.7850   25.5500 C.3   818  NAD818      0.2263
     36  N1N       47.5330   40.5410   26.5680 N.pl3 818  NAD818     -0.2787
     37  C2N       47.8510   40.4190   27.9020 C.3   818  NAD818      0.1244
     38  C3N       46.8520   40.2100   28.8580 C.2   818  NAD818      0.0544
     39  C7N       47.2070   40.0820   30.3180 C.2   818  NAD818      0.2818
     40  O7N       48.3770   39.7820   30.6480 O.2   818  NAD818     -0.2670
     41  N7N       46.1620   40.3400   31.3310 N.am  818  NAD818     -0.0839
     42  C4N       45.5140   40.1310   28.4550 C.2   818  NAD818      0.0033
     43  C5N       45.1950   40.2600   27.1020 C.2   818  NAD818      0.0157
     44  C6N       46.2170   40.4670   26.1740 C.2   818  NAD818      0.0633
@<TRIPOS>BOND
     1    18    17    1
     2    17    19    2
     3    17    16    1
     4    19    20    1
     5    15    16    2
     6    15    14    1
     7    16    22    1
     8    20    21    1
     9    14    13    1
    10    22    21    2
    11    22    13    1
    12    13    12    1
    13    12     7    1
    14    12    10    1
    15     7     6    1
    16    10    11    1
    17    10     8    1
    18    25    24    2
    19     5     6    1
    20     5     4    1
    21     6     8    1
    22     8     9    1
    23    23    24    1
    24    23     1    1
    25    24    27    1
    26    24    26    1
    27    28    27    1
    28    28    29    1
    29     4     1    1
    30     3     1    2
    31     1     2    1
    32    29    30    1
    33    29    31    1
    34    30    35    1
    35    32    31    1
    36    31    33    1
    37    34    33    1
    38    35    33    1
    39    35    36    1
    40    44    36    1
    41    44    43    2
    42    36    37    1
    43    43    42    1
    44    37    38    1
    45    42    38    2
    46    38    39    1
    47    39    40    2
    48    39    41   am
