@<TRIPOS>MOLECULE
3cge_COA_A_1.pdb
 48 50 0 0 0
SMALL
GASTEIGER

@<TRIPOS>ATOM
      1  N1A       53.4950   65.5220   43.0880 N.2   445  COA445      0.0021
      2  C2A       54.7850   65.4120   42.7190 C.3   445  COA445      0.5254
      3  N3A       55.1360   64.7350   41.6080 N.2   445  COA445     -0.0055
      4  C4A       54.1870   64.1470   40.8300 C.2   445  COA445      0.3518
      5  C5A       52.8500   64.2450   41.1930 C.2   445  COA445      0.2526
      6  C6A       52.5120   64.9540   42.3470 C.2   445  COA445      0.4393
      7  N6A       51.2150   65.0750   42.7310 N.pl3 445  COA445      0.2180
      8  N7A       52.1300   63.5760   40.2630 N.2   445  COA445     -0.2095
      9  C8A       52.9990   63.0750   39.3520 C.3   445  COA445      0.3377
     10  N9A       54.2510   63.4230   39.7030 N.pl3 445  COA445     -0.1439
     11  C1B       55.4990   63.0760   38.9710 C.3   445  COA445      0.3185
     12  C2B       55.9280   61.6300   39.2260 C.3   445  COA445      0.2543
     13  O2B       56.9040   61.5700   40.2670 O.3   445  COA445     -0.2131
     14  C3B       56.5080   61.1710   37.9010 C.3   445  COA445      0.1928
     15  O3B       57.9100   61.4570   37.8540 O.3   445  COA445     -0.2673
     16  P3B       58.9940   60.6830   36.9380 P.3   445  COA445      0.5327
     17  O7A       60.1930   61.5890   36.9780 O.3   445  COA445     -0.1145
     18  O8A       58.3760   60.5310   35.5720 O.2   445  COA445     -0.2224
     19  O9A       59.2220   59.3650   37.6400 O.3   445  COA445     -0.1145
     20  C4B       55.7950   62.0430   36.8750 C.3   445  COA445      0.1795
     21  O4B       55.2980   63.2010   37.5580 O.3   445  COA445     -0.3136
     22  C5B       54.6420   61.2940   36.2180 C.3   445  COA445      0.1812
     23  O5B       54.2360   62.0500   35.0850 O.3   445  COA445     -0.3112
     24  P1A       52.9450   61.6490   34.2110 P.3   445  COA445      0.2189
     25  O1A       51.7120   61.9020   35.0410 O.3   445  COA445     -0.4371
     26  O2A       53.1280   62.2860   32.8500 O.2   445  COA445     -0.5170
     27  O3A       53.0280   60.0490   34.0290 O.3   445  COA445     -0.2703
     28  P2A       53.9800   59.2990   32.9600 P.3   445  COA445      0.2188
     29  O4A       54.1050   57.8700   33.4640 O.3   445  COA445     -0.4371
     30  O5A       55.2320   60.1040   32.7290 O.2   445  COA445     -0.5170
     31  O6A       53.1060   59.2940   31.5950 O.3   445  COA445     -0.3138
     32  CBP       51.1830   58.5300   30.2100 C.3   445  COA445      0.0645
     33  CCP       51.7460   58.8450   31.6030 C.3   445  COA445      0.1519
     34  CDP       49.6650   58.5500   30.3550 C.3   445  COA445      0.0056
     35  CEP       51.5920   59.6390   29.2430 C.3   445  COA445      0.0056
     36  CAP       51.6840   57.1540   29.7140 C.3   445  COA445      0.2312
     37  OAP       51.6640   56.1850   30.7770 O.3   445  COA445     -0.2131
     38  C9P       50.8910   56.6210   28.5390 C.2   445  COA445      0.2719
     39  O9P       50.9750   57.1500   27.4420 O.2   445  COA445     -0.2706
     40  N8P       50.1060   55.5620   28.7460 N.am  445  COA445     -0.2028
     41  C7P       49.2600   54.8870   27.7710 C.3   445  COA445      0.1248
     42  C6P       48.2110   54.1470   28.5890 C.3   445  COA445      0.1102
     43  C5P       48.8110   52.8910   29.1740 C.2   445  COA445      0.2432
     44  O5P       49.4700   52.9500   30.1990 O.2   445  COA445     -0.2733
     45  N4P       48.5700   51.7580   28.5180 N.am  445  COA445     -0.2044
     46  C3P       49.0210   50.4150   28.8600 C.3   445  COA445      0.1276
     47  C2P       47.8730   49.8100   29.6580 C.3   445  COA445      0.0920
     48  S1P       48.0610   48.0110   29.6850 S.3   445  COA445     -0.0802
@<TRIPOS>BOND
     1    39    38    2
     2    41    42    1
     3    41    40    1
     4    45    46    1
     5    45    43   am
     6    38    40   am
     7    38    36    1
     8    42    43    1
     9    46    47    1
    10    43    44    2
    11    35    32    1
    12    47    48    1
    13    36    32    1
    14    36    37    1
    15    32    34    1
    16    32    33    1
    17    31    33    1
    18    31    28    1
    19    30    28    2
    20    26    24    2
    21    28    29    1
    22    28    27    1
    23    27    24    1
    24    24    25    1
    25    24    23    1
    26    23    22    1
    27    18    16    2
    28    22    20    1
    29    20    21    1
    30    20    14    1
    31    16    17    1
    32    16    19    1
    33    16    15    1
    34    21    11    1
    35    15    14    1
    36    14    12    1
    37    11    12    1
    38    11    10    1
    39    12    13    1
    40     9    10    1
    41     9     8    1
    42    10     4    1
    43     8     5    2
    44     4     5    1
    45     4     3    2
    46     5     6    1
    47     3     2    1
    48     6     7    1
    49     6     1    2
    50     2     1    1
