@<TRIPOS>MOLECULE
3cge_NDP_A_1.pdb
 48 52 0 0 0
SMALL
GASTEIGER

@<TRIPOS>ATOM
      1  PA        48.5880   34.7750   23.2600 P.3   803  NDP803      0.2189
      2  O1A       48.4850   35.1870   24.6790 O.3   803  NDP803     -0.4371
      3  O2A       49.9340   34.3210   22.8560 O.2   803  NDP803     -0.5170
      4  O5B       47.5140   33.6070   22.9840 O.3   803  NDP803     -0.3112
      5  C5B       47.3890   33.0510   21.6990 C.3   803  NDP803      0.1813
      6  C4B       47.0380   31.5820   21.8200 C.3   803  NDP803      0.1820
      7  O4B       46.4930   31.1390   20.5890 O.3   803  NDP803     -0.3136
      8  C3B       48.2740   30.7400   22.1010 C.3   803  NDP803      0.2157
      9  O3B       47.9470   29.7240   23.0200 O.3   803  NDP803     -0.2175
     10  C2B       48.5780   30.1390   20.7490 C.3   803  NDP803      0.2314
     11  O2B       49.2760   28.9220   20.8270 O.3   803  NDP803     -0.2630
     12  C1B       47.1800   29.9730   20.1880 C.3   803  NDP803      0.3158
     13  N9A       47.1330   29.7940   18.7300 N.pl3 803  NDP803     -0.1439
     14  C8A       48.0400   30.2110   17.7930 C.3   803  NDP803      0.3377
     15  N7A       47.5920   29.8250   16.5810 N.2   803  NDP803     -0.2095
     16  C5A       46.4200   29.1670   16.7290 C.2   803  NDP803      0.2526
     17  C6A       45.5480   28.5640   15.8220 C.2   803  NDP803      0.4393
     18  N6A       45.8200   28.5750   14.5170 N.pl3 803  NDP803      0.2180
     19  N1A       44.3940   27.9540   16.2890 N.2   803  NDP803      0.0021
     20  C2A       44.1130   27.9410   17.6440 C.3   803  NDP803      0.5254
     21  N3A       44.9860   28.5360   18.5380 N.2   803  NDP803     -0.0055
     22  C4A       46.1200   29.1380   18.0830 C.2   803  NDP803      0.3518
     23  O3        48.1270   35.9740   22.2950 O.3   803  NDP803     -0.2703
     24  PN        46.8050   36.8510   22.5540 P.3   803  NDP803      0.2189
     25  O1N       45.8800   36.1210   23.4510 O.3   803  NDP803     -0.4371
     26  O2N       46.3540   37.2960   21.2150 O.2   803  NDP803     -0.5170
     27  O5D       47.3660   38.1160   23.3850 O.3   803  NDP803     -0.3112
     28  C5D       48.4510   38.8490   22.8670 C.3   803  NDP803      0.1813
     29  C4D       48.9890   39.8550   23.8770 C.3   803  NDP803      0.1799
     30  O4D       47.9560   40.6590   24.4080 O.3   803  NDP803     -0.3327
     31  C3D       49.6570   39.2310   25.0890 C.3   803  NDP803      0.2158
     32  O3D       50.9880   38.8600   24.8190 O.3   803  NDP803     -0.2175
     33  C2D       49.5850   40.3670   26.0790 C.3   803  NDP803      0.2309
     34  O2D       50.6090   41.2980   25.8370 O.3   803  NDP803     -0.2158
     35  C1D       48.2950   41.0730   25.7230 C.3   803  NDP803      0.2263
     36  N1N       47.2280   40.8060   26.7160 N.pl3 803  NDP803     -0.2787
     37  C2N       47.5300   40.6710   28.0550 C.3   803  NDP803      0.1244
     38  C3N       46.5500   40.4390   29.0230 C.2   803  NDP803      0.0544
     39  C7N       46.9380   40.3000   30.4740 C.2   803  NDP803      0.2818
     40  O7N       48.2920   40.1360   30.8180 O.2   803  NDP803     -0.2670
     41  N7N       45.9960   40.3430   31.4190 N.am  803  NDP803     -0.0839
     42  C4N       45.0870   40.3330   28.6370 C.2   803  NDP803      0.0033
     43  C5N       44.8760   40.4980   27.1600 C.2   803  NDP803      0.0157
     44  C6N       45.9320   40.7250   26.2830 C.2   803  NDP803      0.0633
     45  P2B       50.7870   28.8300   20.2670 P.3   803  NDP803      0.5328
     46  O1X       50.9860   29.8700   19.1950 O.2   803  NDP803     -0.2224
     47  O2X       51.7470   29.0320   21.4130 O.3   803  NDP803     -0.1145
     48  O3X       51.0250   27.4770   19.6390 O.3   803  NDP803     -0.1145
@<TRIPOS>BOND
     1    18    17    1
     2    17    19    2
     3    17    16    1
     4    19    20    1
     5    15    16    2
     6    15    14    1
     7    16    22    1
     8    20    21    1
     9    14    13    1
    10    22    21    2
    11    22    13    1
    12    13    12    1
    13    46    45    2
    14    48    45    1
    15    12     7    1
    16    12    10    1
    17    45    11    1
    18    45    47    1
    19     7     6    1
    20    10    11    1
    21    10     8    1
    22    26    24    2
    23     5     6    1
    24     5     4    1
    25     6     8    1
    26     8     9    1
    27    23    24    1
    28    23     1    1
    29    24    27    1
    30    24    25    1
    31     3     1    2
    32    28    27    1
    33    28    29    1
    34     4     1    1
    35     1     2    1
    36    29    30    1
    37    29    31    1
    38    30    35    1
    39    32    31    1
    40    31    33    1
    41    35    33    1
    42    35    36    1
    43    34    33    1
    44    44    36    1
    45    44    43    2
    46    36    37    1
    47    43    42    1
    48    37    38    1
    49    42    38    2
    50    38    39    1
    51    39    40    2
    52    39    41   am
