@<TRIPOS>MOLECULE
3cgf_JNF_A_1.pdb
 23 26 0 0 0
SMALL
GASTEIGER

@<TRIPOS>ATOM
      1  C01       23.3980   14.4120   31.4350 C.3   523  JNF523      0.1243
      2  N02       23.4600   12.9400   31.4580 N.pl3 523  JNF523     -0.2435
      3  C03       22.2030   12.3420   31.9200 C.1   523  JNF523      0.1480
      4  N04       22.0200   10.9450   31.9390 N.2   523  JNF523     -0.3359
      5  C05       20.8100   10.4410   32.4230 C.2   523  JNF523      0.1632
      6  C06       20.6370    8.9730   32.4020 C.ar  523  JNF523      0.1152
      7  N07       21.5540    8.0260   31.9580 N.ar  523  JNF523     -0.2866
      8  C08       20.9470    6.7500   32.1400 C.ar  523  JNF523      0.1479
      9  C09       21.7120    5.5940   31.7420 C.ar  523  JNF523      0.0374
     10  C10       22.9680    5.7590   31.2180 C.ar  523  JNF523      0.0046
     11  C11       23.5680    7.0920   31.0400 C.ar  523  JNF523      0.0191
     12  C12       22.8540    8.1820   31.4130 C.ar  523  JNF523      0.0815
     13  N13       19.7500    6.8430   32.6510 N.ar  523  JNF523     -0.2248
     14  C14       19.5460    8.1980   32.8210 C.ar  523  JNF523      0.1206
     15  C15       19.7790   11.2500   32.8930 C.2   523  JNF523      0.0561
     16  C16       20.0370   12.6230   32.8490 C.2   523  JNF523      0.1144
     17  N17       21.2060   13.1870   32.3760 N.2   523  JNF523     -0.1698
     18  C18       24.0810   12.3550   30.2260 C.3   523  JNF523      0.0835
     19  C19       23.1530   12.1860   28.9940 C.3   523  JNF523      0.0205
     20  C20       23.9100   11.5850   27.7900 C.3   523  JNF523      0.0017
     21  C21       24.5210   10.2090   28.1200 C.3   523  JNF523      0.0001
     22  C22       25.4190   10.2600   29.3640 C.3   523  JNF523      0.0017
     23  C23       24.7430   10.9790   30.5650 C.3   523  JNF523      0.0205
@<TRIPOS>BOND
     1    20    21    1
     2    20    19    1
     3    21    22    1
     4    19    18    1
     5    22    23    1
     6    18    23    1
     7    18     2    1
     8    11    10   ar
     9    11    12   ar
    10    10     9   ar
    11    12     7   ar
    12     1     2    1
    13     2     3    1
    14     9     8   ar
    15     3     4    2
    16     3    17    2
    17     4     5    2
    18     7     8   ar
    19     7     6   ar
    20     8    13   ar
    21    17    16    1
    22     6     5    1
    23     6    14   ar
    24     5    15    1
    25    13    14   ar
    26    16    15    2
