@<TRIPOS>MOLECULE
3cgo_JNO_A_1.pdb
 27 30 0 0 0
SMALL
GASTEIGER

@<TRIPOS>ATOM
      1  C01       26.8050    2.4860   28.4980 C.3   510  JNO510      0.1385
      2  N02       26.3680    3.8360   28.2460 N.am  510  JNO510     -0.2024
      3  C03       27.2640    4.9060   28.2510 C.2   510  JNO510      0.2578
      4  O04       28.4160    4.8490   27.8170 O.2   510  JNO510     -0.2718
      5  C05       26.6880    6.1780   28.8490 C.3   510  JNO510      0.1602
      6  N06       25.4020    5.9070   29.5080 N.3   510  JNO510     -0.2649
      7  C07       24.4600    7.0470   29.3380 C.3   510  JNO510      0.0743
      8  C08       23.1240    6.7750   30.0410 C.3   510  JNO510      0.0398
      9  C09       23.3850    6.4960   31.5390 C.3   510  JNO510      0.1074
     10  C10       24.3180    5.2860   31.6750 C.3   510  JNO510      0.0398
     11  C11       25.6410    5.5730   30.9500 C.3   510  JNO510      0.0743
     12  N12       22.1230    6.2460   32.2130 N.pl3 510  JNO510     -0.1638
     13  C13       21.2250    7.2460   32.5710 C.1   510  JNO510      0.1652
     14  N14       21.6350    8.5360   32.4200 N.2   510  JNO510     -0.3348
     15  C15       20.7520    9.5410   32.7690 C.2   510  JNO510      0.1632
     16  C16       19.4600    9.2760   33.2630 C.2   510  JNO510      0.0561
     17  C17       19.1470    7.9360   33.3730 C.2   510  JNO510      0.1145
     18  N18       19.9930    6.9200   33.0360 N.2   510  JNO510     -0.1686
     19  C19       21.2270   10.9320   32.5670 C.ar  510  JNO510      0.1152
     20  N20       22.4530   11.3450   32.0500 N.ar  510  JNO510     -0.2866
     21  C21       23.5780   10.6090   31.5750 C.ar  510  JNO510      0.0815
     22  C22       24.6710   11.2680   31.1050 C.ar  510  JNO510      0.0191
     23  C23       24.6650   12.7340   31.1030 C.ar  510  JNO510      0.0046
     24  C24       23.5940   13.4550   31.5570 C.ar  510  JNO510      0.0374
     25  C25       22.4320   12.7670   32.0570 C.ar  510  JNO510      0.1479
     26  N26       21.3170   13.2350   32.5320 N.ar  510  JNO510     -0.2248
     27  C27       20.5760   12.1270   32.8450 C.ar  510  JNO510      0.1206
@<TRIPOS>BOND
     1     4     3    2
     2     2     3   am
     3     2     1    1
     4     3     5    1
     5     5     6    1
     6     7     6    1
     7     7     8    1
     8     6    11    1
     9     8     9    1
    10    11    10    1
    11    23    22   ar
    12    23    24   ar
    13    22    21   ar
    14     9    10    1
    15     9    12    1
    16    24    25   ar
    17    21    20   ar
    18    20    25   ar
    19    20    19   ar
    20    25    26   ar
    21    12    13    1
    22    14    13    2
    23    14    15    2
    24    26    27   ar
    25    19    15    1
    26    19    27   ar
    27    13    18    2
    28    15    16    1
    29    18    17    1
    30    16    17    2
