@<TRIPOS>MOLECULE
3cgy_RDC_A_1.pdb
 25 27 0 0 0
SMALL
GASTEIGER

@<TRIPOS>ATOM
      1  C1        61.5240    6.3360   21.5630 C.2   700  RDC700      0.3440
      2  C2        62.8820    6.9090   21.1560 C.ar  700  RDC700      0.1119
      3  C3        63.4600    6.5500   19.8740 C.ar  700  RDC700      0.2048
      4  C4        64.6940    7.0720   19.5010 C.ar  700  RDC700      0.0851
      5  C5        65.4060    7.9550   20.3150 C.ar  700  RDC700      0.2090
      6  C6        64.8940    8.3490   21.5910 C.ar  700  RDC700      0.0933
      7  C7        63.6360    7.8490   22.0260 C.ar  700  RDC700      0.0086
      8  C8        63.0800    8.2780   23.4190 C.3   700  RDC700      0.0966
      9  C9        63.7520    7.6610   24.6050 C.2   700  RDC700      0.1775
     10  C10       63.5800    6.2480   25.0280 C.2   700  RDC700      0.0378
     11  C11       62.8090    5.2460   24.4130 C.2   700  RDC700      0.0027
     12  C12       62.8020    3.9160   25.0880 C.2   700  RDC700     -0.0020
     13  C13       62.1820    2.7230   24.7390 C.2   700  RDC700      0.0053
     14  C14       61.2860    2.1830   23.5620 C.3   700  RDC700      0.1643
     15  C15       59.9760    2.9070   23.0280 C.3   700  RDC700      0.1504
     16  C16       60.1880    3.3350   21.5530 C.3   700  RDC700      0.0760
     17  C17       59.5630    4.7220   21.0980 C.3   700  RDC700      0.1718
     18  C18       58.7080    5.4320   22.1880 C.3   700  RDC700      0.0474
     19  O1        60.8340    5.4340   20.7530 O.3   700  RDC700     -0.4491
     20  O2        61.0580    6.6580   22.6850 O.2   700  RDC700     -0.2448
     21  O3        62.8520    5.6980   19.0480 O.3   700  RDC700     -0.2862
     22  O4        66.5830    8.4170   19.8710 O.3   700  RDC700     -0.2856
     23 CL1        65.8360    9.4680   22.5760 Cl    700  RDC700     -0.0792
     24  O5        64.5000    8.4110   25.2950 O.2   700  RDC700     -0.2910
     25  O6        60.0430    1.5590   23.5940 O.3   700  RDC700     -0.3489
@<TRIPOS>BOND
     1    21     3    1
     2     4     3   ar
     3     4     5   ar
     4    22     5    1
     5     3     2   ar
     6     5     6   ar
     7    19    17    1
     8    19     1    1
     9    17    16    1
    10    17    18    1
    11     2     1    1
    12     2     7   ar
    13    16    15    1
    14     1    20    2
    15     6     7   ar
    16     6    23    1
    17     7     8    1
    18    15    14    1
    19    15    25    1
    20     8     9    1
    21    14    25    1
    22    14    13    1
    23    11    10    2
    24    11    12    1
    25     9    10    1
    26     9    24    2
    27    13    12    2
