@<TRIPOS>MOLECULE
3ch5_GDP_A_1.pdb
 28 30 0 0 0
SMALL
GASTEIGER

@<TRIPOS>ATOM
      1  PB        21.2350   -9.3080  -43.6550 P.3   220  GDP220      0.5373
      2  O1B       20.2370   -8.5480  -42.7810 O.3   220  GDP220     -0.1143
      3  O2B       22.5660   -9.3660  -42.9340 O.3   220  GDP220     -0.1143
      4  O3B       20.8120  -10.7190  -43.9460 O.2   220  GDP220     -0.2221
      5  O3A       21.4430   -8.5570  -45.0630 O.3   220  GDP220     -0.2261
      6  PA        21.3400   -6.9510  -45.2360 P.3   220  GDP220      0.2231
      7  O1A       19.8900   -6.6270  -45.4280 O.2   220  GDP220     -0.5169
      8  O2A       21.9600   -6.1410  -44.1640 O.3   220  GDP220     -0.4370
      9  O5'       22.0640   -6.7490  -46.6570 O.3   220  GDP220     -0.3111
     10  C5'       23.3450   -7.3030  -46.9740 C.3   220  GDP220      0.1813
     11  C4'       23.8600   -6.6380  -48.2560 C.3   220  GDP220      0.1799
     12  O4'       23.1440   -7.1430  -49.3920 O.3   220  GDP220     -0.3326
     13  C3'       23.6130   -5.1480  -48.2540 C.3   220  GDP220      0.2158
     14  O3'       24.7510   -4.5310  -48.8400 O.3   220  GDP220     -0.2175
     15  C2'       22.4370   -4.9310  -49.1770 C.3   220  GDP220      0.2310
     16  O2'       22.5500   -3.6900  -49.8620 O.3   220  GDP220     -0.2158
     17  C1'       22.5680   -6.0700  -50.1380 C.3   220  GDP220      0.2293
     18  N9        21.2810   -6.5560  -50.6750 N.pl3 220  GDP220     -0.2354
     19  C8        20.2170   -6.9420  -49.9600 C.3   220  GDP220      0.2246
     20  N7        19.2460   -7.3760  -50.7610 N.2   220  GDP220     -0.2322
     21  C5        19.6770   -7.2610  -52.0180 C.2   220  GDP220      0.2182
     22  C6        19.1050   -7.5270  -53.3460 C.1   220  GDP220      0.2372
     23  O6        17.9490   -7.9740  -53.4480 O.2   220  GDP220     -0.2069
     24  N1        19.8810   -7.2910  -54.4200 N.2   220  GDP220     -0.2485
     25  C2        21.1350   -6.7950  -54.3250 C.1   220  GDP220      0.2531
     26  N2        21.8200   -6.5880  -55.4700 N.pl3 220  GDP220     -0.0226
     27  N3        21.7260   -6.5040  -53.1290 N.2   220  GDP220     -0.3074
     28  C4        21.0350   -6.7280  -51.9700 C.2   220  GDP220      0.2300
@<TRIPOS>BOND
     1    26    25    1
     2    24    25    2
     3    24    22    2
     4    25    27    2
     5    23    22    2
     6    22    21    1
     7    27    28    2
     8    21    28    1
     9    21    20    2
    10    28    18    1
    11    20    19    1
    12    18    17    1
    13    18    19    1
    14    17    12    1
    15    17    15    1
    16    16    15    1
    17    12    11    1
    18    15    13    1
    19    14    13    1
    20    11    13    1
    21    11    10    1
    22    10     9    1
    23     9     6    1
    24     7     6    2
    25     6     5    1
    26     6     8    1
    27     5     1    1
    28     4     1    2
    29     1     3    1
    30     1     2    1
