@<TRIPOS>MOLECULE
3ch6_311_A_1.pdb
 24 26 0 0 0
SMALL
GASTEIGER

@<TRIPOS>ATOM
      1  C13       46.8150   60.4970   80.3900 C.3   601  311601      0.0937
      2  C18       39.9330   63.0640   80.8020 C.ar  601  311601      0.1362
      3  C17       44.6350   61.7260   83.3290 C.2   601  311601      0.1665
      4  C16       42.6210   63.0070   83.4000 C.2   601  311601      0.1309
      5  C15       41.4260   63.5060   82.5830 C.ar  601  311601      0.0318
      6  C19       45.4460   60.8340   82.4500 C.2   601  311601      0.2749
      7  C20       46.1840   60.6300   78.9660 C.3   601  311601      0.0184
      8  C11       46.2070   62.1150   78.5570 C.3   601  311601      0.0034
      9  C12       45.9680   62.8030   80.9200 C.3   601  311601      0.0938
     10  C1        37.9810   64.3130   79.9490 C.3   601  311601      0.0334
     11  C2        44.6910   60.1840   78.9980 C.3   601  311601      0.0017
     12  C3        46.8950   59.7210   77.9120 C.3   601  311601      0.0017
     13  C4        44.0090   62.7360   85.3940 C.2   601  311601     -0.0159
     14  C5        42.8900   63.2770   84.7350 C.2   601  311601      0.0279
     15  C6        44.9220   61.9070   84.6760 C.3   601  311601      0.0898
     16  C7        39.4890   65.0960   81.9480 C.ar  601  311601     -0.0020
     17  C8        40.6310   64.7100   82.7580 C.ar  601  311601      0.0024
     18  C9        41.0000   62.7010   81.5530 C.ar  601  311601      0.0318
     19  C10       45.3450   62.8980   79.5210 C.3   601  311601      0.0216
     20  C14       39.1640   64.1840   80.9220 C.ar  601  311601      0.0056
     21  N21       43.4800   62.2260   82.7010 N.2   601  311601     -0.4013
     22  N22       46.0180   61.3420   81.3270 N.am  601  311601     -0.2743
     23  O23       45.5540   59.6350   82.8520 O.2   601  311601     -0.2675
     24  F24       39.6040   62.2290   79.8790 F     601  311601     -0.2045
@<TRIPOS>BOND
     1    12     7    1
     2     8     7    1
     3     8    19    1
     4     7    11    1
     5     7     1    1
     6    19     9    1
     7    24     2    1
     8    10    20    1
     9     1    22    1
    10     2    20   ar
    11     2    18   ar
    12     9    22    1
    13    20    16   ar
    14    22     6   am
    15    18     5   ar
    16    16    17   ar
    17     6    23    2
    18     6     3    1
    19     5    17   ar
    20     5     4    1
    21    21     3    2
    22    21     4    2
    23     3    15    1
    24     4    14    1
    25    15    13    1
    26    14    13    2
