@<TRIPOS>MOLECULE
3ch6_NAP_A_1.pdb
 48 52 0 0 0
SMALL
GASTEIGER

@<TRIPOS>ATOM
      1  PA        54.4620   60.4540   77.2170 P.3   501  NAP501      0.2189
      2  O1A       55.1940   61.7360   77.5770 O.3   501  NAP501     -0.4371
      3  O2A       53.4420   60.4480   76.1010 O.2   501  NAP501     -0.5170
      4  O5B       55.5530   59.2930   76.9080 O.3   501  NAP501     -0.3112
      5  C5B       55.0740   57.9550   76.7280 C.3   501  NAP501      0.1813
      6  C4B       56.2770   57.0240   76.6240 C.3   501  NAP501      0.1820
      7  O4B       55.8640   55.6770   76.2400 O.3   501  NAP501     -0.3136
      8  C3B       57.2610   57.5460   75.5670 C.3   501  NAP501      0.2157
      9  O3B       58.6020   57.2830   76.0380 O.3   501  NAP501     -0.2175
     10  C2B       56.9670   56.6610   74.3430 C.3   501  NAP501      0.2314
     11  O2B       58.1760   56.6300   73.5810 O.3   501  NAP501     -0.2630
     12  C1B       56.6090   55.3090   75.0340 C.3   501  NAP501      0.3158
     13  N9A       55.8290   54.4380   74.1800 N.pl3 501  NAP501     -0.1439
     14  C8A       54.7120   54.7870   73.4170 C.3   501  NAP501      0.3377
     15  N7A       54.2340   53.7810   72.6830 N.2   501  NAP501     -0.2095
     16  C5A       55.0920   52.7020   72.9950 C.2   501  NAP501      0.2526
     17  C6A       55.1510   51.3510   72.5710 C.2   501  NAP501      0.4393
     18  N6A       54.2930   50.7640   71.6660 N.pl3 501  NAP501      0.2180
     19  N1A       56.1360   50.5630   73.0490 N.2   501  NAP501      0.0021
     20  C2A       57.0120   51.0630   73.9500 C.3   501  NAP501      0.5254
     21  N3A       57.0690   52.3200   74.4370 N.2   501  NAP501     -0.0055
     22  C4A       56.0800   53.1040   73.9200 C.2   501  NAP501      0.3518
     23  O3        53.8050   59.8830   78.5690 O.3   501  NAP501     -0.2703
     24  PN        53.5900   60.5610   79.9990 P.3   501  NAP501      0.2189
     25  O1N       54.9100   60.8640   80.6540 O.3   501  NAP501     -0.4371
     26  O2N       52.4700   61.5880   79.9220 O.2   501  NAP501     -0.5170
     27  O5D       52.9530   59.3020   80.8480 O.3   501  NAP501     -0.3112
     28  C5D       53.7780   58.3000   81.4550 C.3   501  NAP501      0.1813
     29  C4D       52.8410   57.4340   82.3400 C.3   501  NAP501      0.1799
     30  O4D       52.1410   58.4580   83.0510 O.3   501  NAP501     -0.3327
     31  C3D       51.7610   56.6040   81.5450 C.3   501  NAP501      0.2158
     32  O3D       51.6220   55.2390   82.0100 O.3   501  NAP501     -0.2175
     33  C2D       50.4430   57.3910   81.8150 C.3   501  NAP501      0.2309
     34  O2D       49.2510   56.6010   81.9080 O.3   501  NAP501     -0.2158
     35  C1D       50.7910   58.0650   83.1260 C.3   501  NAP501      0.2263
     36  N1N       49.9170   59.2230   83.4150 N.pl3 501  NAP501     -0.2787
     37  C2N       50.1620   60.4040   82.7710 C.3   501  NAP501      0.1244
     38  C3N       49.3560   61.5230   83.0120 C.2   501  NAP501      0.0544
     39  C7N       49.6620   62.7910   82.2800 C.2   501  NAP501      0.2818
     40  O7N       48.9770   63.7820   82.5370 O.2   501  NAP501     -0.2670
     41  N7N       50.7630   62.8560   81.4420 N.am  501  NAP501     -0.0839
     42  C4N       48.3060   61.4080   83.9410 C.2   501  NAP501      0.0033
     43  C5N       48.0800   60.1820   84.5850 C.2   501  NAP501      0.0157
     44  C6N       48.8920   59.0890   84.3130 C.2   501  NAP501      0.0633
     45  P2B       58.3110   56.1190   72.0410 P.3   501  NAP501      0.5328
     46  O1X       59.6750   56.6400   71.7180 O.3   501  NAP501     -0.1145
     47  O2X       58.1760   54.6150   72.0520 O.3   501  NAP501     -0.1145
     48  O3X       57.2000   56.8030   71.2670 O.2   501  NAP501     -0.2224
@<TRIPOS>BOND
     1    48    45    2
     2    18    17    1
     3    46    45    1
     4    45    47    1
     5    45    11    1
     6    17    16    1
     7    17    19    2
     8    15    16    2
     9    15    14    1
    10    16    22    1
    11    19    20    1
    12    14    13    1
    13    11    10    1
    14    22    13    1
    15    22    21    2
    16    20    21    1
    17    13    12    1
    18    10    12    1
    19    10     8    1
    20    12     7    1
    21     8     9    1
    22     8     6    1
    23     3     1    2
    24     7     6    1
    25     6     5    1
    26     5     4    1
    27     4     1    1
    28     1     2    1
    29     1    23    1
    30    23    24    1
    31    26    24    2
    32    24    25    1
    33    24    27    1
    34    27    28    1
    35    41    39   am
    36    28    29    1
    37    31    33    1
    38    31    32    1
    39    31    29    1
    40    33    34    1
    41    33    35    1
    42    39    40    2
    43    39    38    1
    44    29    30    1
    45    37    38    1
    46    37    36    1
    47    38    42    2
    48    30    35    1
    49    35    36    1
    50    36    44    1
    51    42    43    1
    52    44    43    2
