@<TRIPOS>MOLECULE
3chb_GAL_D_1.pdb
 11 11 0 0 0
SMALL
GASTEIGER

@<TRIPOS>ATOM
      1  C1       -10.9140   19.4390    2.3360 C.3   104  GAL104      0.1777
      2  C2       -10.6770   18.2140    3.1930 C.3   104  GAL104      0.2141
      3  C3       -11.0220   18.5150    4.6420 C.3   104  GAL104      0.2173
      4  C4       -10.4150   19.8410    5.0900 C.3   104  GAL104      0.2142
      5  C5       -10.6280   20.9770    4.0840 C.3   104  GAL104      0.1810
      6  C6        -9.8780   22.2600    4.4220 C.3   104  GAL104      0.2141
      7  O2       -11.4630   17.1480    2.7010 O.3   104  GAL104     -0.2176
      8  O3       -10.6390   17.4260    5.4530 O.3   104  GAL104     -0.2175
      9  O4        -9.0240   19.6760    5.1550 O.3   104  GAL104     -0.2176
     10  O5       -10.1450   20.5680    2.7770 O.3   104  GAL104     -0.3481
     11  O6       -10.0600   23.2530    3.4340 O.3   104  GAL104     -0.2176
@<TRIPOS>BOND
     1     1    10    1
     2     1     2    1
     3     7     2    1
     4    10     5    1
     5     2     3    1
     6    11     6    1
     7     5     6    1
     8     5     4    1
     9     3     4    1
    10     3     8    1
    11     4     9    1
