@<TRIPOS>MOLECULE
3chb_SIA_D_1.pdb
 20 20 0 0 0
SMALL
GASTEIGER

@<TRIPOS>ATOM
      1  C1       -15.9560   21.1850   -0.1680 C.2   108  SIA108      0.3914
      2  C2       -15.9910   21.6620   -1.6220 C.3   108  SIA108      0.2203
      3  C3       -17.4750   21.8210   -1.9690 C.3   108  SIA108      0.0760
      4  C4       -18.1130   22.8110   -0.9900 C.3   108  SIA108      0.1773
      5  C5       -17.4460   24.1720   -1.1960 C.3   108  SIA108      0.1552
      6  C6       -15.9610   23.9940   -0.9430 C.3   108  SIA108      0.1710
      7  C7       -15.1550   25.2560   -1.2480 C.3   108  SIA108      0.2134
      8  C8       -13.6840   24.9970   -0.9030 C.3   108  SIA108      0.2173
      9  C9       -12.9390   26.3210   -1.0300 C.3   108  SIA108      0.2175
     10  C10      -18.1840   26.4740   -0.7440 C.2   108  SIA108      0.2420
     11  C11      -18.8970   27.3420    0.3230 C.3   108  SIA108      0.0964
     12  N5       -18.0900   25.1890   -0.3990 N.am  108  SIA108     -0.2020
     13  O1A      -14.8660   21.1720    0.4350 O.co2 108  SIA108     -0.2430
     14  O1B      -17.0630   20.8250    0.2870 O.co2 108  SIA108     -0.2430
     15  O4       -19.4950   22.9100   -1.2240 O.3   108  SIA108     -0.2211
     16  O6       -15.3860   22.9340   -1.7220 O.3   108  SIA108     -0.3429
     17  O7       -15.2240   25.5850   -2.6320 O.3   108  SIA108     -0.2176
     18  O8       -13.5390   24.4490    0.3910 O.3   108  SIA108     -0.2175
     19  O9       -11.5990   26.1010   -0.6770 O.3   108  SIA108     -0.2175
     20  O10      -17.6650   26.8040   -1.8370 O.2   108  SIA108     -0.2733
@<TRIPOS>BOND
     1    17     7    1
     2     3     2    1
     3     3     4    1
     4    20    10    2
     5    16     2    1
     6    16     6    1
     7     2     1    1
     8     7     6    1
     9     7     8    1
    10    15     4    1
    11     5     4    1
    12     5     6    1
    13     5    12    1
    14     9     8    1
    15     9    19    1
    16     8    18    1
    17    10    12   am
    18    10    11    1
    19     1    14   ar
    20     1    13   ar
