@<TRIPOS>MOLECULE
3cho_4BG_A_1.pdb
 19 20 0 0 0
SMALL
GASTEIGER

@<TRIPOS>ATOM
      1  C1        24.4390   -0.1590    3.5850 C.ar  901  4BG901     -0.0007
      2  C2        23.5200    0.4490    4.4520 C.ar  901  4BG901     -0.0002
      3  C3        22.8920    1.6500    4.0840 C.ar  901  4BG901     -0.0000
      4  C4        23.1740    2.2360    2.8430 C.ar  901  4BG901     -0.0002
      5  C5        24.0940    1.6280    1.9770 C.ar  901  4BG901     -0.0007
      6  C6        24.7390    0.4320    2.3510 C.ar  901  4BG901      0.0212
      7  C7        25.9480   -0.0260    1.5520 C.3   901  4BG901      0.2320
      8  O8        26.1420    0.5280    0.3220 O.3   901  4BG901     -0.4706
      9  C9        27.4400    0.4410   -0.0940 C.ar  901  4BG901      0.1391
     10  C12       28.4670    0.6530    0.8410 C.ar  901  4BG901      0.0382
     11  C13       29.7450    0.9960    0.4140 C.ar  901  4BG901      0.0197
     12  C10       27.7130    0.5220   -1.4690 C.ar  901  4BG901      0.0382
     13  C11       29.0080    0.8690   -1.8990 C.ar  901  4BG901      0.0197
     14  C14       30.0260    1.1310   -0.9570 C.ar  901  4BG901      0.0736
     15  N15       31.1750    1.6990   -1.3930 N.am  901  4BG901     -0.1779
     16  C16       32.1290    2.2040   -0.5820 C.2   901  4BG901      0.2650
     17  O17       31.9390    2.5910    0.5750 O.2   901  4BG901     -0.2714
     18  C18       33.5070    2.3450   -1.2300 C.3   901  4BG901      0.1959
     19  N19       34.3360    3.2530   -0.4220 N.3   901  4BG901     -0.1209
@<TRIPOS>BOND
     1    13    12   ar
     2    13    14   ar
     3    12     9   ar
     4    15    14    1
     5    15    16   am
     6    18    16    1
     7    18    19    1
     8    14    11   ar
     9    16    17    2
    10     9     8    1
    11     9    10   ar
    12     8     7    1
    13    11    10   ar
    14     7     6    1
    15     5     6   ar
    16     5     4   ar
    17     6     1   ar
    18     4     3   ar
    19     1     2   ar
    20     3     2   ar
