@<TRIPOS>MOLECULE
3chp_4BO_A_1.pdb
 23 24 0 0 0
SMALL
GASTEIGER

@<TRIPOS>ATOM
      1  C12        8.5610   41.8670   67.9200 C.ar  901  4BO901      0.0197
      2  C13        7.7440   41.0110   68.6820 C.ar  901  4BO901      0.0382
      3  C24        8.8950   38.0960   71.6280 C.ar  901  4BO901     -0.0007
      4  C11        9.5650   41.3400   67.0890 C.ar  901  4BO901      0.0736
      5  C14        7.9130   39.6150   68.6160 C.ar  901  4BO901      0.1391
      6  C15        8.9110   39.0850   67.7760 C.ar  901  4BO901      0.0382
      7  O1        13.8240   41.2220   63.6590 O.co2 901  4BO901     -0.2456
      8  C2        14.5240   41.7760   64.5420 C.2   901  4BO901      0.3668
      9  C4        13.8510   42.8740   65.4020 C.3   901  4BO901      0.1424
     10  C7        11.5360   41.8270   65.7910 C.2   901  4BO901      0.2636
     11  C5        12.3260   42.9900   65.1620 C.3   901  4BO901      0.1809
     12  C20        8.4650   35.7530   71.1370 C.ar  901  4BO901     -0.0007
     13  C21        9.1820   35.3790   72.2830 C.ar  901  4BO901     -0.0002
     14  C22        9.7550   36.3580   73.1020 C.ar  901  4BO901     -0.0000
     15  C23        9.6110   37.7180   72.7740 C.ar  901  4BO901     -0.0002
     16  C19        8.3210   37.1100   70.8020 C.ar  901  4BO901      0.0212
     17  C18        7.6350   37.4540   69.6320 C.3   901  4BO901      0.2320
     18  O17        7.1020   38.7970   69.3860 O.3   901  4BO901     -0.4706
     19  C16        9.7270   39.9390   67.0250 C.ar  901  4BO901      0.0197
     20  N9        10.4280   42.1990   66.4790 N.am  901  4BO901     -0.1780
     21  O8        11.9510   40.6720   65.6950 O.2   901  4BO901     -0.2714
     22  N6        11.8390   44.2520   65.6990 N.3   901  4BO901     -0.1224
     23  O3        15.7320   41.5240   64.7880 O.co2 901  4BO901     -0.2456
@<TRIPOS>BOND
     1     7     8   ar
     2     8    23   ar
     3     8     9    1
     4    11     9    1
     5    11    22    1
     6    11    10    1
     7    21    10    2
     8    10    20   am
     9    20     4    1
    10    19     4   ar
    11    19     6   ar
    12     4     1   ar
    13     6     5   ar
    14     1     2   ar
    15     5     2   ar
    16     5    18    1
    17    18    17    1
    18    17    16    1
    19    16    12   ar
    20    16     3   ar
    21    12    13   ar
    22     3    15   ar
    23    13    14   ar
    24    15    14   ar
