@<TRIPOS>MOLECULE
3chq_4BQ_A_1.pdb
 24 25 0 0 0
SMALL
GASTEIGER

@<TRIPOS>ATOM
      1  C21        8.1650   38.3260   72.1190 C.ar  901  4BQ901     -0.0007
      2  C22        8.8530   37.7620   73.2080 C.ar  901  4BQ901     -0.0002
      3  C23        9.0680   36.3750   73.2630 C.ar  901  4BQ901     -0.0000
      4  C24        8.5960   35.5500   72.2280 C.ar  901  4BQ901     -0.0002
      5  C25        7.9100   36.1130   71.1390 C.ar  901  4BQ901     -0.0007
      6  C20        7.6940   37.4990   71.0780 C.ar  901  4BQ901      0.0212
      7  C19        7.0270   38.0450   69.9710 C.3   901  4BQ901      0.2320
      8  O18        6.7690   39.4780   69.8650 O.3   901  4BQ901     -0.4706
      9  C15        7.6750   40.1960   69.0960 C.ar  901  4BQ901      0.1391
     10  C16        8.7890   39.5920   68.4610 C.ar  901  4BQ901      0.0382
     11  C17        9.6850   40.3750   67.7080 C.ar  901  4BQ901      0.0197
     12  C14        7.4770   41.5780   68.9540 C.ar  901  4BQ901      0.0382
     13  C13        8.3700   42.3580   68.1990 C.ar  901  4BQ901      0.0197
     14  C12        9.4830   41.7690   67.5750 C.ar  901  4BQ901      0.0736
     15  N10       10.3820   42.5930   66.9750 N.am  901  4BQ901     -0.1792
     16  C8        11.5730   42.2220   66.4620 C.2   901  4BQ901      0.2456
     17  O9        12.0710   41.0950   66.5570 O.2   901  4BQ901     -0.2730
     18  C7        12.3620   43.3750   65.8280 C.3   901  4BQ901      0.0893
     19  C6        13.8740   43.1050   65.8300 C.3   901  4BQ901      0.0402
     20  C4        14.3560   42.3320   64.5840 C.3   901  4BQ901      0.1948
     21  C2        15.7790   41.8500   64.8450 C.2   901  4BQ901      0.3819
     22  O3        16.7070   42.4790   64.3010 O.co2 901  4BQ901     -0.2441
     23  O1        15.9050   40.8690   65.6020 O.co2 901  4BQ901     -0.2441
     24  N5        13.5010   41.1600   64.3220 N.3   901  4BQ901     -0.1208
@<TRIPOS>BOND
     1    22    21   ar
     2    24    20    1
     3    20    21    1
     4    20    19    1
     5    21    23   ar
     6    18    19    1
     7    18    16    1
     8    16    17    2
     9    16    15   am
    10    15    14    1
    11    14    11   ar
    12    14    13   ar
    13    11    10   ar
    14    13    12   ar
    15    10     9   ar
    16    12     9   ar
    17     9     8    1
    18     8     7    1
    19     7     6    1
    20     6     5   ar
    21     6     1   ar
    22     5     4   ar
    23     1     2   ar
    24     4     3   ar
    25     2     3   ar
