@<TRIPOS>MOLECULE
3chr_4BS_A_1.pdb
 21 22 0 0 0
SMALL
GASTEIGER

@<TRIPOS>ATOM
      1  N1        13.4230   40.4570   63.4290 N.3   613  4BS613     -0.1314
      2  C2        13.7260   41.8570   63.1620 C.3   613  4BS613      0.1098
      3  C3        13.4320   42.6790   64.4060 C.3   613  4BS613      0.0301
      4  C4        11.9480   42.8780   64.6800 C.3   613  4BS613      0.0887
      5  C5        11.2950   41.7490   65.4240 C.2   613  4BS613      0.2456
      6  O6        11.8400   40.6740   65.5910 O.2   613  4BS613     -0.2730
      7  N7        10.0890   42.0370   65.8820 N.am  613  4BS613     -0.1792
      8  C9         9.3340   41.1650   66.5840 C.ar  613  4BS613      0.0736
      9  C10        9.5880   39.7840   66.6700 C.ar  613  4BS613      0.0197
     10  C11        8.8010   38.9750   67.4850 C.ar  613  4BS613      0.0382
     11  C12        7.7470   39.5430   68.1830 C.ar  613  4BS613      0.1391
     12  C13        7.5060   40.9060   68.0960 C.ar  613  4BS613      0.0382
     13  C14        8.2770   41.7090   67.2870 C.ar  613  4BS613      0.0197
     14  O15        6.8960   38.8520   69.0010 O.3   613  4BS613     -0.4706
     15  C16        6.9170   37.4700   69.3580 C.3   613  4BS613      0.2320
     16  C17        7.8420   36.9830   70.4780 C.ar  613  4BS613      0.0212
     17  C18        8.4390   37.7700   71.4790 C.ar  613  4BS613     -0.0007
     18  C19        9.2480   37.1870   72.4510 C.ar  613  4BS613     -0.0002
     19  C20        9.4650   35.8050   72.4430 C.ar  613  4BS613     -0.0000
     20  C21        8.8760   35.0220   71.4640 C.ar  613  4BS613     -0.0002
     21  C22        8.0850   35.6180   70.5010 C.ar  613  4BS613     -0.0007
@<TRIPOS>BOND
     1     2     1    1
     2     2     3    1
     3     3     4    1
     4     4     5    1
     5     5     6    2
     6     5     7   am
     7     7     8    1
     8     8     9   ar
     9     8    13   ar
    10     9    10   ar
    11    13    12   ar
    12    10    11   ar
    13    12    11   ar
    14    11    14    1
    15    14    15    1
    16    15    16    1
    17    16    21   ar
    18    16    17   ar
    19    21    20   ar
    20    20    19   ar
    21    17    18   ar
    22    19    18   ar
