@<TRIPOS>MOLECULE
3chs_4BU_A_1.pdb
 26 27 0 0 0
SMALL
GASTEIGER

@<TRIPOS>ATOM
      1  O9        12.1870   40.9890   65.8760 O.2   901  4BU901     -0.2730
      2  C8        11.5650   42.0710   65.7190 C.2   901  4BU901      0.2456
      3  C7        12.2270   43.2830   65.1480 C.3   901  4BU901      0.0893
      4  C6        13.7450   42.8790   65.1520 C.3   901  4BU901      0.0402
      5  C4        14.4240   42.0820   63.9840 C.3   901  4BU901      0.1948
      6  N5        13.7190   40.8210   63.6870 N.3   901  4BU901     -0.1208
      7  C2        15.8270   41.6970   64.2240 C.2   901  4BU901      0.3819
      8  O3        16.7990   42.3890   63.8720 O.co2 901  4BU901     -0.2441
      9  O1        16.0810   40.6180   64.7990 O.co2 901  4BU901     -0.2441
     10  N10       10.2430   42.1600   66.0620 N.am  901  4BU901     -0.1792
     11  C12        9.5490   41.3280   66.8970 C.ar  901  4BU901      0.0736
     12  C13        8.6280   41.9020   67.8130 C.ar  901  4BU901      0.0197
     13  C14        7.8950   41.0730   68.6980 C.ar  901  4BU901      0.0382
     14  C15        8.0710   39.6690   68.6930 C.ar  901  4BU901      0.1388
     15  C16        8.9800   39.0950   67.7830 C.ar  901  4BU901      0.0382
     16  C17        9.7060   39.9140   66.8980 C.ar  901  4BU901      0.0197
     17  O18        7.3420   38.9360   69.5820 O.3   901  4BU901     -0.4723
     18  C19        7.4130   37.5580   70.0110 C.3   901  4BU901      0.2426
     19  C20        8.2740   37.7090   71.3070 C.3   901  4BU901      0.2176
     20  O21        7.4760   38.4900   72.2070 O.3   901  4BU901     -0.2143
     21  C23        8.8250   36.4640   71.9420 C.ar  901  4BU901      0.0114
     22  C24        8.6580   35.1590   71.4030 C.ar  901  4BU901     -0.0017
     23  C25        9.2260   34.0320   72.0320 C.ar  901  4BU901     -0.0002
     24  C26        9.9670   34.1960   73.2170 C.ar  901  4BU901     -0.0000
     25  C27       10.1390   35.4760   73.7820 C.ar  901  4BU901     -0.0002
     26  C28        9.5780   36.5990   73.1450 C.ar  901  4BU901     -0.0017
@<TRIPOS>BOND
     1     6     5    1
     2     8     7   ar
     3     5     7    1
     4     5     4    1
     5     7     9   ar
     6     3     4    1
     7     3     2    1
     8     2     1    2
     9     2    10   am
    10    10    11    1
    11    11    16   ar
    12    11    12   ar
    13    16    15   ar
    14    15    14   ar
    15    12    13   ar
    16    14    13   ar
    17    14    17    1
    18    17    18    1
    19    18    19    1
    20    19    21    1
    21    19    20    1
    22    22    21   ar
    23    22    23   ar
    24    21    26   ar
    25    23    24   ar
    26    26    25   ar
    27    24    25   ar
