@<TRIPOS>MOLECULE
3cht_4NB_A_1.pdb
 12 12 0 0 0
SMALL
GASTEIGER

@<TRIPOS>ATOM
      1  C          4.4190   -2.3840   -3.3040 C.2   502  4NB502      0.3878
      2  O1         4.0930   -3.4900   -2.8530 O.co2 502  4NB502     -0.2406
      3  O2         3.7280   -1.3500   -3.1190 O.co2 502  4NB502     -0.2406
      4  C1         5.6700   -2.3050   -4.1190 C.ar  502  4NB502      0.0799
      5  C2         5.7980   -1.2750   -5.0510 C.ar  502  4NB502      0.0083
      6  C3         6.9470   -1.1870   -5.8220 C.ar  502  4NB502      0.0243
      7  C4         7.9590   -2.1260   -5.6560 C.ar  502  4NB502      0.1429
      8  C5         7.8310   -3.1590   -4.7290 C.ar  502  4NB502      0.0243
      9  C6         6.6810   -3.2520   -3.9570 C.ar  502  4NB502      0.0083
     10  N          9.0980   -2.0070   -6.4490 N.pl3 502  4NB502      0.0577
     11  O1'        9.6010   -3.0180   -6.9310 O.2   502  4NB502     -0.1261
     12  O2'        9.5520   -0.8820   -6.6680 O.2   502  4NB502     -0.1261
@<TRIPOS>BOND
     1    11    10    2
     2    12    10    2
     3    10     7    1
     4     6     7   ar
     5     6     5   ar
     6     7     8   ar
     7     5     4   ar
     8     8     9   ar
     9     4     9   ar
    10     4     1    1
    11     1     3   ar
    12     1     2   ar
