@<TRIPOS>MOLECULE
3chw_ATP_A_1.pdb
 31 33 0 0 0
SMALL
GASTEIGER

@<TRIPOS>ATOM
      1  PG         6.8970  -18.3430  -26.4850 P.3   402  ATP402      0.5373
      2  O1G        7.6710  -19.4830  -25.8550 O.3   402  ATP402     -0.1143
      3  O2G        6.1810  -17.5160  -25.4990 O.3   402  ATP402     -0.1143
      4  O3G        7.6830  -17.5220  -27.4880 O.2   402  ATP402     -0.2221
      5  PB         4.2460  -18.9030  -27.6670 P.3   402  ATP402      0.2277
      6  O1B        4.0430  -19.4390  -29.0630 O.2   402  ATP402     -0.5168
      7  O2B        3.7960  -17.5290  -27.2320 O.3   402  ATP402     -0.4368
      8  O3B        5.8330  -19.1020  -27.4530 O.3   402  ATP402     -0.2258
      9  PA         2.1490  -19.9850  -26.0020 P.3   402  ATP402      0.2189
     10  O1A        1.2110  -19.5820  -27.0870 O.2   402  ATP402     -0.5170
     11  O2A        1.9870  -19.1830  -24.7430 O.3   402  ATP402     -0.4371
     12  O3A        3.6650  -19.9570  -26.5800 O.3   402  ATP402     -0.2700
     13  O5'        2.0340  -21.5520  -25.6340 O.3   402  ATP402     -0.3112
     14  C5'        2.3680  -22.5970  -26.5540 C.3   402  ATP402      0.1813
     15  C4'        2.7660  -23.8520  -25.7780 C.3   402  ATP402      0.1821
     16  O4'        1.7710  -24.1610  -24.7920 O.3   402  ATP402     -0.3135
     17  C3'        2.8620  -25.0720  -26.6770 C.3   402  ATP402      0.2184
     18  O3'        4.0680  -25.7710  -26.3220 O.3   402  ATP402     -0.2174
     19  C2'        1.6100  -25.8860  -26.3580 C.3   402  ATP402      0.2570
     20  O2'        1.7230  -27.3070  -26.5880 O.3   402  ATP402     -0.2130
     21  C1'        1.4360  -25.5500  -24.8880 C.3   402  ATP402      0.3186
     22  N9         0.0610  -25.7550  -24.3760 N.pl3 402  ATP402     -0.1439
     23  C8        -1.0730  -25.1940  -24.8480 C.3   402  ATP402      0.3377
     24  N7        -2.1510  -25.6030  -24.1320 N.2   402  ATP402     -0.2095
     25  C5        -1.6930  -26.4390  -23.1770 C.2   402  ATP402      0.2526
     26  C6        -2.3110  -27.2110  -22.0820 C.2   402  ATP402      0.4393
     27  N6        -3.6690  -27.1490  -21.8990 N.pl3 402  ATP402      0.2180
     28  N1        -1.4830  -27.9470  -21.3000 N.2   402  ATP402      0.0021
     29  C2        -0.1610  -27.9980  -21.5100 C.3   402  ATP402      0.5254
     30  N3         0.4660  -27.3160  -22.4970 N.2   402  ATP402     -0.0055
     31  C4        -0.2410  -26.5280  -23.3360 C.2   402  ATP402      0.3518
@<TRIPOS>BOND
     1     6     5    2
     2     5     8    1
     3     5     7    1
     4     5    12    1
     5     4     1    2
     6     8     1    1
     7    10     9    2
     8    17    19    1
     9    17    18    1
    10    17    15    1
    11    20    19    1
    12    12     9    1
    13    14    15    1
    14    14    13    1
    15     1     2    1
    16     1     3    1
    17    19    21    1
    18     9    13    1
    19     9    11    1
    20    15    16    1
    21    21    16    1
    22    21    22    1
    23    23    22    1
    24    23    24    1
    25    22    31    1
    26    24    25    2
    27    31    25    1
    28    31    30    2
    29    25    26    1
    30    30    29    1
    31    26    27    1
    32    26    28    2
    33    29    28    1
