@<TRIPOS>MOLECULE
3ci1_ATP_A_1.pdb
 31 33 0 0 0
SMALL
GASTEIGER

@<TRIPOS>ATOM
      1  PG       -27.4300   39.8790   -7.1290 P.3   999  ATP999      0.5373
      2  O1G      -26.5610   40.8890   -6.4140 O.3   999  ATP999     -0.1143
      3  O2G      -28.0830   38.9080   -6.1970 O.3   999  ATP999     -0.1143
      4  O3G      -28.4030   40.5350   -8.0710 O.2   999  ATP999     -0.2221
      5  PB       -26.5070   37.5520   -8.6340 P.3   999  ATP999      0.2277
      6  O1B      -27.8900   37.0780   -8.3060 O.3   999  ATP999     -0.4368
      7  O2B      -26.0510   37.5480  -10.0750 O.2   999  ATP999     -0.5168
      8  O3B      -26.3470   39.0460   -8.0340 O.3   999  ATP999     -0.2258
      9  PA       -25.4730   36.3860   -6.2110 P.3   999  ATP999      0.2189
     10  O1A      -26.8630   36.3730   -5.6690 O.2   999  ATP999     -0.5170
     11  O2A      -24.4770   37.3560   -5.6020 O.3   999  ATP999     -0.4371
     12  O3A      -25.4360   36.6750   -7.8130 O.3   999  ATP999     -0.2700
     13  O5'      -24.8480   34.9090   -6.1910 O.3   999  ATP999     -0.3112
     14  C5'      -23.4100   34.7490   -6.0320 C.3   999  ATP999      0.1813
     15  C4'      -22.7840   33.8640   -7.1170 C.3   999  ATP999      0.1821
     16  O4'      -23.4240   32.5640   -7.1900 O.3   999  ATP999     -0.3135
     17  C3'      -22.9330   34.4950   -8.5050 C.3   999  ATP999      0.2184
     18  O3'      -21.8120   35.2940   -8.9250 O.3   999  ATP999     -0.2174
     19  C2'      -23.1450   33.3000   -9.4050 C.3   999  ATP999      0.2570
     20  O2'      -21.8620   32.7370   -9.6880 O.3   999  ATP999     -0.2130
     21  C1'      -23.8770   32.2930   -8.5220 C.3   999  ATP999      0.3186
     22  N9       -25.3720   32.3990   -8.5170 N.pl3 999  ATP999     -0.1439
     23  C8       -26.1760   33.4900   -8.6240 C.3   999  ATP999      0.3377
     24  N7       -27.4970   33.1450   -8.5260 N.2   999  ATP999     -0.2095
     25  C5       -27.5460   31.8110   -8.3290 C.2   999  ATP999      0.2526
     26  C6       -28.5980   30.7920   -8.1450 C.2   999  ATP999      0.4393
     27  N6       -29.9100   31.1300   -8.1480 N.pl3 999  ATP999      0.2180
     28  N1       -28.1870   29.5110   -8.0100 N.2   999  ATP999      0.0021
     29  C2       -26.8830   29.1510   -7.9970 C.3   999  ATP999      0.5254
     30  N3       -25.8720   30.0210   -8.1630 N.2   999  ATP999     -0.0055
     31  C4       -26.1440   31.3330   -8.3190 C.2   999  ATP999      0.3518
@<TRIPOS>BOND
     1     7     5    2
     2    20    19    1
     3    19    21    1
     4    19    17    1
     5    18    17    1
     6     5     6    1
     7     5     8    1
     8     5    12    1
     9    23    24    1
    10    23    22    1
    11    24    25    2
    12    21    22    1
    13    21    16    1
    14    22    31    1
    15    17    15    1
    16    25    31    1
    17    25    26    1
    18    31    30    2
    19    30    29    1
    20    27    26    1
    21    26    28    2
    22     4     1    2
    23     8     1    1
    24    28    29    1
    25    12     9    1
    26    16    15    1
    27     1     2    1
    28     1     3    1
    29    15    14    1
    30     9    13    1
    31     9    10    2
    32     9    11    1
    33    13    14    1
