@<TRIPOS>MOLECULE
3ci3_3PO_A_1.pdb
 13 12 0 0 0
SMALL
GASTEIGER

@<TRIPOS>ATOM
      1  PG        10.3440  -15.7580   -6.1130 P.3   901  3PO901      0.5373
      2  O1G       10.9780  -16.9160   -5.4240 O.3   901  3PO901     -0.1143
      3  O2G        8.8260  -15.7640   -6.0420 O.2   901  3PO901     -0.2221
      4  O3G       10.8310  -14.4070   -5.7020 O.3   901  3PO901     -0.1143
      5  PB        11.8730  -15.4050   -8.5790 P.3   901  3PO901      0.2317
      6  O1B       12.1280  -13.9540   -8.2780 O.3   901  3PO901     -0.4368
      7  O2B       11.6070  -15.7880  -10.0060 O.2   901  3PO901     -0.5167
      8  O3B       10.7000  -15.9080   -7.6840 O.3   901  3PO901     -0.2257
      9  PA        14.3290  -15.8070   -7.0520 P.3   901  3PO901      0.5373
     10  O1A       13.7270  -14.7590   -6.1310 O.3   901  3PO901     -0.1143
     11  O2A       14.6260  -17.0860   -6.3210 O.3   901  3PO901     -0.1143
     12  O3A       13.1300  -16.2760   -8.0620 O.3   901  3PO901     -0.2257
     13  O5'       15.4130  -15.3200   -7.9780 O.2   901  3PO901     -0.2221
@<TRIPOS>BOND
     1     7     5    2
     2     5     6    1
     3     5    12    1
     4     5     8    1
     5    12     9    1
     6    13     9    2
     7     8     1    1
     8     9    11    1
     9     9    10    1
    10     1     3    2
    11     1     4    1
    12     1     2    1
