@<TRIPOS>MOLECULE
3ci4_ATP_A_1.pdb
 31 33 0 0 0
SMALL
GASTEIGER

@<TRIPOS>ATOM
      1  PG        48.2950    3.8270   -7.1300 P.3   999  ATP999      0.5373
      2  O1G       48.6420    2.5560   -6.4070 O.3   999  ATP999     -0.1143
      3  O2G       47.8180    4.8820   -6.1760 O.3   999  ATP999     -0.1143
      4  O3G       49.3670    4.3180   -8.0660 O.2   999  ATP999     -0.2221
      5  PB        45.8130    4.2000   -8.6470 P.3   999  ATP999      0.2277
      6  O1B       46.0890    5.6580   -8.3650 O.3   999  ATP999     -0.4368
      7  O2B       45.5390    3.7950  -10.0790 O.2   999  ATP999     -0.5168
      8  O3B       47.0460    3.3460   -8.0300 O.3   999  ATP999     -0.2258
      9  PA        44.2400    3.8740   -6.2370 P.3   999  ATP999      0.2189
     10  O1A       44.9530    5.0680   -5.6990 O.2   999  ATP999     -0.5170
     11  O2A       44.5290    2.5340   -5.6040 O.3   999  ATP999     -0.4371
     12  O3A       44.5250    3.7010   -7.8200 O.3   999  ATP999     -0.2700
     13  O5'       42.6570    4.0750   -6.2490 O.3   999  ATP999     -0.3112
     14  C5'       41.7930    2.9080   -6.0350 C.3   999  ATP999      0.1813
     15  C4'       40.7040    2.7360   -7.1050 C.3   999  ATP999      0.1821
     16  O4'       39.8920    3.9210   -7.1540 O.3   999  ATP999     -0.3135
     17  C3'       41.3080    2.6070   -8.5050 C.3   999  ATP999      0.2184
     18  O3'       41.4620    1.2720   -8.9860 O.3   999  ATP999     -0.2174
     19  C2'       40.4230    3.4590   -9.3990 C.3   999  ATP999      0.2570
     20  O2'       39.3020    2.7250   -9.8740 O.3   999  ATP999     -0.2130
     21  C1'       39.9060    4.5330   -8.4590 C.3   999  ATP999      0.3186
     22  N9        40.7500    5.7760   -8.4740 N.pl3 999  ATP999     -0.1439
     23  C8        42.1000    5.8840   -8.5870 C.3   999  ATP999      0.3377
     24  N7        42.4950    7.1810   -8.5150 N.2   999  ATP999     -0.2095
     25  C5        41.3840    7.9370   -8.3340 C.2   999  ATP999      0.2526
     26  C6        41.0540    9.3800   -8.1900 C.2   999  ATP999      0.4393
     27  N6        41.9900   10.3520   -8.2100 N.pl3 999  ATP999      0.2180
     28  N1        39.7490    9.7170   -8.0400 N.2   999  ATP999      0.0021
     29  C2        38.7570    8.8000   -8.0000 C.3   999  ATP999      0.5254
     30  N3        38.9750    7.4860   -8.1380 N.2   999  ATP999     -0.0055
     31  C4        40.2440    7.0030   -8.3070 C.2   999  ATP999      0.3518
@<TRIPOS>BOND
     1     7     5    2
     2    20    19    1
     3    19    17    1
     4    19    21    1
     5    18    17    1
     6     5     6    1
     7     5     8    1
     8     5    12    1
     9    23    24    1
    10    23    22    1
    11    24    25    2
    12    17    15    1
    13    22    21    1
    14    22    31    1
    15    21    16    1
    16    25    31    1
    17    25    26    1
    18    31    30    2
    19    27    26    1
    20    26    28    2
    21    30    29    1
    22     4     1    2
    23    28    29    1
    24     8     1    1
    25    12     9    1
    26    16    15    1
    27     1     2    1
    28     1     3    1
    29    15    14    1
    30    13     9    1
    31    13    14    1
    32     9    10    2
    33     9    11    1
