@<TRIPOS>MOLECULE
3ci5_ATP_A_1.pdb
 31 33 0 0 0
SMALL
GASTEIGER

@<TRIPOS>ATOM
      1  PG        14.2850   -0.0130   14.8260 P.3   401  ATP401      0.5373
      2  O1G       13.1190    0.1080   15.7930 O.3   401  ATP401     -0.1143
      3  O2G       15.6230    0.0690   15.4910 O.3   401  ATP401     -0.1143
      4  O3G       14.1700   -1.1800   13.8740 O.2   401  ATP401     -0.2221
      5  PB        14.9540    2.3980   13.2730 P.3   401  ATP401      0.2277
      6  O1B       14.4570    2.6980   11.8770 O.2   401  ATP401     -0.5168
      7  O2B       16.4010    2.0810   13.4920 O.3   401  ATP401     -0.4368
      8  O3B       13.9960    1.2820   13.8980 O.3   401  ATP401     -0.2258
      9  PA        15.4340    4.9600   14.5370 P.3   401  ATP401      0.2189
     10  O1A       15.9640    5.4790   13.2270 O.2   401  ATP401     -0.5170
     11  O2A       16.3760    4.7610   15.6930 O.3   401  ATP401     -0.4371
     12  O3A       14.5630    3.6430   14.1950 O.3   401  ATP401     -0.2700
     13  O5'       14.2280    5.9040   14.9930 O.3   401  ATP401     -0.3112
     14  C5'       13.2710    6.4100   14.0580 C.3   401  ATP401      0.1813
     15  C4'       12.2070    7.1090   14.9050 C.3   401  ATP401      0.1821
     16  O4'       12.8450    8.1280   15.6650 O.3   401  ATP401     -0.3135
     17  C3'       11.1320    7.7950   14.0650 C.3   401  ATP401      0.2184
     18  O3'        9.8500    7.4740   14.6240 O.3   401  ATP401     -0.2174
     19  C2'       11.4400    9.2660   14.2150 C.3   401  ATP401      0.2570
     20  O2'       10.2630   10.0900   14.0640 O.3   401  ATP401     -0.2130
     21  C1'       12.0440    9.2810   15.6200 C.3   401  ATP401      0.3186
     22  N9        12.8710   10.4690   15.8150 N.pl3 401  ATP401     -0.1439
     23  C8        13.8970   10.8770   15.0420 C.3   401  ATP401      0.3377
     24  N7        14.3860   12.0560   15.5170 N.2   401  ATP401     -0.2095
     25  C5        13.6670   12.3720   16.6060 C.2   401  ATP401      0.2526
     26  C6        13.6360   13.4810   17.5580 C.2   401  ATP401      0.4393
     27  N6        14.5080   14.4960   17.4570 N.pl3 401  ATP401      0.2180
     28  N1        12.7100   13.4170   18.5370 N.2   401  ATP401      0.0021
     29  C2        11.7970   12.4230   18.6720 C.3   401  ATP401      0.5254
     30  N3        11.7540   11.3900   17.8450 N.2   401  ATP401     -0.0055
     31  C4        12.6480   11.3340   16.8000 C.2   401  ATP401      0.3518
@<TRIPOS>BOND
     1     6     5    2
     2    10     9    2
     3     5     7    1
     4     5     8    1
     5     5    12    1
     6     4     1    2
     7     8     1    1
     8    14    15    1
     9    14    13    1
    10    20    19    1
    11    17    19    1
    12    17    18    1
    13    17    15    1
    14    12     9    1
    15    19    21    1
    16     9    13    1
    17     9    11    1
    18     1     3    1
    19     1     2    1
    20    15    16    1
    21    23    24    1
    22    23    22    1
    23    24    25    2
    24    21    16    1
    25    21    22    1
    26    22    31    1
    27    25    31    1
    28    25    26    1
    29    31    30    2
    30    27    26    1
    31    26    28    2
    32    30    29    1
    33    28    29    1
