@<TRIPOS>MOLECULE
3cib_314_A_1.pdb
 44 47 0 0 0
SMALL
GASTEIGER

@<TRIPOS>ATOM
      1  F1        27.0260   10.8080   19.1370 F     501  314501     -0.2041
      2  F2        23.0830   13.3590   18.5300 F     501  314501     -0.2041
      3  C1        26.9670   15.4970   24.5220 C.ar  501  314501      0.0003
      4  C2        27.1190   14.2850   23.7900 C.ar  501  314501      0.0534
      5  C3        25.9710   13.4800   23.4990 C.ar  501  314501      0.0091
      6  C4        24.6770   13.8930   23.9290 C.ar  501  314501      0.0549
      7  C5        24.5280   15.1130   24.6560 C.ar  501  314501      0.0003
      8  C6        25.6760   15.9110   24.9520 C.ar  501  314501     -0.0216
      9  C7        28.4540   13.8480   23.3730 C.2   501  314501      0.2490
     10  N1        28.7000   13.6420   22.0440 N.am  501  314501     -0.2761
     11  O1        29.3310   13.6560   24.2090 O.2   501  314501     -0.2699
     12  C8        30.0440   13.1900   21.7000 C.3   501  314501      0.0937
     13  C9        27.7220   13.8510   20.9750 C.3   501  314501      0.0937
     14  C10       28.2290   14.9260   20.0160 C.3   501  314501      0.0215
     15  C11       28.7940   16.1390   20.7520 C.3   501  314501      0.0018
     16  C12       30.0120   11.7180   21.2070 C.3   501  314501      0.0215
     17  C13       29.1930   10.7760   22.1100 C.3   501  314501      0.0018
     18  C14       25.5260   17.1700   25.7040 C.3   501  314501      0.0310
     19  C15       23.5000   13.0770   23.6160 C.2   501  314501      0.2648
     20  O2        22.3790   13.5510   23.4840 O.2   501  314501     -0.2684
     21  N2        23.7510   11.7520   23.4810 N.am  501  314501     -0.2004
     22  C16       22.6520   10.8310   23.1420 C.3   501  314501      0.1316
     23  C17       22.1250   10.0290   24.3540 C.3   501  314501      0.1879
     24  O3        21.2030    9.0310   23.8910 O.3   501  314501     -0.2198
     25  C18       23.1230    9.8710   22.0330 C.3   501  314501      0.0508
     26  C19       23.8000   10.6420   20.9170 C.ar  501  314501     -0.0159
     27  C20       25.1440   10.3410   20.5500 C.ar  501  314501      0.0256
     28  C21       25.7740   11.0720   19.4940 C.ar  501  314501      0.1421
     29  C22       25.0680   12.0950   18.8120 C.ar  501  314501      0.0592
     30  C23       23.7330   12.3950   19.1770 C.ar  501  314501      0.1421
     31  C24       23.0940   11.6750   20.2240 C.ar  501  314501      0.0256
     32  C25       21.3970   10.8940   25.3900 C.3   501  314501      0.1048
     33  C26       20.0980   11.4990   24.8210 C.3   501  314501      0.0204
     34  C27       19.2700   12.1920   25.9060 C.3   501  314501      0.0073
     35  C28       19.1350   11.3150   27.1530 C.3   501  314501      0.0192
     36  C29       20.4750   10.8010   27.6430 C.3   501  314501      0.0887
     37  N3        21.1010   10.0310   26.5560 N.3   501  314501     -0.2168
     38  C30       17.9180   12.7260   25.3740 C.3   501  314501      0.0264
     39  C31       16.9520   11.5900   25.0960 C.ar  501  314501     -0.0222
     40  C32       16.0490   11.1570   26.1120 C.ar  501  314501     -0.0043
     41  C33       15.1370   10.0880   25.8540 C.ar  501  314501     -0.0003
     42  C34       15.1310    9.4540   24.5780 C.ar  501  314501     -0.0000
     43  C35       16.0330    9.8900   23.5650 C.ar  501  314501     -0.0003
     44  C36       16.9420   10.9560   23.8210 C.ar  501  314501     -0.0043
@<TRIPOS>BOND
     1     2    30    1
     2    29    30   ar
     3    29    28   ar
     4     1    28    1
     5    30    31   ar
     6    28    27   ar
     7    14    15    1
     8    14    13    1
     9    31    26   ar
    10    27    26   ar
    11    26    25    1
    12    13    10    1
    13    16    12    1
    14    16    17    1
    15    12    10    1
    16    25    22    1
    17    10     9   am
    18    22    21    1
    19    22    23    1
    20     9     4    1
    21     9    11    2
    22    21    19   am
    23    20    19    2
    24     5     4   ar
    25     5     6   ar
    26    43    44   ar
    27    43    42   ar
    28    19     6    1
    29     4     3   ar
    30    44    39   ar
    31    24    23    1
    32     6     7   ar
    33    23    32    1
    34     3     8   ar
    35    42    41   ar
    36     7     8   ar
    37    33    32    1
    38    33    34    1
    39     8    18    1
    40    39    38    1
    41    39    40   ar
    42    38    34    1
    43    32    37    1
    44    41    40   ar
    45    34    35    1
    46    37    36    1
    47    35    36    1
