@<TRIPOS>MOLECULE
3cic_316_A_1.pdb
 45 48 0 0 0
SMALL
GASTEIGER

@<TRIPOS>ATOM
      1  C1        27.0460   15.5560   24.3080 C.ar  501  316501      0.0003
      2  C2        27.1800   14.3390   23.5830 C.ar  501  316501      0.0534
      3  C3        26.0170   13.5650   23.2740 C.ar  501  316501      0.0091
      4  C4        24.7300   14.0160   23.6840 C.ar  501  316501      0.0549
      5  C5        24.6010   15.2420   24.4030 C.ar  501  316501      0.0003
      6  C6        25.7630   16.0100   24.7160 C.ar  501  316501     -0.0216
      7  C7        28.5150   13.8710   23.1840 C.2   501  316501      0.2490
      8  N1        28.7560   13.6490   21.8540 N.am  501  316501     -0.2761
      9  O1        29.3930   13.6740   24.0200 O.2   501  316501     -0.2699
     10  C8        30.0870   13.1760   21.4970 C.3   501  316501      0.0937
     11  C9        27.7740   13.8650   20.7890 C.3   501  316501      0.0937
     12  C10       28.3220   14.8730   19.7840 C.3   501  316501      0.0215
     13  C11       28.8950   16.1170   20.4720 C.3   501  316501      0.0018
     14  C12       30.0430   11.7030   21.0340 C.3   501  316501      0.0215
     15  C13       29.2200   10.7970   21.9560 C.3   501  316501      0.0018
     16  C14       25.6360   17.2730   25.4620 C.3   501  316501      0.0310
     17  C15       23.5370   13.2360   23.3490 C.2   501  316501      0.2648
     18  O2        22.4670   13.7610   23.0780 O.2   501  316501     -0.2684
     19  N2        23.7070   11.8880   23.3540 N.am  501  316501     -0.2004
     20  C16       22.5680   11.0220   23.0040 C.3   501  316501      0.1321
     21  C17       22.0430   10.1760   24.2040 C.3   501  316501      0.1967
     22  O3        21.0350    9.2690   23.7360 O.3   501  316501     -0.2193
     23  C18       22.9740   10.0800   21.8660 C.3   501  316501      0.0508
     24  C19       23.6680   10.8250   20.7470 C.ar  501  316501     -0.0159
     25  C20       22.9770   11.8450   20.0280 C.ar  501  316501      0.0256
     26  C21       23.6380   12.5390   18.9740 C.ar  501  316501      0.1421
     27  C22       24.9800   12.2180   18.6350 C.ar  501  316501      0.0592
     28  C23       25.6690   11.2050   19.3470 C.ar  501  316501      0.1421
     29  C24       25.0180   10.5040   20.4060 C.ar  501  316501      0.0256
     30  F1        23.0060   13.4930   18.2950 F     501  316501     -0.2041
     31  F2        26.9270   10.9150   19.0190 F     501  316501     -0.2041
     32  C25       21.4450   10.9970   25.3540 C.3   501  316501      0.1812
     33  C26       20.1430   11.7170   24.9360 C.2   501  316501      0.2444
     34  N4        19.1010   11.6420   25.8120 N.am  501  316501     -0.2728
     35  C28       19.0910   10.9390   27.1040 C.3   501  316501      0.1125
     36  C29       20.4610   10.5800   27.5990 C.3   501  316501      0.1107
     37  N3        21.2780   10.1180   26.4990 N.3   501  316501     -0.2061
     38  O4        20.0780   12.3170   23.8700 O.2   501  316501     -0.2733
     39  C27       17.8420   12.3040   25.4630 C.3   501  316501      0.1202
     40  C31       16.7860   11.2830   25.1040 C.ar  501  316501     -0.0023
     41  C32       16.9470   10.4670   23.9470 C.ar  501  316501     -0.0026
     42  C33       15.9540    9.5030   23.6120 C.ar  501  316501     -0.0003
     43  C34       14.8000    9.3560   24.4340 C.ar  501  316501     -0.0000
     44  C35       14.6380   10.1730   25.5940 C.ar  501  316501     -0.0003
     45  C36       15.6320   11.1370   25.9270 C.ar  501  316501     -0.0026
@<TRIPOS>BOND
     1    30    26    1
     2    27    26   ar
     3    27    28   ar
     4    26    25   ar
     5    31    28    1
     6    28    29   ar
     7    12    13    1
     8    12    11    1
     9    25    24   ar
    10    29    24   ar
    11    24    23    1
    12    11     8    1
    13    14    10    1
    14    14    15    1
    15    10     8    1
    16     8     7   am
    17    23    20    1
    18    20    19    1
    19    20    21    1
    20    18    17    2
    21     7     2    1
    22     7     9    2
    23     3     2   ar
    24     3     4   ar
    25    17    19   am
    26    17     4    1
    27     2     1   ar
    28    42    41   ar
    29    42    43   ar
    30     4     5   ar
    31    22    21    1
    32    38    33    2
    33    41    40   ar
    34    21    32    1
    35     1     6   ar
    36     5     6   ar
    37    43    44   ar
    38     6    16    1
    39    33    32    1
    40    33    34   am
    41    40    39    1
    42    40    45   ar
    43    32    37    1
    44    39    34    1
    45    44    45   ar
    46    34    35    1
    47    37    36    1
    48    35    36    1
