@<TRIPOS>MOLECULE
3cid_318_A_1.pdb
 44 47 0 0 0
SMALL
GASTEIGER

@<TRIPOS>ATOM
      1  F1        26.7270   11.0100   18.9990 F     501  318501     -0.2041
      2  F2        22.8010   13.5990   18.3320 F     501  318501     -0.2041
      3  N1        23.5910   11.8970   23.3320 N.am  501  318501     -0.2004
      4  C1        22.4460   11.0200   23.0130 C.3   501  318501      0.1321
      5  C2        21.9880   10.1610   24.2360 C.3   501  318501      0.1968
      6  O1        20.9670    9.2440   23.8110 O.3   501  318501     -0.2193
      7  C3        21.4300   11.0400   25.3780 C.3   501  318501      0.1827
      8  N2        21.1990   10.2000   26.5800 N.3   501  318501     -0.1868
      9  C4        19.8950   10.6620   27.1280 C.3   501  318501      0.1861
     10  N3        19.2830   11.4570   26.0690 N.am  501  318501     -0.2589
     11  C5        20.1010   11.7020   25.0450 C.2   501  318501      0.2454
     12  C6        22.7830   10.1150   21.8290 C.3   501  318501      0.0508
     13  C7        23.3530   13.2240   23.4450 C.2   501  318501      0.2648
     14  O2        19.8560   12.3420   24.0230 O.2   501  318501     -0.2732
     15  C8        17.8940   11.9020   26.2050 C.3   501  318501      0.1215
     16  C9        16.9640   11.2900   25.1840 C.ar  501  318501     -0.0023
     17  C10       16.2090   12.1360   24.3190 C.ar  501  318501     -0.0026
     18  C11       15.3260   11.5660   23.3530 C.ar  501  318501     -0.0003
     19  C12       15.1970   10.1500   23.2540 C.ar  501  318501     -0.0000
     20  C13       15.9510    9.3020   24.1190 C.ar  501  318501     -0.0003
     21  C14       16.8350    9.8730   25.0840 C.ar  501  318501     -0.0026
     22  C15       23.4730   10.8860   20.7250 C.ar  501  318501     -0.0159
     23  C16       22.7790   11.9180   20.0300 C.ar  501  318501      0.0256
     24  C17       23.4360   12.6330   18.9900 C.ar  501  318501      0.1421
     25  C18       24.7770   12.3220   18.6430 C.ar  501  318501      0.0592
     26  C19       25.4670   11.2940   19.3340 C.ar  501  318501      0.1421
     27  C20       24.8200   10.5730   20.3780 C.ar  501  318501      0.0256
     28  O3        22.2300   13.6970   23.2940 O.2   501  318501     -0.2684
     29  C21       24.5280   14.0470   23.7520 C.ar  501  318501      0.0549
     30  C22       25.8210   13.6180   23.3410 C.ar  501  318501      0.0091
     31  C23       26.9660   14.4260   23.6260 C.ar  501  318501      0.0534
     32  C24       26.8060   15.6630   24.3320 C.ar  501  318501      0.0003
     33  C25       25.5090   16.0940   24.7430 C.ar  501  318501     -0.0216
     34  C26       24.3680   15.2890   24.4530 C.ar  501  318501      0.0003
     35  C27       25.3460   17.3680   25.4640 C.3   501  318501      0.0310
     36  C28       28.3120   13.9810   23.2140 C.2   501  318501      0.2490
     37  O4        29.1970   13.7760   24.0390 O.2   501  318501     -0.2699
     38  N4        28.5490   13.7950   21.8730 N.am  501  318501     -0.2761
     39  C29       29.8820   13.3510   21.5020 C.3   501  318501      0.0937
     40  C30       29.8700   11.8790   21.0530 C.3   501  318501      0.0215
     41  C31       29.1490   10.9200   22.0440 C.3   501  318501      0.0018
     42  C32       27.5680   14.0200   20.8180 C.3   501  318501      0.0937
     43  C33       28.1520   14.9720   19.7840 C.3   501  318501      0.0215
     44  C34       28.7060   16.2580   20.4420 C.3   501  318501      0.0018
@<TRIPOS>BOND
     1     2    24    1
     2    25    24   ar
     3    25    26   ar
     4    24    23   ar
     5     1    26    1
     6    26    27   ar
     7    43    44    1
     8    43    42    1
     9    23    22   ar
    10    27    22   ar
    11    22    12    1
    12    42    38    1
    13    40    39    1
    14    40    41    1
    15    39    38    1
    16    12     4    1
    17    38    36   am
    18     4     3    1
    19     4     5    1
    20    36    31    1
    21    36    37    2
    22    19    18   ar
    23    19    20   ar
    24    28    13    2
    25     3    13   am
    26    30    31   ar
    27    30    29   ar
    28    18    17   ar
    29    13    29    1
    30    31    32   ar
    31    29    34   ar
    32     6     5    1
    33    14    11    2
    34    20    21   ar
    35     5     7    1
    36    17    16   ar
    37    32    33   ar
    38    34    33   ar
    39    33    35    1
    40    11     7    1
    41    11    10   am
    42    21    16   ar
    43    16    15    1
    44     7     8    1
    45    10    15    1
    46    10     9    1
    47     8     9    1
