@<TRIPOS>MOLECULE
3cif_NAD_A_1.pdb
 44 48 0 0 0
SMALL
GASTEIGER

@<TRIPOS>ATOM
      1  PA        42.6620  122.9550   32.6410 P.3   5463  NAD5463     0.2189
      2  O1A       44.0210  123.3670   32.2210 O.3   5463  NAD5463    -0.4371
      3  O2A       41.8610  122.2060   31.4780 O.2   5463  NAD5463    -0.5170
      4  O5B       41.7600  124.2240   33.0650 O.3   5463  NAD5463    -0.3112
      5  C5B       42.3390  125.3220   33.7790 C.3   5463  NAD5463     0.1813
      6  C4B       41.7600  126.6350   33.2590 C.3   5463  NAD5463     0.1821
      7  O4B       42.1100  127.6980   34.1760 O.3   5463  NAD5463    -0.3135
      8  C3B       42.4070  126.9910   31.9110 C.3   5463  NAD5463     0.2184
      9  O3B       41.3590  127.2360   30.9460 O.3   5463  NAD5463    -0.2174
     10  C2B       43.1990  128.2630   32.2020 C.3   5463  NAD5463     0.2570
     11  O2B       43.1690  129.1640   31.0730 O.3   5463  NAD5463    -0.2130
     12  C1B       42.4140  128.8400   33.3660 C.3   5463  NAD5463     0.3186
     13  N9A       43.1830  129.8050   34.1960 N.pl3 5463  NAD5463    -0.1439
     14  C8A       44.4890  129.8200   34.4690 C.3   5463  NAD5463     0.3377
     15  N7A       44.7270  130.8660   35.2530 N.2   5463  NAD5463    -0.2095
     16  C5A       43.5720  131.4980   35.4710 C.2   5463  NAD5463     0.2526
     17  C6A       43.2720  132.5890   36.1860 C.2   5463  NAD5463     0.4393
     18  N6A       44.2850  133.1890   36.8100 N.pl3 5463  NAD5463     0.2180
     19  N1A       42.0170  133.0600   36.2740 N.2   5463  NAD5463     0.0021
     20  C2A       40.9850  132.3900   35.5990 C.3   5463  NAD5463     0.5254
     21  N3A       41.3310  131.2530   34.8540 N.2   5463  NAD5463    -0.0055
     22  C4A       42.6130  130.8360   34.8140 C.2   5463  NAD5463     0.3518
     23  O3        42.7170  121.9930   33.9240 O.3   5463  NAD5463    -0.2703
     24  PN        41.4990  121.0630   34.4300 P.3   5463  NAD5463     0.2189
     25  O1N       41.8110  119.6630   34.0570 O.3   5463  NAD5463    -0.4371
     26  O2N       40.2030  121.6550   34.0280 O.2   5463  NAD5463    -0.5170
     27  O5D       41.6990  121.1720   36.0100 O.3   5463  NAD5463    -0.3112
     28  C5D       41.2500  122.2920   36.7760 C.3   5463  NAD5463     0.1813
     29  C4D       41.2510  121.9240   38.2650 C.3   5463  NAD5463     0.1799
     30  O4D       40.3540  120.8180   38.5520 O.3   5463  NAD5463    -0.3327
     31  C3D       42.6350  121.4850   38.7420 C.3   5463  NAD5463     0.2158
     32  O3D       42.7900  121.8930   40.1220 O.3   5463  NAD5463    -0.2175
     33  C2D       42.5550  119.9720   38.6550 C.3   5463  NAD5463     0.2309
     34  O2D       43.4930  119.3530   39.5490 O.3   5463  NAD5463    -0.2158
     35  C1D       41.1240  119.7260   39.1160 C.3   5463  NAD5463     0.2263
     36  N1N       40.5150  118.4730   38.5990 N.pl3 5463  NAD5463    -0.2787
     37  C2N       40.8110  117.9880   37.3090 C.3   5463  NAD5463     0.1244
     38  C3N       40.2140  116.8170   36.8440 C.2   5463  NAD5463     0.0544
     39  C7N       40.5120  116.3350   35.5630 C.2   5463  NAD5463     0.2818
     40  O7N       40.7700  117.0980   34.6320 O.2   5463  NAD5463    -0.2670
     41  N7N       40.4960  115.0140   35.4320 N.am  5463  NAD5463    -0.0839
     42  C4N       39.3150  116.1320   37.6670 C.2   5463  NAD5463     0.0033
     43  C5N       39.0080  116.6090   38.9410 C.2   5463  NAD5463     0.0157
     44  C6N       39.6050  117.7750   39.4090 C.2   5463  NAD5463     0.0633
@<TRIPOS>BOND
     1     9     8    1
     2    11    10    1
     3     3     1    2
     4     8    10    1
     5     8     6    1
     6    10    12    1
     7     2     1    1
     8     1     4    1
     9     1    23    1
    10     4     5    1
    11     6     5    1
    12     6     7    1
    13    12     7    1
    14    12    13    1
    15    23    24    1
    16    26    24    2
    17    25    24    1
    18    13    14    1
    19    13    22    1
    20    24    27    1
    21    14    15    1
    22    40    39    2
    23    22    21    2
    24    22    16    1
    25    21    20    1
    26    15    16    2
    27    41    39   am
    28    16    17    1
    29    39    38    1
    30    20    19    1
    31    27    28    1
    32    17    19    2
    33    17    18    1
    34    28    29    1
    35    38    37    1
    36    38    42    2
    37    37    36    1
    38    42    43    1
    39    29    30    1
    40    29    31    1
    41    30    35    1
    42    36    35    1
    43    36    44    1
    44    33    31    1
    45    33    35    1
    46    33    34    1
    47    31    32    1
    48    43    44    2
