@<TRIPOS>MOLECULE
3cif_G3H_A_1.pdb
 10 9 0 0 0
SMALL
GASTEIGER

@<TRIPOS>ATOM
      1  O1        41.2980  113.3460   37.1670 O.2   1337  G3H1337    -0.2854
      2  C1        41.7880  113.6000   38.2510 C.2   1337  G3H1337     0.2426
      3  C2        42.7220  114.7660   38.4340 C.3   1337  G3H1337     0.2459
      4  O2        43.7460  114.7180   37.4350 O.3   1337  G3H1337    -0.2119
      5  C3        43.3430  114.6820   39.8200 C.3   1337  G3H1337     0.1946
      6  O1P       42.8400  113.5450   40.5280 O.3   1337  G3H1337    -0.2670
      7  O2P       44.9910  113.6420   41.7410 O.3   1337  G3H1337    -0.1145
      8  O3P       44.1290  111.4530   40.7940 O.2   1337  G3H1337    -0.2224
      9  O4P       42.9670  112.5340   42.7680 O.3   1337  G3H1337    -0.1145
     10  P         43.8030  112.7330   41.5300 P.3   1337  G3H1337     0.5327
@<TRIPOS>BOND
     1     1     2    2
     2     4     3    1
     3     2     3    1
     4     3     5    1
     5     5     6    1
     6     6    10    1
     7     8    10    2
     8    10     7    1
     9    10     9    1
