@<TRIPOS>MOLECULE
3cin_NAD_A_1.pdb
 44 48 0 0 0
SMALL
GASTEIGER

@<TRIPOS>ATOM
      1  PA        15.6790    8.5570   38.2740 P.3   400  NAD400      0.2189
      2  O1A       14.8930    7.8850   39.3680 O.3   400  NAD400     -0.4371
      3  O2A       15.9890    7.6160   37.1510 O.2   400  NAD400     -0.5170
      4  O5B       14.7380    9.6770   37.7070 O.3   400  NAD400     -0.3112
      5  C5B       15.0520   10.3430   36.4860 C.3   400  NAD400      0.1813
      6  C4B       13.7360   10.7290   35.8340 C.3   400  NAD400      0.1821
      7  O4B       14.0020   11.5930   34.7410 O.3   400  NAD400     -0.3135
      8  C3B       12.9220    9.5620   35.2880 C.3   400  NAD400      0.2184
      9  O3B       11.5490    9.6950   35.6160 O.3   400  NAD400     -0.2174
     10  C2B       13.1190    9.6640   33.7810 C.3   400  NAD400      0.2570
     11  O2B       12.1150    9.0010   33.0620 O.3   400  NAD400     -0.2130
     12  C1B       13.1890   11.1660   33.6190 C.3   400  NAD400      0.3186
     13  N9A       13.8380   11.6380   32.3930 N.pl3 400  NAD400     -0.1439
     14  C8A       14.9740   11.0660   31.8290 C.3   400  NAD400      0.3377
     15  N7A       15.3430   11.8810   30.7820 N.2   400  NAD400     -0.2095
     16  C5A       14.4370   12.9100   30.7060 C.2   400  NAD400      0.2526
     17  C6A       14.2720   13.9550   29.7930 C.2   400  NAD400      0.4393
     18  N6A       15.1500   14.1880   28.7670 N.pl3 400  NAD400      0.2180
     19  N1A       13.2540   14.8540   30.0420 N.2   400  NAD400      0.0021
     20  C2A       12.3930   14.6640   31.1080 C.3   400  NAD400      0.5254
     21  N3A       12.4930   13.5920   31.9700 N.2   400  NAD400     -0.0055
     22  C4A       13.5120   12.7390   31.7390 C.2   400  NAD400      0.3518
     23  O3        16.9820    9.2310   38.8470 O.3   400  NAD400     -0.2703
     24  PN        17.1080    9.9740   40.2330 P.3   400  NAD400      0.2189
     25  O1N       17.7570    9.0380   41.1970 O.3   400  NAD400     -0.4371
     26  O2N       15.8550   10.7200   40.5490 O.2   400  NAD400     -0.5170
     27  O5D       18.2470   11.0350   39.8960 O.3   400  NAD400     -0.3112
     28  C5D       17.9520   12.1660   39.1090 C.3   400  NAD400      0.1813
     29  C4D       19.2220   12.9030   38.6990 C.3   400  NAD400      0.1799
     30  O4D       19.7960   13.4680   39.8460 O.3   400  NAD400     -0.3327
     31  C3D       20.2910   12.0630   38.0180 C.3   400  NAD400      0.2158
     32  O3D       20.9420   12.8430   36.9820 O.3   400  NAD400     -0.2175
     33  C2D       21.2870   11.8610   39.1490 C.3   400  NAD400      0.2309
     34  O2D       22.6200   11.6750   38.6640 O.3   400  NAD400     -0.2158
     35  C1D       21.1730   13.1990   39.8450 C.3   400  NAD400      0.2263
     36  N1N       21.6670   13.1690   41.2200 N.pl3 400  NAD400     -0.2787
     37  C2N       21.1010   12.3520   42.1120 C.3   400  NAD400      0.1244
     38  C3N       21.6340   12.4270   43.4270 C.2   400  NAD400      0.0544
     39  C7N       20.8880   11.7490   44.4830 C.2   400  NAD400      0.2818
     40  O7N       19.8100   11.0120   44.0790 O.2   400  NAD400     -0.2670
     41  N7N       21.2690   11.8770   45.7640 N.am  400  NAD400     -0.0839
     42  C4N       22.6780   13.2660   43.7630 C.2   400  NAD400      0.0033
     43  C5N       23.2420   14.0770   42.8210 C.2   400  NAD400      0.0157
     44  C6N       22.6930   14.0230   41.5320 C.2   400  NAD400      0.0633
@<TRIPOS>BOND
     1    18    17    1
     2    17    19    2
     3    17    16    1
     4    19    20    1
     5    16    15    2
     6    16    22    1
     7    15    14    1
     8    20    21    1
     9    22    21    2
    10    22    13    1
    11    14    13    1
    12    13    12    1
    13    11    10    1
    14    12    10    1
    15    12     7    1
    16    10     8    1
    17     7     6    1
    18     8     9    1
    19     8     6    1
    20     6     5    1
    21     5     4    1
    22    32    31    1
    23     3     1    2
    24     4     1    1
    25    31    29    1
    26    31    33    1
    27     1    23    1
    28     1     2    1
    29    34    33    1
    30    29    28    1
    31    29    30    1
    32    23    24    1
    33    28    27    1
    34    33    35    1
    35    35    30    1
    36    35    36    1
    37    27    24    1
    38    24    26    2
    39    24    25    1
    40    36    44    1
    41    36    37    1
    42    44    43    2
    43    37    38    1
    44    43    42    1
    45    38    42    2
    46    38    39    1
    47    40    39    2
    48    39    41   am
