@<TRIPOS>MOLECULE
3cip_ATP_A_1.pdb
 31 33 0 0 0
SMALL
GASTEIGER

@<TRIPOS>ATOM
      1  PG        14.2900   -0.4180   14.8290 P.3   401  ATP401      0.5373
      2  O1G       13.1480   -0.3200   15.8240 O.3   401  ATP401     -0.1143
      3  O2G       15.6390   -0.1600   15.4170 O.3   401  ATP401     -0.1143
      4  O3G       14.2480   -1.6370   13.9240 O.2   401  ATP401     -0.2221
      5  PB        14.8660    1.9750   13.1680 P.3   401  ATP401      0.2277
      6  O1B       14.2140    2.3800   11.8830 O.2   401  ATP401     -0.5168
      7  O2B       16.3200    1.6260   13.2060 O.3   401  ATP401     -0.4368
      8  O3B       13.9540    0.8110   13.8030 O.3   401  ATP401     -0.2258
      9  PA        15.4150    4.4740   14.4910 P.3   401  ATP401      0.2189
     10  O1A       15.9880    4.9750   13.1770 O.2   401  ATP401     -0.5170
     11  O2A       16.3450    4.2880   15.6750 O.3   401  ATP401     -0.4371
     12  O3A       14.5410    3.1440   14.2200 O.3   401  ATP401     -0.2700
     13  O5'       14.2290    5.4140   15.0120 O.3   401  ATP401     -0.3112
     14  C5'       13.2170    5.8750   14.1030 C.3   401  ATP401      0.1813
     15  C4'       12.1860    6.5980   14.9620 C.3   401  ATP401      0.1821
     16  O4'       12.8850    7.6060   15.6880 O.3   401  ATP401     -0.3135
     17  C3'       11.1170    7.2880   14.1310 C.3   401  ATP401      0.2184
     18  O3'        9.8280    6.9750   14.7010 O.3   401  ATP401     -0.2174
     19  C2'       11.4410    8.7580   14.2960 C.3   401  ATP401      0.2570
     20  O2'       10.2870    9.6040   14.1390 O.3   401  ATP401     -0.2130
     21  C1'       12.0610    8.7570   15.7000 C.3   401  ATP401      0.3186
     22  N9        12.8610    9.9620   15.9040 N.pl3 401  ATP401     -0.1439
     23  C8        13.8870   10.4000   15.1420 C.3   401  ATP401      0.3377
     24  N7        14.3610   11.5800   15.6230 N.2   401  ATP401     -0.2095
     25  C5        13.6170   11.8800   16.7010 C.2   401  ATP401      0.2526
     26  C6        13.5830   12.9890   17.6600 C.2   401  ATP401      0.4393
     27  N6        14.4610   14.0100   17.5460 N.pl3 401  ATP401      0.2180
     28  N1        12.6710   12.9250   18.6480 N.2   401  ATP401      0.0021
     29  C2        11.7810   11.9160   18.7660 C.3   401  ATP401      0.5254
     30  N3        11.7340   10.8720   17.9290 N.2   401  ATP401     -0.0055
     31  C4        12.6240   10.8150   16.8920 C.2   401  ATP401      0.3518
@<TRIPOS>BOND
     1     6     5    2
     2     5     7    1
     3     5     8    1
     4     5    12    1
     5    10     9    2
     6     8     1    1
     7     4     1    2
     8    14    15    1
     9    14    13    1
    10    17    19    1
    11    17    18    1
    12    17    15    1
    13    20    19    1
    14    12     9    1
    15    19    21    1
    16     9    13    1
    17     9    11    1
    18     1     3    1
    19     1     2    1
    20    15    16    1
    21    23    24    1
    22    23    22    1
    23    24    25    2
    24    16    21    1
    25    21    22    1
    26    22    31    1
    27    25    31    1
    28    25    26    1
    29    31    30    2
    30    27    26    1
    31    26    28    2
    32    30    29    1
    33    28    29    1
